MODEL 1
REMARK VINA RESULT:      -9.3      0.000      0.000
REMARK  Name = 
REMARK  10 active torsions:
REMARK  status: ('A' for Active; 'I' for Inactive)
REMARK    1  A    between atoms: C_2  and  C_4
REMARK    2  A    between atoms: C_6  and  C_7
REMARK    3  A    between atoms: C_7  and  C_8
REMARK    4  A    between atoms: N_10  and  C_11
REMARK    5  A    between atoms: C_11  and  C_12
REMARK    6  A    between atoms: C_21  and  C_22
REMARK    7  A    between atoms: C_22  and  N_23
REMARK    8  A    between atoms: C_24  and  C_26
REMARK    9  A    between atoms: C_26  and  O_27
REMARK   10  A    between atoms: O_27  and  C_28
REMARK                            x       y       z     vdW  Elec       q    Type
REMARK                         _______ _______ _______ _____ _____    ______ ____
ROOT
ATOM      4  C   UNL     1      -1.234   1.054  24.552  0.00  0.00    +0.006 C 
ATOM      5  C   UNL     1      -1.723   1.627  24.886  0.00  0.00    +0.005 C 
ATOM      6  C   UNL     1      -1.483   2.417  24.903  0.00  0.00    +0.027 C 
ATOM     18  C   UNL     1      -0.753   2.632  24.586  0.00  0.00    -0.048 C 
ATOM     19  C   UNL     1      -0.512   3.422  24.603  0.00  0.00    +0.026 C 
ATOM     20  C   UNL     1      -0.262   2.058  24.252  0.00  0.00    -0.033 C 
ATOM     21  C   UNL     1      -0.503   1.270  24.235  0.00  0.00    +0.043 C 
ENDROOT
BRANCH   4   2
ATOM      1  C   UNL     1      -1.264  -0.243  25.150  0.00  0.00    +0.000 C 
ATOM      2  C   UNL     1      -1.474   0.266  24.536  0.00  0.00    +0.000 C 
ATOM      3  C   UNL     1      -1.924  -0.015  23.903  0.00  0.00    +0.000 C 
ENDBRANCH   4   2
BRANCH   6   7
ATOM      7  C   UNL     1      -1.973   2.991  25.237  0.00  0.00    +0.091 C 
BRANCH   7   8
ATOM      8  C   UNL     1      -2.699   3.168  24.889  0.00  0.00    +0.242 C 
ATOM      9  O   UNL     1      -2.723   3.556  24.161  0.00  0.00    -0.273 OA
ATOM     10  N   UNL     1      -3.400   2.959  25.267  0.00  0.00    -0.200 NA
BRANCH  10  11
ATOM     11  C   UNL     1      -4.127   3.136  24.919  0.00  0.00    +0.143 C 
BRANCH  11  12
ATOM     12  C   UNL     1      -4.820   2.804  25.217  0.00  0.00    +0.019 A 
ATOM     13  C   UNL     1      -5.178   2.173  24.823  0.00  0.00    +0.001 A 
ATOM     14  C   UNL     1      -5.872   1.841  25.121  0.00  0.00    +0.020 A 
ATOM     15  C   UNL     1      -6.208   2.139  25.813  0.00  0.00    +0.099 A 
ATOM     16  N   UNL     1      -5.850   2.770  26.206  0.00  0.00    -0.243 NA
ATOM     17  C   UNL     1      -5.157   3.102  25.908  0.00  0.00    +0.096 A 
ENDBRANCH  11  12
ENDBRANCH  10  11
ENDBRANCH   7   8
ENDBRANCH   6   7
BRANCH  21  22
ATOM     22  C   UNL     1      -0.013   0.697  23.901  0.00  0.00    +0.120 C 
BRANCH  22  23
ATOM     23  N   UNL     1       0.779   0.871  23.747  0.00  0.00    -0.202 NA
ATOM     24  C   UNL     1       1.209   0.404  23.220  0.00  0.00    +0.286 C 
ATOM     25  O   UNL     1       0.848  -0.236  22.848  0.00  0.00    -0.269 OA
BRANCH  24  26
ATOM     26  C   UNL     1       2.001   0.579  23.067  0.00  0.00    +0.291 C 
BRANCH  26  27
ATOM     27  O   UNL     1       2.533  -0.031  22.905  0.00  0.00    -0.466 OA
BRANCH  27  28
ATOM     28  C   UNL     1       3.345   0.099  22.984  0.00  0.00    +0.139 A 
ATOM     29  C   UNL     1       3.820  -0.474  23.340  0.00  0.00    +0.037 A 
ATOM     30  C   UNL     1       4.632  -0.344  23.419  0.00  0.00    +0.003 A 
ATOM     31  C   UNL     1       4.967   0.357  23.143  0.00  0.00    +0.000 A 
ATOM     32  C   UNL     1       4.490   0.929  22.787  0.00  0.00    +0.003 A 
ATOM     33  C   UNL     1       3.680   0.800  22.708  0.00  0.00    +0.037 A 
ENDBRANCH  27  28
ENDBRANCH  26  27
ENDBRANCH  24  26
ENDBRANCH  22  23
ENDBRANCH  21  22
TORSDOF 10
ENDMDL
MODEL 2
REMARK VINA RESULT:      -8.8      1.541      6.986
REMARK  Name = 
REMARK  10 active torsions:
REMARK  status: ('A' for Active; 'I' for Inactive)
REMARK    1  A    between atoms: C_2  and  C_4
REMARK    2  A    between atoms: C_6  and  C_7
REMARK    3  A    between atoms: C_7  and  C_8
REMARK    4  A    between atoms: N_10  and  C_11
REMARK    5  A    between atoms: C_11  and  C_12
REMARK    6  A    between atoms: C_21  and  C_22
REMARK    7  A    between atoms: C_22  and  N_23
REMARK    8  A    between atoms: C_24  and  C_26
REMARK    9  A    between atoms: C_26  and  O_27
REMARK   10  A    between atoms: O_27  and  C_28
REMARK                            x       y       z     vdW  Elec       q    Type
REMARK                         _______ _______ _______ _____ _____    ______ ____
ROOT
ATOM      4  C   UNL     1      -0.917  -0.482  24.476  0.00  0.00    +0.006 C 
ATOM      5  C   UNL     1      -0.198  -0.164  24.227  0.00  0.00    +0.005 C 
ATOM      6  C   UNL     1      -0.168   0.603  23.923  0.00  0.00    +0.027 C 
ATOM     18  C   UNL     1      -0.859   1.051  23.867  0.00  0.00    -0.048 C 
ATOM     19  C   UNL     1      -0.830   1.818  23.563  0.00  0.00    +0.026 C 
ATOM     20  C   UNL     1      -1.579   0.733  24.116  0.00  0.00    -0.033 C 
ATOM     21  C   UNL     1      -1.608  -0.033  24.420  0.00  0.00    +0.043 C 
ENDROOT
BRANCH   4   2
ATOM      1  C   UNL     1      -0.753  -1.386  25.570  0.00  0.00    +0.000 C 
ATOM      2  C   UNL     1      -0.946  -1.247  24.780  0.00  0.00    +0.000 C 
ATOM      3  C   UNL     1      -1.170  -1.876  24.293  0.00  0.00    +0.000 C 
ENDBRANCH   4   2
BRANCH   6   7
ATOM      7  C   UNL     1       0.551   0.921  23.674  0.00  0.00    +0.091 C 
BRANCH   7   8
ATOM      8  C   UNL     1       1.053   0.480  23.192  0.00  0.00    +0.242 C 
ATOM      9  O   UNL     1       0.739  -0.016  22.613  0.00  0.00    -0.273 OA
ATOM     10  N   UNL     1       1.870   0.535  23.288  0.00  0.00    -0.200 NA
BRANCH  10  11
ATOM     11  C   UNL     1       2.374   0.094  22.805  0.00  0.00    +0.143 C 
BRANCH  11  12
ATOM     12  C   UNL     1       3.190   0.146  22.904  0.00  0.00    +0.019 A 
ATOM     13  C   UNL     1       3.592   0.829  22.671  0.00  0.00    +0.001 A 
ATOM     14  C   UNL     1       4.410   0.880  22.769  0.00  0.00    +0.020 A 
ATOM     15  C   UNL     1       4.826   0.250  23.100  0.00  0.00    +0.099 A 
ATOM     16  N   UNL     1       4.424  -0.433  23.333  0.00  0.00    -0.243 NA
ATOM     17  C   UNL     1       3.608  -0.485  23.235  0.00  0.00    +0.096 A 
ENDBRANCH  11  12
ENDBRANCH  10  11
ENDBRANCH   7   8
ENDBRANCH   6   7
BRANCH  21  22
ATOM     22  C   UNL     1      -2.327  -0.351  24.668  0.00  0.00    +0.120 C 
BRANCH  22  23
ATOM     23  N   UNL     1      -2.909   0.143  24.982  0.00  0.00    -0.202 NA
ATOM     24  C   UNL     1      -3.703  -0.076  24.938  0.00  0.00    +0.286 C 
ATOM     25  O   UNL     1      -3.916  -0.787  24.581  0.00  0.00    -0.269 OA
BRANCH  24  26
ATOM     26  C   UNL     1      -4.285   0.419  25.253  0.00  0.00    +0.291 C 
BRANCH  26  27
ATOM     27  O   UNL     1      -4.735   0.895  24.752  0.00  0.00    -0.466 OA
BRANCH  27  28
ATOM     28  C   UNL     1      -5.080   1.588  25.041  0.00  0.00    +0.139 A 
ATOM     29  C   UNL     1      -5.731   1.544  25.545  0.00  0.00    +0.037 A 
ATOM     30  C   UNL     1      -6.076   2.236  25.835  0.00  0.00    +0.003 A 
ATOM     31  C   UNL     1      -5.769   2.971  25.620  0.00  0.00    +0.000 A 
ATOM     32  C   UNL     1      -5.117   3.013  25.116  0.00  0.00    +0.003 A 
ATOM     33  C   UNL     1      -4.772   2.322  24.827  0.00  0.00    +0.037 A 
ENDBRANCH  27  28
ENDBRANCH  26  27
ENDBRANCH  24  26
ENDBRANCH  22  23
ENDBRANCH  21  22
TORSDOF 10
ENDMDL
MODEL 3
REMARK VINA RESULT:      -8.7      2.381      3.732
REMARK  Name = 
REMARK  10 active torsions:
REMARK  status: ('A' for Active; 'I' for Inactive)
REMARK    1  A    between atoms: C_2  and  C_4
REMARK    2  A    between atoms: C_6  and  C_7
REMARK    3  A    between atoms: C_7  and  C_8
REMARK    4  A    between atoms: N_10  and  C_11
REMARK    5  A    between atoms: C_11  and  C_12
REMARK    6  A    between atoms: C_21  and  C_22
REMARK    7  A    between atoms: C_22  and  N_23
REMARK    8  A    between atoms: C_24  and  C_26
REMARK    9  A    between atoms: C_26  and  O_27
REMARK   10  A    between atoms: O_27  and  C_28
REMARK                            x       y       z     vdW  Elec       q    Type
REMARK                         _______ _______ _______ _____ _____    ______ ____
ROOT
ATOM      4  C   UNL     1      -1.142   2.033  24.672  0.00  0.00    +0.006 C 
ATOM      5  C   UNL     1      -1.612   2.692  24.517  0.00  0.00    +0.005 C 
ATOM      6  C   UNL     1      -2.112   2.697  23.861  0.00  0.00    +0.027 C 
ATOM     18  C   UNL     1      -2.142   2.042  23.360  0.00  0.00    -0.048 C 
ATOM     19  C   UNL     1      -2.643   2.046  22.704  0.00  0.00    +0.026 C 
ATOM     20  C   UNL     1      -1.671   1.382  23.516  0.00  0.00    -0.033 C 
ATOM     21  C   UNL     1      -1.171   1.378  24.172  0.00  0.00    +0.043 C 
ENDROOT
BRANCH   4   2
ATOM      1  C   UNL     1      -0.918   1.756  26.056  0.00  0.00    +0.000 C 
ATOM      2  C   UNL     1      -0.642   2.028  25.328  0.00  0.00    +0.000 C 
ATOM      3  C   UNL     1       0.136   2.296  25.256  0.00  0.00    +0.000 C 
ENDBRANCH   4   2
BRANCH   6   7
ATOM      7  C   UNL     1      -2.584   3.356  23.705  0.00  0.00    +0.091 C 
BRANCH   7   8
ATOM      8  C   UNL     1      -3.090   3.649  24.286  0.00  0.00    +0.242 C 
ATOM      9  O   UNL     1      -2.862   4.295  24.745  0.00  0.00    -0.273 OA
ATOM     10  N   UNL     1      -3.824   3.295  24.409  0.00  0.00    -0.200 NA
BRANCH  10  11
ATOM     11  C   UNL     1      -4.332   3.587  24.991  0.00  0.00    +0.143 C 
BRANCH  11  12
ATOM     12  C   UNL     1      -4.937   3.112  25.288  0.00  0.00    +0.019 A 
ATOM     13  C   UNL     1      -5.308   2.562  24.796  0.00  0.00    +0.001 A 
ATOM     14  C   UNL     1      -5.914   2.087  25.094  0.00  0.00    +0.020 A 
ATOM     15  C   UNL     1      -6.148   2.161  25.881  0.00  0.00    +0.099 A 
ATOM     16  N   UNL     1      -5.776   2.711  26.372  0.00  0.00    -0.243 NA
ATOM     17  C   UNL     1      -5.171   3.186  26.075  0.00  0.00    +0.096 A 
ENDBRANCH  11  12
ENDBRANCH  10  11
ENDBRANCH   7   8
ENDBRANCH   6   7
BRANCH  21  22
ATOM     22  C   UNL     1      -0.701   0.718  24.326  0.00  0.00    +0.120 C 
BRANCH  22  23
ATOM     23  N   UNL     1      -1.040  -0.034  24.349  0.00  0.00    -0.202 NA
ATOM     24  C   UNL     1      -0.563  -0.704  24.281  0.00  0.00    +0.286 C 
ATOM     25  O   UNL     1       0.252  -0.622  24.192  0.00  0.00    -0.269 OA
BRANCH  24  26
ATOM     26  C   UNL     1      -0.903  -1.456  24.303  0.00  0.00    +0.291 C 
BRANCH  26  27
ATOM     27  O   UNL     1      -1.355  -1.684  24.954  0.00  0.00    -0.466 OA
BRANCH  27  28
ATOM     28  C   UNL     1      -2.062  -2.096  24.841  0.00  0.00    +0.139 A 
ATOM     29  C   UNL     1      -2.750  -1.844  25.219  0.00  0.00    +0.037 A 
ATOM     30  C   UNL     1      -3.457  -2.256  25.106  0.00  0.00    +0.003 A 
ATOM     31  C   UNL     1      -3.474  -2.919  24.615  0.00  0.00    +0.000 A 
ATOM     32  C   UNL     1      -2.784  -3.170  24.238  0.00  0.00    +0.003 A 
ATOM     33  C   UNL     1      -2.079  -2.759  24.350  0.00  0.00    +0.037 A 
ENDBRANCH  27  28
ENDBRANCH  26  27
ENDBRANCH  24  26
ENDBRANCH  22  23
ENDBRANCH  21  22
TORSDOF 10
ENDMDL
MODEL 4
REMARK VINA RESULT:      -8.7      3.430      5.744
REMARK  Name = 
REMARK  10 active torsions:
REMARK  status: ('A' for Active; 'I' for Inactive)
REMARK    1  A    between atoms: C_2  and  C_4
REMARK    2  A    between atoms: C_6  and  C_7
REMARK    3  A    between atoms: C_7  and  C_8
REMARK    4  A    between atoms: N_10  and  C_11
REMARK    5  A    between atoms: C_11  and  C_12
REMARK    6  A    between atoms: C_21  and  C_22
REMARK    7  A    between atoms: C_22  and  N_23
REMARK    8  A    between atoms: C_24  and  C_26
REMARK    9  A    between atoms: C_26  and  O_27
REMARK   10  A    between atoms: O_27  and  C_28
REMARK                            x       y       z     vdW  Elec       q    Type
REMARK                         _______ _______ _______ _____ _____    ______ ____
ROOT
ATOM      4  C   UNL     1      -4.929   1.338  24.850  0.00  0.00    +0.006 C 
ATOM      5  C   UNL     1      -4.810   0.596  24.509  0.00  0.00    +0.005 C 
ATOM      6  C   UNL     1      -4.182   0.476  23.988  0.00  0.00    +0.027 C 
ATOM     18  C   UNL     1      -3.672   1.099  23.807  0.00  0.00    -0.048 C 
ATOM     19  C   UNL     1      -3.043   0.980  23.286  0.00  0.00    +0.026 C 
ATOM     20  C   UNL     1      -3.791   1.842  24.148  0.00  0.00    -0.033 C 
ATOM     21  C   UNL     1      -4.419   1.961  24.669  0.00  0.00    +0.043 C 
ENDROOT
BRANCH   4   2
ATOM      1  C   UNL     1      -5.470   1.275  26.171  0.00  0.00    +0.000 C 
ATOM      2  C   UNL     1      -5.557   1.457  25.370  0.00  0.00    +0.000 C 
ATOM      3  C   UNL     1      -6.273   1.759  25.091  0.00  0.00    +0.000 C 
ENDBRANCH   4   2
BRANCH   6   7
ATOM      7  C   UNL     1      -4.063  -0.266  23.647  0.00  0.00    +0.091 C 
BRANCH   7   8
ATOM      8  C   UNL     1      -3.852  -0.908  24.119  0.00  0.00    +0.242 C 
ATOM      9  O   UNL     1      -4.434  -1.413  24.412  0.00  0.00    -0.273 OA
ATOM     10  N   UNL     1      -3.059  -1.045  24.298  0.00  0.00    -0.200 NA
BRANCH  10  11
ATOM     11  C   UNL     1      -2.847  -1.687  24.770  0.00  0.00    +0.143 C 
BRANCH  11  12
ATOM     12  C   UNL     1      -2.052  -1.839  24.929  0.00  0.00    +0.019 A 
ATOM     13  C   UNL     1      -1.637  -1.355  25.454  0.00  0.00    +0.001 A 
ATOM     14  C   UNL     1      -0.841  -1.507  25.613  0.00  0.00    +0.020 A 
ATOM     15  C   UNL     1      -0.461  -2.141  25.248  0.00  0.00    +0.099 A 
ATOM     16  N   UNL     1      -0.876  -2.624  24.722  0.00  0.00    -0.243 NA
ATOM     17  C   UNL     1      -1.671  -2.473  24.564  0.00  0.00    +0.096 A 
ENDBRANCH  11  12
ENDBRANCH  10  11
ENDBRANCH   7   8
ENDBRANCH   6   7
BRANCH  21  22
ATOM     22  C   UNL     1      -4.537   2.703  25.009  0.00  0.00    +0.120 C 
BRANCH  22  23
ATOM     23  N   UNL     1      -3.972   3.297  24.908  0.00  0.00    -0.202 NA
ATOM     24  C   UNL     1      -3.858   3.861  25.499  0.00  0.00    +0.286 C 
ATOM     25  O   UNL     1      -4.308   3.832  26.189  0.00  0.00    -0.269 OA
BRANCH  24  26
ATOM     26  C   UNL     1      -3.294   4.455  25.398  0.00  0.00    +0.291 C 
BRANCH  26  27
ATOM     27  O   UNL     1      -2.588   4.429  25.825  0.00  0.00    -0.466 OA
BRANCH  27  28
ATOM     28  C   UNL     1      -1.876   4.624  25.456  0.00  0.00    +0.139 A 
ATOM     29  C   UNL     1      -1.757   5.388  25.168  0.00  0.00    +0.037 A 
ATOM     30  C   UNL     1      -1.045   5.583  24.799  0.00  0.00    +0.003 A 
ATOM     31  C   UNL     1      -0.452   5.014  24.718  0.00  0.00    +0.000 A 
ATOM     32  C   UNL     1      -0.573   4.250  25.006  0.00  0.00    +0.003 A 
ATOM     33  C   UNL     1      -1.284   4.055  25.374  0.00  0.00    +0.037 A 
ENDBRANCH  27  28
ENDBRANCH  26  27
ENDBRANCH  24  26
ENDBRANCH  22  23
ENDBRANCH  21  22
TORSDOF 10
ENDMDL
MODEL 5
REMARK VINA RESULT:      -8.6      1.314      2.185
REMARK  Name = 
REMARK  10 active torsions:
REMARK  status: ('A' for Active; 'I' for Inactive)
REMARK    1  A    between atoms: C_2  and  C_4
REMARK    2  A    between atoms: C_6  and  C_7
REMARK    3  A    between atoms: C_7  and  C_8
REMARK    4  A    between atoms: N_10  and  C_11
REMARK    5  A    between atoms: C_11  and  C_12
REMARK    6  A    between atoms: C_21  and  C_22
REMARK    7  A    between atoms: C_22  and  N_23
REMARK    8  A    between atoms: C_24  and  C_26
REMARK    9  A    between atoms: C_26  and  O_27
REMARK   10  A    between atoms: O_27  and  C_28
REMARK                            x       y       z     vdW  Elec       q    Type
REMARK                         _______ _______ _______ _____ _____    ______ ____
ROOT
ATOM      4  C   UNL     1      -0.902   0.735  23.966  0.00  0.00    +0.006 C 
ATOM      5  C   UNL     1      -1.536   0.539  24.455  0.00  0.00    +0.005 C 
ATOM      6  C   UNL     1      -1.575  -0.209  24.800  0.00  0.00    +0.027 C 
ATOM     18  C   UNL     1      -0.980  -0.762  24.655  0.00  0.00    -0.048 C 
ATOM     19  C   UNL     1      -1.018  -1.511  25.001  0.00  0.00    +0.026 C 
ATOM     20  C   UNL     1      -0.345  -0.565  24.165  0.00  0.00    -0.033 C 
ATOM     21  C   UNL     1      -0.307   0.183  23.821  0.00  0.00    +0.043 C 
ENDROOT
BRANCH   4   2
ATOM      1  C   UNL     1      -1.206   1.616  22.882  0.00  0.00    +0.000 C 
ATOM      2  C   UNL     1      -0.864   1.483  23.621  0.00  0.00    +0.000 C 
ATOM      3  C   UNL     1      -0.482   2.100  24.015  0.00  0.00    +0.000 C 
ENDBRANCH   4   2
BRANCH   6   7
ATOM      7  C   UNL     1      -2.209  -0.406  25.290  0.00  0.00    +0.091 C 
BRANCH   7   8
ATOM      8  C   UNL     1      -2.981  -0.366  25.003  0.00  0.00    +0.242 C 
ATOM      9  O   UNL     1      -3.266  -0.956  24.503  0.00  0.00    -0.273 OA
ATOM     10  N   UNL     1      -3.468   0.265  25.216  0.00  0.00    -0.200 NA
BRANCH  10  11
ATOM     11  C   UNL     1      -4.240   0.306  24.929  0.00  0.00    +0.143 C 
BRANCH  11  12
ATOM     12  C   UNL     1      -4.684   0.993  25.035  0.00  0.00    +0.019 A 
ATOM     13  C   UNL     1      -4.568   1.639  24.534  0.00  0.00    +0.001 A 
ATOM     14  C   UNL     1      -5.013   2.327  24.640  0.00  0.00    +0.020 A 
ATOM     15  C   UNL     1      -5.571   2.368  25.244  0.00  0.00    +0.099 A 
ATOM     16  N   UNL     1      -5.687   1.721  25.745  0.00  0.00    -0.243 NA
ATOM     17  C   UNL     1      -5.243   1.034  25.640  0.00  0.00    +0.096 A 
ENDBRANCH  11  12
ENDBRANCH  10  11
ENDBRANCH   7   8
ENDBRANCH   6   7
BRANCH  21  22
ATOM     22  C   UNL     1       0.328   0.379  23.331  0.00  0.00    +0.120 C 
BRANCH  22  23
ATOM     23  N   UNL     1       1.092   0.142  23.533  0.00  0.00    -0.202 NA
ATOM     24  C   UNL     1       1.656   0.023  22.943  0.00  0.00    +0.286 C 
ATOM     25  O   UNL     1       1.456   0.140  22.152  0.00  0.00    -0.269 OA
BRANCH  24  26
ATOM     26  C   UNL     1       2.421  -0.214  23.144  0.00  0.00    +0.291 C 
BRANCH  26  27
ATOM     27  O   UNL     1       3.070   0.118  22.759  0.00  0.00    -0.466 OA
BRANCH  27  28
ATOM     28  C   UNL     1       3.827   0.028  23.075  0.00  0.00    +0.139 A 
ATOM     29  C   UNL     1       4.367   0.650  23.033  0.00  0.00    +0.037 A 
ATOM     30  C   UNL     1       5.125   0.560  23.349  0.00  0.00    +0.003 A 
ATOM     31  C   UNL     1       5.341  -0.151  23.707  0.00  0.00    +0.000 A 
ATOM     32  C   UNL     1       4.800  -0.772  23.749  0.00  0.00    +0.003 A 
ATOM     33  C   UNL     1       4.043  -0.683  23.433  0.00  0.00    +0.037 A 
ENDBRANCH  27  28
ENDBRANCH  26  27
ENDBRANCH  24  26
ENDBRANCH  22  23
ENDBRANCH  21  22
TORSDOF 10
ENDMDL
MODEL 6
REMARK VINA RESULT:      -8.4      0.997      7.143
REMARK  Name = 
REMARK  10 active torsions:
REMARK  status: ('A' for Active; 'I' for Inactive)
REMARK    1  A    between atoms: C_2  and  C_4
REMARK    2  A    between atoms: C_6  and  C_7
REMARK    3  A    between atoms: C_7  and  C_8
REMARK    4  A    between atoms: N_10  and  C_11
REMARK    5  A    between atoms: C_11  and  C_12
REMARK    6  A    between atoms: C_21  and  C_22
REMARK    7  A    between atoms: C_22  and  N_23
REMARK    8  A    between atoms: C_24  and  C_26
REMARK    9  A    between atoms: C_26  and  O_27
REMARK   10  A    between atoms: O_27  and  C_28
REMARK                            x       y       z     vdW  Elec       q    Type
REMARK                         _______ _______ _______ _____ _____    ______ ____
ROOT
ATOM      4  C   UNL     1      -0.267   1.833  24.403  0.00  0.00    +0.006 C 
ATOM      5  C   UNL     1       0.222   1.213  24.167  0.00  0.00    +0.005 C 
ATOM      6  C   UNL     1      -0.100   0.472  24.001  0.00  0.00    +0.027 C 
ATOM     18  C   UNL     1      -0.914   0.351  24.069  0.00  0.00    -0.048 C 
ATOM     19  C   UNL     1      -1.237  -0.390  23.902  0.00  0.00    +0.026 C 
ATOM     20  C   UNL     1      -1.404   0.972  24.305  0.00  0.00    -0.033 C 
ATOM     21  C   UNL     1      -1.081   1.713  24.471  0.00  0.00    +0.043 C 
ENDROOT
BRANCH   4   2
ATOM      1  C   UNL     1       0.112   3.142  23.975  0.00  0.00    +0.000 C 
ATOM      2  C   UNL     1       0.055   2.573  24.569  0.00  0.00    +0.000 C 
ATOM      3  C   UNL     1       0.322   2.745  25.332  0.00  0.00    +0.000 C 
ENDBRANCH   4   2
BRANCH   6   7
ATOM      7  C   UNL     1       0.390  -0.149  23.765  0.00  0.00    +0.091 C 
BRANCH   7   8
ATOM      8  C   UNL     1       0.912  -0.047  23.136  0.00  0.00    +0.242 C 
ATOM      9  O   UNL     1       0.622   0.037  22.368  0.00  0.00    -0.273 OA
ATOM     10  N   UNL     1       1.725  -0.029  23.274  0.00  0.00    -0.200 NA
BRANCH  10  11
ATOM     11  C   UNL     1       2.248   0.073  22.644  0.00  0.00    +0.143 C 
BRANCH  11  12
ATOM     12  C   UNL     1       3.054   0.173  22.789  0.00  0.00    +0.019 A 
ATOM     13  C   UNL     1       3.416   0.898  22.631  0.00  0.00    +0.001 A 
ATOM     14  C   UNL     1       4.222   0.997  22.776  0.00  0.00    +0.020 A 
ATOM     15  C   UNL     1       4.667   0.372  23.078  0.00  0.00    +0.099 A 
ATOM     16  N   UNL     1       4.305  -0.354  23.236  0.00  0.00    -0.243 NA
ATOM     17  C   UNL     1       3.500  -0.453  23.091  0.00  0.00    +0.096 A 
ENDBRANCH  11  12
ENDBRANCH  10  11
ENDBRANCH   7   8
ENDBRANCH   6   7
BRANCH  21  22
ATOM     22  C   UNL     1      -1.571   2.332  24.707  0.00  0.00    +0.120 C 
BRANCH  22  23
ATOM     23  N   UNL     1      -2.320   2.171  25.015  0.00  0.00    -0.202 NA
ATOM     24  C   UNL     1      -2.884   2.771  25.062  0.00  0.00    +0.286 C 
ATOM     25  O   UNL     1      -2.700   3.531  24.803  0.00  0.00    -0.269 OA
BRANCH  24  26
ATOM     26  C   UNL     1      -3.633   2.610  25.371  0.00  0.00    +0.291 C 
BRANCH  26  27
ATOM     27  O   UNL     1      -4.307   2.827  24.948  0.00  0.00    -0.466 OA
BRANCH  27  28
ATOM     28  C   UNL     1      -5.043   2.518  25.160  0.00  0.00    +0.139 A 
ATOM     29  C   UNL     1      -5.413   2.772  25.852  0.00  0.00    +0.037 A 
ATOM     30  C   UNL     1      -6.149   2.463  26.064  0.00  0.00    +0.003 A 
ATOM     31  C   UNL     1      -6.514   1.900  25.584  0.00  0.00    +0.000 A 
ATOM     32  C   UNL     1      -6.143   1.647  24.891  0.00  0.00    +0.003 A 
ATOM     33  C   UNL     1      -5.408   1.955  24.680  0.00  0.00    +0.037 A 
ENDBRANCH  27  28
ENDBRANCH  26  27
ENDBRANCH  24  26
ENDBRANCH  22  23
ENDBRANCH  21  22
TORSDOF 10
ENDMDL
MODEL 7
REMARK VINA RESULT:      -8.3      2.383      5.983
REMARK  Name = 
REMARK  10 active torsions:
REMARK  status: ('A' for Active; 'I' for Inactive)
REMARK    1  A    between atoms: C_2  and  C_4
REMARK    2  A    between atoms: C_6  and  C_7
REMARK    3  A    between atoms: C_7  and  C_8
REMARK    4  A    between atoms: N_10  and  C_11
REMARK    5  A    between atoms: C_11  and  C_12
REMARK    6  A    between atoms: C_21  and  C_22
REMARK    7  A    between atoms: C_22  and  N_23
REMARK    8  A    between atoms: C_24  and  C_26
REMARK    9  A    between atoms: C_26  and  O_27
REMARK   10  A    between atoms: O_27  and  C_28
REMARK                            x       y       z     vdW  Elec       q    Type
REMARK                         _______ _______ _______ _____ _____    ______ ____
ROOT
ATOM      4  C   UNL     1      -0.588   1.927  25.179  0.00  0.00    +0.006 C 
ATOM      5  C   UNL     1      -0.311   1.220  24.857  0.00  0.00    +0.005 C 
ATOM      6  C   UNL     1      -0.620   0.941  24.144  0.00  0.00    +0.027 C 
ATOM     18  C   UNL     1      -1.205   1.372  23.753  0.00  0.00    -0.048 C 
ATOM     19  C   UNL     1      -1.514   1.094  23.039  0.00  0.00    +0.026 C 
ATOM     20  C   UNL     1      -1.482   2.080  24.074  0.00  0.00    -0.033 C 
ATOM     21  C   UNL     1      -1.173   2.357  24.787  0.00  0.00    +0.043 C 
ENDROOT
BRANCH   4   2
ATOM      1  C   UNL     1      -0.600   1.949  26.607  0.00  0.00    +0.000 C 
ATOM      2  C   UNL     1      -0.279   2.204  25.891  0.00  0.00    +0.000 C 
ATOM      3  C   UNL     1       0.351   2.738  25.888  0.00  0.00    +0.000 C 
ENDBRANCH   4   2
BRANCH   6   7
ATOM      7  C   UNL     1      -0.343   0.234  23.822  0.00  0.00    +0.091 C 
BRANCH   7   8
ATOM      8  C   UNL     1      -0.423  -0.471  24.243  0.00  0.00    +0.242 C 
ATOM      9  O   UNL     1       0.226  -0.788  24.641  0.00  0.00    -0.273 OA
ATOM     10  N   UNL     1      -1.150  -0.858  24.266  0.00  0.00    -0.200 NA
BRANCH  10  11
ATOM     11  C   UNL     1      -1.230  -1.563  24.687  0.00  0.00    +0.143 C 
BRANCH  11  12
ATOM     12  C   UNL     1      -1.969  -1.922  24.754  0.00  0.00    +0.019 A 
ATOM     13  C   UNL     1      -2.514  -1.646  25.310  0.00  0.00    +0.001 A 
ATOM     14  C   UNL     1      -3.253  -2.006  25.376  0.00  0.00    +0.020 A 
ATOM     15  C   UNL     1      -3.449  -2.641  24.888  0.00  0.00    +0.099 A 
ATOM     16  N   UNL     1      -2.904  -2.917  24.332  0.00  0.00    -0.243 NA
ATOM     17  C   UNL     1      -2.165  -2.558  24.266  0.00  0.00    +0.096 A 
ENDBRANCH  11  12
ENDBRANCH  10  11
ENDBRANCH   7   8
ENDBRANCH   6   7
BRANCH  21  22
ATOM     22  C   UNL     1      -1.450   3.064  25.108  0.00  0.00    +0.120 C 
BRANCH  22  23
ATOM     23  N   UNL     1      -2.247   3.141  25.310  0.00  0.00    -0.202 NA
ATOM     24  C   UNL     1      -2.619   3.875  25.244  0.00  0.00    +0.286 C 
ATOM     25  O   UNL     1      -2.196   4.530  24.978  0.00  0.00    -0.269 OA
BRANCH  24  26
ATOM     26  C   UNL     1      -3.416   3.952  25.445  0.00  0.00    +0.291 C 
BRANCH  26  27
ATOM     27  O   UNL     1      -3.998   3.826  24.875  0.00  0.00    -0.466 OA
BRANCH  27  28
ATOM     28  C   UNL     1      -4.667   3.378  25.061  0.00  0.00    +0.139 A 
ATOM     29  C   UNL     1      -4.855   2.714  24.610  0.00  0.00    +0.037 A 
ATOM     30  C   UNL     1      -5.523   2.265  24.795  0.00  0.00    +0.003 A 
ATOM     31  C   UNL     1      -6.002   2.482  25.431  0.00  0.00    +0.000 A 
ATOM     32  C   UNL     1      -5.812   3.147  25.882  0.00  0.00    +0.003 A 
ATOM     33  C   UNL     1      -5.145   3.594  25.697  0.00  0.00    +0.037 A 
ENDBRANCH  27  28
ENDBRANCH  26  27
ENDBRANCH  24  26
ENDBRANCH  22  23
ENDBRANCH  21  22
TORSDOF 10
ENDMDL
MODEL 8
REMARK VINA RESULT:      -8.2      2.871      5.620
REMARK  Name = 
REMARK  10 active torsions:
REMARK  status: ('A' for Active; 'I' for Inactive)
REMARK    1  A    between atoms: C_2  and  C_4
REMARK    2  A    between atoms: C_6  and  C_7
REMARK    3  A    between atoms: C_7  and  C_8
REMARK    4  A    between atoms: N_10  and  C_11
REMARK    5  A    between atoms: C_11  and  C_12
REMARK    6  A    between atoms: C_21  and  C_22
REMARK    7  A    between atoms: C_22  and  N_23
REMARK    8  A    between atoms: C_24  and  C_26
REMARK    9  A    between atoms: C_26  and  O_27
REMARK   10  A    between atoms: O_27  and  C_28
REMARK                            x       y       z     vdW  Elec       q    Type
REMARK                         _______ _______ _______ _____ _____    ______ ____
ROOT
ATOM      4  C   UNL     1      -3.683   3.298  24.274  0.00  0.00    +0.006 C 
ATOM      5  C   UNL     1      -3.166   3.892  24.517  0.00  0.00    +0.005 C 
ATOM      6  C   UNL     1      -3.074   4.056  25.321  0.00  0.00    +0.027 C 
ATOM     18  C   UNL     1      -3.499   3.625  25.881  0.00  0.00    -0.048 C 
ATOM     19  C   UNL     1      -3.407   3.789  26.685  0.00  0.00    +0.026 C 
ATOM     20  C   UNL     1      -4.016   3.029  25.638  0.00  0.00    -0.033 C 
ATOM     21  C   UNL     1      -4.108   2.866  24.835  0.00  0.00    +0.043 C 
ENDROOT
BRANCH   4   2
ATOM      1  C   UNL     1      -3.264   2.606  23.096  0.00  0.00    +0.000 C 
ATOM      2  C   UNL     1      -3.775   3.134  23.472  0.00  0.00    +0.000 C 
ATOM      3  C   UNL     1      -4.379   3.498  23.043  0.00  0.00    +0.000 C 
ENDBRANCH   4   2
BRANCH   6   7
ATOM      7  C   UNL     1      -2.557   4.652  25.565  0.00  0.00    +0.091 C 
BRANCH   7   8
ATOM      8  C   UNL     1      -1.769   4.639  25.322  0.00  0.00    +0.242 C 
ATOM      9  O   UNL     1      -1.448   5.291  24.931  0.00  0.00    -0.273 OA
ATOM     10  N   UNL     1      -1.302   3.976  25.470  0.00  0.00    -0.200 NA
BRANCH  10  11
ATOM     11  C   UNL     1      -0.514   3.963  25.227  0.00  0.00    +0.143 C 
BRANCH  11  12
ATOM     12  C   UNL     1      -0.126   3.244  25.122  0.00  0.00    +0.019 A 
ATOM     13  C   UNL     1       0.053   2.978  24.360  0.00  0.00    +0.001 A 
ATOM     14  C   UNL     1       0.441   2.258  24.256  0.00  0.00    +0.020 A 
ATOM     15  C   UNL     1       0.651   1.803  24.910  0.00  0.00    +0.099 A 
ATOM     16  N   UNL     1       0.473   2.068  25.672  0.00  0.00    -0.243 NA
ATOM     17  C   UNL     1       0.085   2.788  25.777  0.00  0.00    +0.096 A 
ENDBRANCH  11  12
ENDBRANCH  10  11
ENDBRANCH   7   8
ENDBRANCH   6   7
BRANCH  21  22
ATOM     22  C   UNL     1      -4.625   2.271  24.592  0.00  0.00    +0.120 C 
BRANCH  22  23
ATOM     23  N   UNL     1      -4.424   1.478  24.707  0.00  0.00    -0.202 NA
ATOM     24  C   UNL     1      -5.017   0.911  24.785  0.00  0.00    +0.286 C 
ATOM     25  O   UNL     1      -5.810   1.134  24.749  0.00  0.00    -0.269 OA
BRANCH  24  26
ATOM     26  C   UNL     1      -4.817   0.118  24.901  0.00  0.00    +0.291 C 
BRANCH  26  27
ATOM     27  O   UNL     1      -4.341  -0.271  24.350  0.00  0.00    -0.466 OA
BRANCH  27  28
ATOM     28  C   UNL     1      -4.091  -1.044  24.495  0.00  0.00    +0.139 A 
ATOM     29  C   UNL     1      -3.673  -1.219  25.184  0.00  0.00    +0.037 A 
ATOM     30  C   UNL     1      -3.423  -1.993  25.329  0.00  0.00    +0.003 A 
ATOM     31  C   UNL     1      -3.590  -2.589  24.784  0.00  0.00    +0.000 A 
ATOM     32  C   UNL     1      -4.008  -2.413  24.094  0.00  0.00    +0.003 A 
ATOM     33  C   UNL     1      -4.258  -1.640  23.950  0.00  0.00    +0.037 A 
ENDBRANCH  27  28
ENDBRANCH  26  27
ENDBRANCH  24  26
ENDBRANCH  22  23
ENDBRANCH  21  22
TORSDOF 10
ENDMDL
MODEL 9
REMARK VINA RESULT:      -5.8     14.651     15.946
REMARK  Name = 
REMARK  10 active torsions:
REMARK  status: ('A' for Active; 'I' for Inactive)
REMARK    1  A    between atoms: C_2  and  C_4
REMARK    2  A    between atoms: C_6  and  C_7
REMARK    3  A    between atoms: C_7  and  C_8
REMARK    4  A    between atoms: N_10  and  C_11
REMARK    5  A    between atoms: C_11  and  C_12
REMARK    6  A    between atoms: C_21  and  C_22
REMARK    7  A    between atoms: C_22  and  N_23
REMARK    8  A    between atoms: C_24  and  C_26
REMARK    9  A    between atoms: C_26  and  O_27
REMARK   10  A    between atoms: O_27  and  C_28
REMARK                            x       y       z     vdW  Elec       q    Type
REMARK                         _______ _______ _______ _____ _____    ______ ____
ROOT
ATOM      4  C   UNL     1      -5.716 -10.300  15.758  0.00  0.00    +0.006 C 
ATOM      5  C   UNL     1      -6.432 -10.362  16.162  0.00  0.00    +0.005 C 
ATOM      6  C   UNL     1      -7.128 -10.516  15.747  0.00  0.00    +0.027 C 
ATOM     18  C   UNL     1      -7.108 -10.609  14.928  0.00  0.00    -0.048 C 
ATOM     19  C   UNL     1      -7.804 -10.763  14.512  0.00  0.00    +0.026 C 
ATOM     20  C   UNL     1      -6.391 -10.547  14.523  0.00  0.00    -0.033 C 
ATOM     21  C   UNL     1      -5.695 -10.392  14.939  0.00  0.00    +0.043 C 
ENDROOT
BRANCH   4   2
ATOM      1  C   UNL     1      -4.474 -10.750  16.303  0.00  0.00    +0.000 C 
ATOM      2  C   UNL     1      -5.020 -10.146  16.173  0.00  0.00    +0.000 C 
ATOM      3  C   UNL     1      -4.870  -9.385  16.459  0.00  0.00    +0.000 C 
ENDBRANCH   4   2
BRANCH   6   7
ATOM      7  C   UNL     1      -7.845 -10.578  16.151  0.00  0.00    +0.091 C 
BRANCH   7   8
ATOM      8  C   UNL     1      -8.046 -10.020  16.724  0.00  0.00    +0.242 C 
ATOM      9  O   UNL     1      -7.688 -10.044  17.466  0.00  0.00    -0.273 OA
ATOM     10  N   UNL     1      -8.605  -9.438  16.554  0.00  0.00    -0.200 NA
BRANCH  10  11
ATOM     11  C   UNL     1      -8.807  -8.879  17.127  0.00  0.00    +0.143 C 
BRANCH  11  12
ATOM     12  C   UNL     1      -9.428  -8.355  16.991  0.00  0.00    +0.019 A 
ATOM     13  C   UNL     1      -9.402  -7.843  16.342  0.00  0.00    +0.001 A 
ATOM     14  C   UNL     1     -10.024  -7.318  16.207  0.00  0.00    +0.020 A 
ATOM     15  C   UNL     1     -10.671  -7.303  16.717  0.00  0.00    +0.099 A 
ATOM     16  N   UNL     1     -10.697  -7.814  17.366  0.00  0.00    -0.243 NA
ATOM     17  C   UNL     1     -10.076  -8.339  17.502  0.00  0.00    +0.096 A 
ENDBRANCH  11  12
ENDBRANCH  10  11
ENDBRANCH   7   8
ENDBRANCH   6   7
BRANCH  21  22
ATOM     22  C   UNL     1      -4.979 -10.331  14.534  0.00  0.00    +0.120 C 
BRANCH  22  23
ATOM     23  N   UNL     1      -4.974 -10.294  13.709  0.00  0.00    -0.202 NA
ATOM     24  C   UNL     1      -4.257 -10.260  13.303  0.00  0.00    +0.286 C 
ATOM     25  O   UNL     1      -3.546 -10.263  13.720  0.00  0.00    -0.269 OA
BRANCH  24  26
ATOM     26  C   UNL     1      -4.252 -10.224  12.478  0.00  0.00    +0.291 C 
BRANCH  26  27
ATOM     27  O   UNL     1      -3.630  -9.850  12.086  0.00  0.00    -0.466 OA
BRANCH  27  28
ATOM     28  C   UNL     1      -3.667  -9.735  11.269  0.00  0.00    +0.139 A 
ATOM     29  C   UNL     1      -3.446 -10.342  10.757  0.00  0.00    +0.037 A 
ATOM     30  C   UNL     1      -3.483 -10.227   9.941  0.00  0.00    +0.003 A 
ATOM     31  C   UNL     1      -3.741  -9.505   9.637  0.00  0.00    +0.000 A 
ATOM     32  C   UNL     1      -3.963  -8.898  10.150  0.00  0.00    +0.003 A 
ATOM     33  C   UNL     1      -3.926  -9.012  10.966  0.00  0.00    +0.037 A 
ENDBRANCH  27  28
ENDBRANCH  26  27
ENDBRANCH  24  26
ENDBRANCH  22  23
ENDBRANCH  21  22
TORSDOF 10
ENDMDL
MODEL 10
REMARK VINA RESULT:      -5.5     16.523     18.436
REMARK  Name = 
REMARK  10 active torsions:
REMARK  status: ('A' for Active; 'I' for Inactive)
REMARK    1  A    between atoms: C_2  and  C_4
REMARK    2  A    between atoms: C_6  and  C_7
REMARK    3  A    between atoms: C_7  and  C_8
REMARK    4  A    between atoms: N_10  and  C_11
REMARK    5  A    between atoms: C_11  and  C_12
REMARK    6  A    between atoms: C_21  and  C_22
REMARK    7  A    between atoms: C_22  and  N_23
REMARK    8  A    between atoms: C_24  and  C_26
REMARK    9  A    between atoms: C_26  and  O_27
REMARK   10  A    between atoms: O_27  and  C_28
REMARK                            x       y       z     vdW  Elec       q    Type
REMARK                         _______ _______ _______ _____ _____    ______ ____
ROOT
ATOM      4  C   UNL     1      -5.683  -9.500  10.854  0.00  0.00    +0.006 C 
ATOM      5  C   UNL     1      -5.564  -9.994  11.504  0.00  0.00    +0.005 C 
ATOM      6  C   UNL     1      -6.210 -10.282  11.928  0.00  0.00    +0.027 C 
ATOM     18  C   UNL     1      -6.976 -10.075  11.703  0.00  0.00    -0.048 C 
ATOM     19  C   UNL     1      -7.624 -10.363  12.127  0.00  0.00    +0.026 C 
ATOM     20  C   UNL     1      -7.096  -9.581  11.052  0.00  0.00    -0.033 C 
ATOM     21  C   UNL     1      -6.449  -9.294  10.629  0.00  0.00    +0.043 C 
ENDROOT
BRANCH   4   2
ATOM      1  C   UNL     1      -4.709  -9.663   9.821  0.00  0.00    +0.000 C 
ATOM      2  C   UNL     1      -5.037  -9.213  10.430  0.00  0.00    +0.000 C 
ATOM      3  C   UNL     1      -4.717  -8.474  10.615  0.00  0.00    +0.000 C 
ENDBRANCH   4   2
BRANCH   6   7
ATOM      7  C   UNL     1      -6.091 -10.776  12.578  0.00  0.00    +0.091 C 
BRANCH   7   8
ATOM      8  C   UNL     1      -5.494 -10.608  13.121  0.00  0.00    +0.242 C 
ATOM      9  O   UNL     1      -4.703 -10.662  12.894  0.00  0.00    -0.273 OA
ATOM     10  N   UNL     1      -5.688 -10.386  13.891  0.00  0.00    -0.200 NA
BRANCH  10  11
ATOM     11  C   UNL     1      -5.090 -10.218  14.435  0.00  0.00    +0.143 C 
BRANCH  11  12
ATOM     12  C   UNL     1      -5.272 -10.130  15.234  0.00  0.00    +0.019 A 
ATOM     13  C   UNL     1      -4.835 -10.538  15.804  0.00  0.00    +0.001 A 
ATOM     14  C   UNL     1      -5.017 -10.450  16.604  0.00  0.00    +0.020 A 
ATOM     15  C   UNL     1      -5.636  -9.956  16.835  0.00  0.00    +0.099 A 
ATOM     16  N   UNL     1      -6.074  -9.549  16.265  0.00  0.00    -0.243 NA
ATOM     17  C   UNL     1      -5.892  -9.636  15.466  0.00  0.00    +0.096 A 
ENDBRANCH  11  12
ENDBRANCH  10  11
ENDBRANCH   7   8
ENDBRANCH   6   7
BRANCH  21  22
ATOM     22  C   UNL     1      -6.569  -8.800   9.979  0.00  0.00    +0.120 C 
BRANCH  22  23
ATOM     23  N   UNL     1      -7.291  -8.409   9.886  0.00  0.00    -0.202 NA
ATOM     24  C   UNL     1      -7.503  -8.107   9.149  0.00  0.00    +0.286 C 
ATOM     25  O   UNL     1      -6.996  -8.194   8.506  0.00  0.00    -0.269 OA
BRANCH  24  26
ATOM     26  C   UNL     1      -8.225  -7.716   9.056  0.00  0.00    +0.291 C 
BRANCH  26  27
ATOM     27  O   UNL     1      -8.297  -7.111   8.500  0.00  0.00    -0.466 OA
BRANCH  27  28
ATOM     28  C   UNL     1      -8.960  -6.620   8.510  0.00  0.00    +0.139 A 
ATOM     29  C   UNL     1      -9.712  -6.944   8.612  0.00  0.00    +0.037 A 
ATOM     30  C   UNL     1     -10.375  -6.453   8.622  0.00  0.00    +0.003 A 
ATOM     31  C   UNL     1     -10.286  -5.638   8.529  0.00  0.00    +0.000 A 
ATOM     32  C   UNL     1      -9.534  -5.314   8.426  0.00  0.00    +0.003 A 
ATOM     33  C   UNL     1      -8.872  -5.805   8.416  0.00  0.00    +0.037 A 
ENDBRANCH  27  28
ENDBRANCH  26  27
ENDBRANCH  24  26
ENDBRANCH  22  23
ENDBRANCH  21  22
TORSDOF 10
ENDMDL
