MODEL 1
REMARK VINA RESULT:     -11.3      0.000      0.000
REMARK  Name = 
REMARK  4 active torsions:
REMARK  status: ('A' for Active; 'I' for Inactive)
REMARK    1  A    between atoms: C_4  and  C_15
REMARK    2  A    between atoms: N_5  and  C_6
REMARK    3  A    between atoms: C_6  and  C_7
REMARK    4  A    between atoms: C_17  and  C_20
REMARK                            x       y       z     vdW  Elec       q    Type
REMARK                         _______ _______ _______ _____ _____    ______ ____
ROOT
ATOM      1  O   UNL     1      -6.300   1.614  25.342  0.00  0.00    -0.222 OA
ATOM      2  C   UNL     1      -5.502   1.638  25.132  0.00  0.00    +0.170 C 
ATOM      3  C   UNL     1      -5.058   2.319  24.998  0.00  0.00    +0.060 C 
ATOM      4  C   UNL     1      -4.290   2.087  24.803  0.00  0.00    +0.140 C 
ATOM      5  N   UNL     1      -4.261   1.264  24.817  0.00  0.00    -0.260 NA
ATOM     14  C   UNL     1      -5.010   0.985  25.020  0.00  0.00    +0.106 C 
ENDROOT
BRANCH   4  15
ATOM     15  C   UNL     1      -3.662   2.592  24.625  0.00  0.00    +0.251 A 
ATOM     16  N   UNL     1      -3.176   2.974  25.171  0.00  0.00    -0.194 NA
ATOM     17  C   UNL     1      -2.623   3.421  24.753  0.00  0.00    +0.180 A 
ATOM     18  N   UNL     1      -2.768   3.315  23.948  0.00  0.00    -0.061 NA
ATOM     19  O   UNL     1      -3.409   2.803  23.869  0.00  0.00    -0.336 OA
BRANCH  17  20
ATOM     20  C   UNL     1      -2.031   3.891  25.082  0.00  0.00    +0.062 C 
ATOM     21  C   UNL     1      -1.770   4.624  25.358  0.00  0.00    +0.008 C 
ATOM     22  C   UNL     1      -1.264   3.973  25.377  0.00  0.00    +0.008 C 
ENDBRANCH  17  20
ENDBRANCH   4  15
BRANCH   5   6
ATOM      6  C   UNL     1      -3.599   0.798  24.655  0.00  0.00    +0.100 C 
BRANCH   6   7
ATOM      7  C   UNL     1      -3.662  -0.024  24.656  0.00  0.00    -0.006 A 
ATOM      8  C   UNL     1      -3.886  -0.422  23.969  0.00  0.00    -0.002 A 
ATOM      9  C   UNL     1      -3.949  -1.244  23.970  0.00  0.00    +0.011 A 
ATOM     10  C   UNL     1      -3.787  -1.670  24.658  0.00  0.00    +0.058 A 
ATOM     11 CL   UNL     1      -3.850  -2.492  24.660  0.00  0.00    -0.082 Cl
ATOM     12  C   UNL     1      -3.562  -1.272  25.346  0.00  0.00    +0.011 A 
ATOM     13  C   UNL     1      -3.499  -0.449  25.345  0.00  0.00    -0.002 A 
ENDBRANCH   6   7
ENDBRANCH   5   6
TORSDOF 4
ENDMDL
MODEL 2
REMARK VINA RESULT:     -10.6      1.575      2.488
REMARK  Name = 
REMARK  4 active torsions:
REMARK  status: ('A' for Active; 'I' for Inactive)
REMARK    1  A    between atoms: C_4  and  C_15
REMARK    2  A    between atoms: N_5  and  C_6
REMARK    3  A    between atoms: C_6  and  C_7
REMARK    4  A    between atoms: C_17  and  C_20
REMARK                            x       y       z     vdW  Elec       q    Type
REMARK                         _______ _______ _______ _____ _____    ______ ____
ROOT
ATOM      1  O   UNL     1      -0.767   0.599  24.203  0.00  0.00    -0.222 OA
ATOM      2  C   UNL     1      -1.582   0.697  24.290  0.00  0.00    +0.170 C 
ATOM      3  C   UNL     1      -1.992   1.409  24.232  0.00  0.00    +0.060 C 
ATOM      4  C   UNL     1      -2.792   1.252  24.356  0.00  0.00    +0.140 C 
ATOM      5  N   UNL     1      -2.876   0.443  24.491  0.00  0.00    -0.260 NA
ATOM     14  C   UNL     1      -2.127   0.100  24.450  0.00  0.00    +0.106 C 
ENDROOT
BRANCH   4  15
ATOM     15  C   UNL     1      -3.402   1.808  24.347  0.00  0.00    +0.251 A 
ATOM     16  N   UNL     1      -3.756   2.152  25.008  0.00  0.00    -0.194 NA
ATOM     17  C   UNL     1      -4.338   2.674  24.744  0.00  0.00    +0.180 A 
ATOM     18  N   UNL     1      -4.344   2.652  23.920  0.00  0.00    -0.061 NA
ATOM     19  O   UNL     1      -3.766   2.118  23.674  0.00  0.00    -0.336 OA
BRANCH  17  20
ATOM     20  C   UNL     1      -4.827   3.135  25.221  0.00  0.00    +0.062 C 
ATOM     21  C   UNL     1      -5.463   3.198  25.745  0.00  0.00    +0.008 C 
ATOM     22  C   UNL     1      -5.041   3.872  25.525  0.00  0.00    +0.008 C 
ENDBRANCH  17  20
ENDBRANCH   4  15
BRANCH   5   6
ATOM      6  C   UNL     1      -3.584   0.047  24.641  0.00  0.00    +0.100 C 
BRANCH   6   7
ATOM      7  C   UNL     1      -3.600  -0.778  24.656  0.00  0.00    -0.006 A 
ATOM      8  C   UNL     1      -3.388  -1.183  25.342  0.00  0.00    -0.002 A 
ATOM      9  C   UNL     1      -3.404  -2.007  25.357  0.00  0.00    +0.011 A 
ATOM     10  C   UNL     1      -3.633  -2.427  24.685  0.00  0.00    +0.058 A 
ATOM     11 CL   UNL     1      -3.650  -3.252  24.699  0.00  0.00    -0.082 Cl
ATOM     12  C   UNL     1      -3.845  -2.022  23.998  0.00  0.00    +0.011 A 
ATOM     13  C   UNL     1      -3.829  -1.198  23.983  0.00  0.00    -0.002 A 
ENDBRANCH   6   7
ENDBRANCH   5   6
TORSDOF 4
ENDMDL
MODEL 3
REMARK VINA RESULT:     -10.5      1.932      4.148
REMARK  Name = 
REMARK  4 active torsions:
REMARK  status: ('A' for Active; 'I' for Inactive)
REMARK    1  A    between atoms: C_4  and  C_15
REMARK    2  A    between atoms: N_5  and  C_6
REMARK    3  A    between atoms: C_6  and  C_7
REMARK    4  A    between atoms: C_17  and  C_20
REMARK                            x       y       z     vdW  Elec       q    Type
REMARK                         _______ _______ _______ _____ _____    ______ ____
ROOT
ATOM      1  O   UNL     1      -5.911   2.862  25.677  0.00  0.00    -0.222 OA
ATOM      2  C   UNL     1      -5.254   2.439  25.410  0.00  0.00    +0.170 C 
ATOM      3  C   UNL     1      -5.246   1.645  25.192  0.00  0.00    +0.060 C 
ATOM      4  C   UNL     1      -4.478   1.452  24.961  0.00  0.00    +0.140 C 
ATOM      5  N   UNL     1      -4.012   2.127  25.037  0.00  0.00    -0.260 NA
ATOM     14  C   UNL     1      -4.491   2.738  25.315  0.00  0.00    +0.106 C 
ENDROOT
BRANCH   4  15
ATOM     15  C   UNL     1      -4.222   0.712  24.700  0.00  0.00    +0.251 A 
ATOM     16  N   UNL     1      -4.093   0.048  25.172  0.00  0.00    -0.194 NA
ATOM     17  C   UNL     1      -3.841  -0.567  24.685  0.00  0.00    +0.180 A 
ATOM     18  N   UNL     1      -3.814  -0.284  23.911  0.00  0.00    -0.061 NA
ATOM     19  O   UNL     1      -4.049   0.506  23.920  0.00  0.00    -0.336 OA
BRANCH  17  20
ATOM     20  C   UNL     1      -3.649  -1.332  24.929  0.00  0.00    +0.062 C 
ATOM     21  C   UNL     1      -3.328  -1.843  25.492  0.00  0.00    +0.008 C 
ATOM     22  C   UNL     1      -3.638  -2.145  24.790  0.00  0.00    +0.008 C 
ENDBRANCH  17  20
ENDBRANCH   4  15
BRANCH   5   6
ATOM      6  C   UNL     1      -3.206   2.182  24.866  0.00  0.00    +0.100 C 
BRANCH   6   7
ATOM      7  C   UNL     1      -2.806   2.893  24.989  0.00  0.00    -0.006 A 
ATOM      8  C   UNL     1      -2.813   3.477  24.406  0.00  0.00    -0.002 A 
ATOM      9  C   UNL     1      -2.413   4.188  24.529  0.00  0.00    +0.011 A 
ATOM     10  C   UNL     1      -2.005   4.315  25.235  0.00  0.00    +0.058 A 
ATOM     11 CL   UNL     1      -1.605   5.025  25.359  0.00  0.00    -0.082 Cl
ATOM     12  C   UNL     1      -1.998   3.731  25.818  0.00  0.00    +0.011 A 
ATOM     13  C   UNL     1      -2.398   3.020  25.696  0.00  0.00    -0.002 A 
ENDBRANCH   6   7
ENDBRANCH   5   6
TORSDOF 4
ENDMDL
MODEL 4
REMARK VINA RESULT:     -10.4      2.143      2.915
REMARK  Name = 
REMARK  4 active torsions:
REMARK  status: ('A' for Active; 'I' for Inactive)
REMARK    1  A    between atoms: C_4  and  C_15
REMARK    2  A    between atoms: N_5  and  C_6
REMARK    3  A    between atoms: C_6  and  C_7
REMARK    4  A    between atoms: C_17  and  C_20
REMARK                            x       y       z     vdW  Elec       q    Type
REMARK                         _______ _______ _______ _____ _____    ______ ____
ROOT
ATOM      1  O   UNL     1       0.191  -0.281  23.634  0.00  0.00    -0.222 OA
ATOM      2  C   UNL     1      -0.330   0.196  24.060  0.00  0.00    +0.170 C 
ATOM      3  C   UNL     1      -0.162   0.944  24.365  0.00  0.00    +0.060 C 
ATOM      4  C   UNL     1      -0.838   1.219  24.749  0.00  0.00    +0.140 C 
ATOM      5  N   UNL     1      -1.423   0.642  24.682  0.00  0.00    -0.260 NA
ATOM     14  C   UNL     1      -1.109   0.010  24.256  0.00  0.00    +0.106 C 
ENDROOT
BRANCH   4  15
ATOM     15  C   UNL     1      -0.915   1.945  25.134  0.00  0.00    +0.251 A 
ATOM     16  N   UNL     1      -1.089   2.668  24.777  0.00  0.00    -0.194 NA
ATOM     17  C   UNL     1      -1.113   3.245  25.365  0.00  0.00    +0.180 A 
ATOM     18  N   UNL     1      -0.954   2.879  26.087  0.00  0.00    -0.061 NA
ATOM     19  O   UNL     1      -0.832   2.076  25.944  0.00  0.00    -0.336 OA
BRANCH  17  20
ATOM     20  C   UNL     1      -1.269   4.047  25.252  0.00  0.00    +0.062 C 
ATOM     21  C   UNL     1      -1.778   4.693  25.322  0.00  0.00    +0.008 C 
ATOM     22  C   UNL     1      -1.030   4.791  24.987  0.00  0.00    +0.008 C 
ENDBRANCH  17  20
ENDBRANCH   4  15
BRANCH   5   6
ATOM      6  C   UNL     1      -2.189   0.689  24.987  0.00  0.00    +0.100 C 
BRANCH   6   7
ATOM      7  C   UNL     1      -2.755   0.130  24.769  0.00  0.00    -0.006 A 
ATOM      8  C   UNL     1      -3.235   0.263  24.112  0.00  0.00    -0.002 A 
ATOM      9  C   UNL     1      -3.801  -0.296  23.894  0.00  0.00    +0.011 A 
ATOM     10  C   UNL     1      -3.887  -0.989  24.333  0.00  0.00    +0.058 A 
ATOM     11 CL   UNL     1      -4.453  -1.548  24.116  0.00  0.00    -0.082 Cl
ATOM     12  C   UNL     1      -3.407  -1.122  24.991  0.00  0.00    +0.011 A 
ATOM     13  C   UNL     1      -2.840  -0.563  25.209  0.00  0.00    -0.002 A 
ENDBRANCH   6   7
ENDBRANCH   5   6
TORSDOF 4
ENDMDL
MODEL 5
REMARK VINA RESULT:     -10.0      2.399      4.683
REMARK  Name = 
REMARK  4 active torsions:
REMARK  status: ('A' for Active; 'I' for Inactive)
REMARK    1  A    between atoms: C_4  and  C_15
REMARK    2  A    between atoms: N_5  and  C_6
REMARK    3  A    between atoms: C_6  and  C_7
REMARK    4  A    between atoms: C_17  and  C_20
REMARK                            x       y       z     vdW  Elec       q    Type
REMARK                         _______ _______ _______ _____ _____    ______ ____
ROOT
ATOM      1  O   UNL     1      -0.431   1.352  25.340  0.00  0.00    -0.222 OA
ATOM      2  C   UNL     1      -1.190   1.045  25.229  0.00  0.00    +0.170 C 
ATOM      3  C   UNL     1      -1.421   0.266  25.366  0.00  0.00    +0.060 C 
ATOM      4  C   UNL     1      -2.223   0.203  25.184  0.00  0.00    +0.140 C 
ATOM      5  N   UNL     1      -2.487   0.943  24.936  0.00  0.00    -0.260 NA
ATOM     14  C   UNL     1      -1.848   1.464  24.964  0.00  0.00    +0.106 C 
ENDROOT
BRANCH   4  15
ATOM     15  C   UNL     1      -2.681  -0.482  25.241  0.00  0.00    +0.251 A 
ATOM     16  N   UNL     1      -2.835  -1.014  24.631  0.00  0.00    -0.194 NA
ATOM     17  C   UNL     1      -3.314  -1.615  24.931  0.00  0.00    +0.180 A 
ATOM     18  N   UNL     1      -3.456  -1.453  25.728  0.00  0.00    -0.061 NA
ATOM     19  O   UNL     1      -3.065  -0.753  25.919  0.00  0.00    -0.336 OA
BRANCH  17  20
ATOM     20  C   UNL     1      -3.601  -2.263  24.509  0.00  0.00    +0.062 C 
ATOM     21  C   UNL     1      -4.123  -2.580  23.954  0.00  0.00    +0.008 C 
ATOM     22  C   UNL     1      -3.578  -3.069  24.333  0.00  0.00    +0.008 C 
ENDBRANCH  17  20
ENDBRANCH   4  15
BRANCH   5   6
ATOM      6  C   UNL     1      -3.256   1.131  24.701  0.00  0.00    +0.100 C 
BRANCH   6   7
ATOM      7  C   UNL     1      -3.459   1.914  24.542  0.00  0.00    -0.006 A 
ATOM      8  C   UNL     1      -3.726   2.403  25.150  0.00  0.00    -0.002 A 
ATOM      9  C   UNL     1      -3.930   3.187  24.991  0.00  0.00    +0.011 A 
ATOM     10  C   UNL     1      -3.867   3.481  24.224  0.00  0.00    +0.058 A 
ATOM     11 CL   UNL     1      -4.070   4.265  24.064  0.00  0.00    -0.082 Cl
ATOM     12  C   UNL     1      -3.599   2.993  23.615  0.00  0.00    +0.011 A 
ATOM     13  C   UNL     1      -3.396   2.209  23.773  0.00  0.00    -0.002 A 
ENDBRANCH   6   7
ENDBRANCH   5   6
TORSDOF 4
ENDMDL
MODEL 6
REMARK VINA RESULT:     -10.0      2.237      4.311
REMARK  Name = 
REMARK  4 active torsions:
REMARK  status: ('A' for Active; 'I' for Inactive)
REMARK    1  A    between atoms: C_4  and  C_15
REMARK    2  A    between atoms: N_5  and  C_6
REMARK    3  A    between atoms: C_6  and  C_7
REMARK    4  A    between atoms: C_17  and  C_20
REMARK                            x       y       z     vdW  Elec       q    Type
REMARK                         _______ _______ _______ _____ _____    ______ ____
ROOT
ATOM      1  O   UNL     1      -2.694   2.310  22.311  0.00  0.00    -0.222 OA
ATOM      2  C   UNL     1      -2.859   1.886  23.000  0.00  0.00    +0.170 C 
ATOM      3  C   UNL     1      -2.628   1.111  23.158  0.00  0.00    +0.060 C 
ATOM      4  C   UNL     1      -2.910   0.910  23.907  0.00  0.00    +0.140 C 
ATOM      5  N   UNL     1      -3.315   1.560  24.210  0.00  0.00    -0.260 NA
ATOM     14  C   UNL     1      -3.283   2.164  23.650  0.00  0.00    +0.106 C 
ENDROOT
BRANCH   4  15
ATOM     15  C   UNL     1      -2.805   0.184  24.286  0.00  0.00    +0.251 A 
ATOM     16  N   UNL     1      -3.260  -0.493  24.172  0.00  0.00    -0.194 NA
ATOM     17  C   UNL     1      -2.963  -1.087  24.660  0.00  0.00    +0.180 A 
ATOM     18  N   UNL     1      -2.322  -0.777  25.077  0.00  0.00    -0.061 NA
ATOM     19  O   UNL     1      -2.224   0.008  24.845  0.00  0.00    -0.336 OA
BRANCH  17  20
ATOM     20  C   UNL     1      -3.254  -1.857  24.722  0.00  0.00    +0.062 C 
ATOM     21  C   UNL     1      -3.524  -2.550  24.363  0.00  0.00    +0.008 C 
ATOM     22  C   UNL     1      -3.490  -2.497  25.186  0.00  0.00    +0.008 C 
ENDBRANCH  17  20
ENDBRANCH   4  15
BRANCH   5   6
ATOM      6  C   UNL     1      -3.686   1.601  24.946  0.00  0.00    +0.100 C 
BRANCH   6   7
ATOM      7  C   UNL     1      -4.217   2.212  25.108  0.00  0.00    -0.006 A 
ATOM      8  C   UNL     1      -5.026   2.095  25.000  0.00  0.00    -0.002 A 
ATOM      9  C   UNL     1      -5.556   2.706  25.161  0.00  0.00    +0.011 A 
ATOM     10  C   UNL     1      -5.277   3.434  25.431  0.00  0.00    +0.058 A 
ATOM     11 CL   UNL     1      -5.807   4.045  25.593  0.00  0.00    -0.082 Cl
ATOM     12  C   UNL     1      -4.467   3.551  25.540  0.00  0.00    +0.011 A 
ATOM     13  C   UNL     1      -3.937   2.940  25.378  0.00  0.00    -0.002 A 
ENDBRANCH   6   7
ENDBRANCH   5   6
TORSDOF 4
ENDMDL
