MODEL 1
REMARK VINA RESULT:     -12.5      0.000      0.000
REMARK  Name = 
REMARK  8 active torsions:
REMARK  status: ('A' for Active; 'I' for Inactive)
REMARK    1  A    between atoms: O_2  and  C_3
REMARK    2  A    between atoms: C_8  and  O_9
REMARK    3  A    between atoms: C_11  and  C_12
REMARK    4  A    between atoms: C_12  and  C_13
REMARK    5  A    between atoms: C_18  and  C_19
REMARK    6  A    between atoms: C_19  and  C_20
REMARK    7  A    between atoms: N_25  and  C_26
REMARK    8  A    between atoms: C_28  and  C_32
REMARK                            x       y       z     vdW  Elec       q    Type
REMARK                         _______ _______ _______ _____ _____    ______ ____
ROOT
ATOM     13  C   UNL     1      -1.332   1.542  24.479  0.00  0.00    +0.026 C 
ATOM     14  C   UNL     1      -1.738   0.831  24.575  0.00  0.00    +0.095 C 
ATOM     15  N   UNL     1      -1.329   0.115  24.537  0.00  0.00    -0.263 N 
ATOM     16  C   UNL     1      -0.515   0.112  24.402  0.00  0.00    +0.095 C 
ATOM     17  C   UNL     1      -0.110   0.823  24.305  0.00  0.00    +0.022 C 
ATOM     18  C   UNL     1      -0.518   1.539  24.344  0.00  0.00    +0.015 C 
ATOM     23  C   UNL     1      -1.735  -0.597  24.633  0.00  0.00    +0.327 C 
ATOM     24  O   UNL     1      -1.326  -1.312  24.595  0.00  0.00    -0.250 OA
ATOM     25  N   UNL     1      -2.549  -0.593  24.768  0.00  0.00    -0.162 NA
ENDROOT
BRANCH  25  26
ATOM     26  C   UNL     1      -2.954  -1.305  24.864  0.00  0.00    +0.075 A 
ATOM     27  C   UNL     1      -3.443  -1.586  24.263  0.00  0.00    +0.021 A 
ATOM     28  C   UNL     1      -3.849  -2.298  24.359  0.00  0.00    +0.073 A 
ATOM     29  C   UNL     1      -3.766  -2.729  25.057  0.00  0.00    +0.004 A 
ATOM     30  C   UNL     1      -3.276  -2.448  25.660  0.00  0.00    +0.001 A 
ATOM     31  C   UNL     1      -2.871  -1.736  25.563  0.00  0.00    +0.017 A 
BRANCH  28  32
ATOM     32  C   UNL     1      -4.338  -2.579  23.758  0.00  0.00    +0.419 C 
ATOM     33  F   UNL     1      -4.827  -2.862  23.156  0.00  0.00    -0.166 F 
ATOM     34  F   UNL     1      -4.788  -1.890  23.800  0.00  0.00    -0.166 F 
ATOM     35  F   UNL     1      -3.887  -3.270  23.715  0.00  0.00    -0.166 F 
ENDBRANCH  28  32
ENDBRANCH  25  26
BRANCH  13  12
ATOM     12  C   UNL     1      -1.740   2.258  24.517  0.00  0.00    +0.047 C 
BRANCH  12  11
ATOM      3  C   UNL     1      -4.341   3.568  25.127  0.00  0.00    +0.172 A 
ATOM      4  C   UNL     1      -4.412   3.261  24.364  0.00  0.00    +0.036 A 
ATOM      5  C   UNL     1      -3.780   2.857  24.020  0.00  0.00    -0.016 A 
ATOM      6  C   UNL     1      -3.075   2.760  24.441  0.00  0.00    +0.012 A 
ATOM      7  C   UNL     1      -3.005   3.066  25.203  0.00  0.00    +0.041 A 
ATOM      8  C   UNL     1      -3.637   3.470  25.547  0.00  0.00    +0.172 A 
ATOM     11  C   UNL     1      -2.444   2.356  24.097  0.00  0.00    +0.054 C 
ATOM     36  N   UNL     1      -2.515   2.050  23.335  0.00  0.00    -0.274 NA
ATOM     37  C   UNL     1      -3.219   2.148  22.915  0.00  0.00    +0.130 C 
ATOM     38  C   UNL     1      -3.851   2.551  23.258  0.00  0.00    +0.053 C 
BRANCH   3   2
ATOM      1  C   UNL     1      -5.736   3.663  25.420  0.00  0.00    +0.253 C 
ATOM      2  O   UNL     1      -4.973   3.971  25.470  0.00  0.00    -0.468 OA
ENDBRANCH   3   2
BRANCH   8   9
ATOM      9  O   UNL     1      -3.566   3.776  26.310  0.00  0.00    -0.468 OA
ATOM     10  C   UNL     1      -2.893   4.202  26.522  0.00  0.00    +0.253 C 
ENDBRANCH   8   9
ENDBRANCH  12  11
ENDBRANCH  13  12
BRANCH  18  19
ATOM     19  C   UNL     1      -0.112   2.251  24.247  0.00  0.00    +0.114 C 
BRANCH  19  20
ATOM     20  C   UNL     1       0.670   2.317  24.500  0.00  0.00    +0.365 C 
ATOM     21  O   UNL     1       0.835   2.537  25.278  0.00  0.00    -0.246 OA
ATOM     22  O   UNL     1       1.288   2.162  23.974  0.00  0.00    -0.246 OA
ENDBRANCH  19  20
ENDBRANCH  18  19
TORSDOF 8
ENDMDL
MODEL 2
REMARK VINA RESULT:     -12.2      1.411      3.575
REMARK  Name = 
REMARK  8 active torsions:
REMARK  status: ('A' for Active; 'I' for Inactive)
REMARK    1  A    between atoms: O_2  and  C_3
REMARK    2  A    between atoms: C_8  and  O_9
REMARK    3  A    between atoms: C_11  and  C_12
REMARK    4  A    between atoms: C_12  and  C_13
REMARK    5  A    between atoms: C_18  and  C_19
REMARK    6  A    between atoms: C_19  and  C_20
REMARK    7  A    between atoms: N_25  and  C_26
REMARK    8  A    between atoms: C_28  and  C_32
REMARK                            x       y       z     vdW  Elec       q    Type
REMARK                         _______ _______ _______ _____ _____    ______ ____
ROOT
ATOM     13  C   UNL     1      -3.858   2.180  24.841  0.00  0.00    +0.026 C 
ATOM     14  C   UNL     1      -3.871   1.365  24.716  0.00  0.00    +0.095 C 
ATOM     15  N   UNL     1      -4.569   0.940  24.835  0.00  0.00    -0.263 N 
ATOM     16  C   UNL     1      -5.253   1.332  25.079  0.00  0.00    +0.095 C 
ATOM     17  C   UNL     1      -5.240   2.147  25.203  0.00  0.00    +0.022 C 
ATOM     18  C   UNL     1      -4.543   2.571  25.085  0.00  0.00    +0.015 C 
ATOM     23  C   UNL     1      -4.583   0.125  24.710  0.00  0.00    +0.327 C 
ATOM     24  O   UNL     1      -5.280  -0.299  24.829  0.00  0.00    -0.250 OA
ATOM     25  N   UNL     1      -3.898  -0.266  24.466  0.00  0.00    -0.162 NA
ENDROOT
BRANCH  25  26
ATOM     26  C   UNL     1      -3.911  -1.081  24.341  0.00  0.00    +0.075 A 
ATOM     27  C   UNL     1      -3.466  -1.580  24.824  0.00  0.00    +0.021 A 
ATOM     28  C   UNL     1      -3.479  -2.395  24.699  0.00  0.00    +0.073 A 
ATOM     29  C   UNL     1      -3.938  -2.713  24.091  0.00  0.00    +0.004 A 
ATOM     30  C   UNL     1      -4.384  -2.213  23.608  0.00  0.00    +0.001 A 
ATOM     31  C   UNL     1      -4.370  -1.398  23.733  0.00  0.00    +0.017 A 
BRANCH  28  32
ATOM     32  C   UNL     1      -3.034  -2.895  25.182  0.00  0.00    +0.419 C 
ATOM     33  F   UNL     1      -2.589  -3.394  25.665  0.00  0.00    -0.166 F 
ATOM     34  F   UNL     1      -2.422  -2.885  24.629  0.00  0.00    -0.166 F 
ATOM     35  F   UNL     1      -3.646  -2.905  25.735  0.00  0.00    -0.166 F 
ENDBRANCH  28  32
ENDBRANCH  25  26
BRANCH  13  12
ATOM     12  C   UNL     1      -3.161   2.604  24.722  0.00  0.00    +0.047 C 
BRANCH  12  11
ATOM      3  C   UNL     1      -0.260   2.031  24.393  0.00  0.00    +0.172 A 
ATOM      4  C   UNL     1      -0.587   2.000  23.637  0.00  0.00    +0.036 A 
ATOM      5  C   UNL     1      -1.394   2.135  23.529  0.00  0.00    -0.016 A 
ATOM      6  C   UNL     1      -1.875   2.302  24.180  0.00  0.00    +0.012 A 
ATOM      7  C   UNL     1      -1.547   2.334  24.936  0.00  0.00    +0.041 A 
ATOM      8  C   UNL     1      -0.740   2.199  25.044  0.00  0.00    +0.172 A 
ATOM     11  C   UNL     1      -2.681   2.437  24.073  0.00  0.00    +0.054 C 
ATOM     36  N   UNL     1      -3.007   2.406  23.316  0.00  0.00    -0.274 NA
ATOM     37  C   UNL     1      -2.527   2.238  22.666  0.00  0.00    +0.130 C 
ATOM     38  C   UNL     1      -1.721   2.103  22.773  0.00  0.00    +0.053 C 
BRANCH   3   2
ATOM      1  C   UNL     1       0.974   1.480  23.932  0.00  0.00    +0.253 C 
ATOM      2  O   UNL     1       0.547   1.896  24.500  0.00  0.00    -0.468 OA
ENDBRANCH   3   2
BRANCH   8   9
ATOM      9  O   UNL     1      -0.413   2.230  25.800  0.00  0.00    -0.468 OA
ATOM     10  C   UNL     1      -0.580   2.868  26.295  0.00  0.00    +0.253 C 
ENDBRANCH   8   9
ENDBRANCH  12  11
ENDBRANCH  13  12
BRANCH  18  19
ATOM     19  C   UNL     1      -4.529   3.387  25.210  0.00  0.00    +0.114 C 
BRANCH  19  20
ATOM     20  C   UNL     1      -5.079   3.735  25.716  0.00  0.00    +0.365 C 
ATOM     21  O   UNL     1      -4.962   3.710  26.533  0.00  0.00    -0.246 OA
ATOM     22  O   UNL     1      -5.747   4.109  25.406  0.00  0.00    -0.246 OA
ENDBRANCH  19  20
ENDBRANCH  18  19
TORSDOF 8
ENDMDL
MODEL 3
REMARK VINA RESULT:     -11.1      1.217      2.102
REMARK  Name = 
REMARK  8 active torsions:
REMARK  status: ('A' for Active; 'I' for Inactive)
REMARK    1  A    between atoms: O_2  and  C_3
REMARK    2  A    between atoms: C_8  and  O_9
REMARK    3  A    between atoms: C_11  and  C_12
REMARK    4  A    between atoms: C_12  and  C_13
REMARK    5  A    between atoms: C_18  and  C_19
REMARK    6  A    between atoms: C_19  and  C_20
REMARK    7  A    between atoms: N_25  and  C_26
REMARK    8  A    between atoms: C_28  and  C_32
REMARK                            x       y       z     vdW  Elec       q    Type
REMARK                         _______ _______ _______ _____ _____    ______ ____
ROOT
ATOM     13  C   UNL     1      -0.138   0.868  23.964  0.00  0.00    +0.026 C 
ATOM     14  C   UNL     1      -0.736   0.355  24.202  0.00  0.00    +0.095 C 
ATOM     15  N   UNL     1      -0.625  -0.462  24.150  0.00  0.00    -0.263 N 
ATOM     16  C   UNL     1       0.086  -0.763  23.859  0.00  0.00    +0.095 C 
ATOM     17  C   UNL     1       0.684  -0.249  23.620  0.00  0.00    +0.022 C 
ATOM     18  C   UNL     1       0.573   0.567  23.672  0.00  0.00    +0.015 C 
ATOM     23  C   UNL     1      -1.224  -0.976  24.389  0.00  0.00    +0.327 C 
ATOM     24  O   UNL     1      -1.113  -1.791  24.336  0.00  0.00    -0.250 OA
ATOM     25  N   UNL     1      -1.935  -0.674  24.680  0.00  0.00    -0.162 NA
ENDROOT
BRANCH  25  26
ATOM     26  C   UNL     1      -2.534  -1.188  24.918  0.00  0.00    +0.075 A 
ATOM     27  C   UNL     1      -3.054  -1.503  24.361  0.00  0.00    +0.021 A 
ATOM     28  C   UNL     1      -3.654  -2.018  24.600  0.00  0.00    +0.073 A 
ATOM     29  C   UNL     1      -3.734  -2.217  25.396  0.00  0.00    +0.004 A 
ATOM     30  C   UNL     1      -3.214  -1.902  25.954  0.00  0.00    +0.001 A 
ATOM     31  C   UNL     1      -2.614  -1.387  25.716  0.00  0.00    +0.017 A 
BRANCH  28  32
ATOM     32  C   UNL     1      -4.173  -2.333  24.042  0.00  0.00    +0.419 C 
ATOM     33  F   UNL     1      -4.694  -2.647  23.484  0.00  0.00    -0.166 F 
ATOM     34  F   UNL     1      -3.836  -3.078  24.147  0.00  0.00    -0.166 F 
ATOM     35  F   UNL     1      -4.512  -1.587  23.937  0.00  0.00    -0.166 F 
ENDBRANCH  28  32
ENDBRANCH  25  26
BRANCH  13  12
ATOM     12  C   UNL     1      -0.249   1.684  24.016  0.00  0.00    +0.047 C 
BRANCH  12  11
ATOM      3  C   UNL     1      -2.374   3.478  25.072  0.00  0.00    +0.172 A 
ATOM      4  C   UNL     1      -1.851   3.349  25.697  0.00  0.00    +0.036 A 
ATOM      5  C   UNL     1      -1.189   2.869  25.590  0.00  0.00    -0.016 A 
ATOM      6  C   UNL     1      -1.049   2.516  24.856  0.00  0.00    +0.012 A 
ATOM      7  C   UNL     1      -1.572   2.645  24.231  0.00  0.00    +0.041 A 
ATOM      8  C   UNL     1      -2.235   3.126  24.338  0.00  0.00    +0.172 A 
ATOM     11  C   UNL     1      -0.388   2.036  24.749  0.00  0.00    +0.054 C 
ATOM     36  N   UNL     1       0.134   1.908  25.373  0.00  0.00    -0.274 NA
ATOM     37  C   UNL     1      -0.005   2.260  26.107  0.00  0.00    +0.130 C 
ATOM     38  C   UNL     1      -0.666   2.740  26.215  0.00  0.00    +0.053 C 
BRANCH   3   2
ATOM      1  C   UNL     1      -3.248   4.205  25.937  0.00  0.00    +0.253 C 
ATOM      2  O   UNL     1      -3.036   3.958  25.180  0.00  0.00    -0.468 OA
ENDBRANCH   3   2
BRANCH   8   9
ATOM      9  O   UNL     1      -2.757   3.254  23.714  0.00  0.00    -0.468 OA
ATOM     10  C   UNL     1      -3.152   2.618  23.369  0.00  0.00    +0.253 C 
ENDBRANCH   8   9
ENDBRANCH  12  11
ENDBRANCH  13  12
BRANCH  18  19
ATOM     19  C   UNL     1       1.173   1.081  23.434  0.00  0.00    +0.114 C 
BRANCH  19  20
ATOM     20  C   UNL     1       1.862   0.781  23.096  0.00  0.00    +0.365 C 
ATOM     21  O   UNL     1       1.822   0.324  22.410  0.00  0.00    -0.246 OA
ATOM     22  O   UNL     1       2.595   0.939  23.444  0.00  0.00    -0.246 OA
ENDBRANCH  19  20
ENDBRANCH  18  19
TORSDOF 8
ENDMDL
MODEL 4
REMARK VINA RESULT:     -10.5      3.009      4.642
REMARK  Name = 
REMARK  8 active torsions:
REMARK  status: ('A' for Active; 'I' for Inactive)
REMARK    1  A    between atoms: O_2  and  C_3
REMARK    2  A    between atoms: C_8  and  O_9
REMARK    3  A    between atoms: C_11  and  C_12
REMARK    4  A    between atoms: C_12  and  C_13
REMARK    5  A    between atoms: C_18  and  C_19
REMARK    6  A    between atoms: C_19  and  C_20
REMARK    7  A    between atoms: N_25  and  C_26
REMARK    8  A    between atoms: C_28  and  C_32
REMARK                            x       y       z     vdW  Elec       q    Type
REMARK                         _______ _______ _______ _____ _____    ______ ____
ROOT
ATOM     13  C   UNL     1      -1.507   0.363  24.883  0.00  0.00    +0.026 C 
ATOM     14  C   UNL     1      -0.841   0.302  24.400  0.00  0.00    +0.095 C 
ATOM     15  N   UNL     1      -0.536  -0.441  24.211  0.00  0.00    -0.263 N 
ATOM     16  C   UNL     1      -0.897  -1.122  24.505  0.00  0.00    +0.095 C 
ATOM     17  C   UNL     1      -1.562  -1.061  24.987  0.00  0.00    +0.022 C 
ATOM     18  C   UNL     1      -1.868  -0.319  25.176  0.00  0.00    +0.015 C 
ATOM     23  C   UNL     1       0.131  -0.502  23.728  0.00  0.00    +0.327 C 
ATOM     24  O   UNL     1       0.436  -1.244  23.539  0.00  0.00    -0.250 OA
ATOM     25  N   UNL     1       0.491   0.180  23.435  0.00  0.00    -0.162 NA
ENDROOT
BRANCH  25  26
ATOM     26  C   UNL     1       1.157   0.119  22.952  0.00  0.00    +0.075 A 
ATOM     27  C   UNL     1       1.885   0.404  23.215  0.00  0.00    +0.021 A 
ATOM     28  C   UNL     1       2.551   0.342  22.732  0.00  0.00    +0.073 A 
ATOM     29  C   UNL     1       2.490  -0.004  21.986  0.00  0.00    +0.004 A 
ATOM     30  C   UNL     1       1.762  -0.289  21.722  0.00  0.00    +0.001 A 
ATOM     31  C   UNL     1       1.096  -0.228  22.205  0.00  0.00    +0.017 A 
BRANCH  28  32
ATOM     32  C   UNL     1       3.280   0.627  22.995  0.00  0.00    +0.419 C 
ATOM     33  F   UNL     1       4.007   0.914  23.258  0.00  0.00    -0.166 F 
ATOM     34  F   UNL     1       3.566  -0.144  23.040  0.00  0.00    -0.166 F 
ATOM     35  F   UNL     1       2.993   1.400  22.950  0.00  0.00    -0.166 F 
ENDBRANCH  28  32
ENDBRANCH  25  26
BRANCH  13  12
ATOM     12  C   UNL     1      -1.813   1.105  25.072  0.00  0.00    +0.047 C 
BRANCH  12  11
ATOM      3  C   UNL     1      -1.853   4.080  25.084  0.00  0.00    +0.172 A 
ATOM      4  C   UNL     1      -1.186   3.858  25.516  0.00  0.00    +0.036 A 
ATOM      5  C   UNL     1      -1.009   3.059  25.622  0.00  0.00    -0.016 A 
ATOM      6  C   UNL     1      -1.499   2.481  25.294  0.00  0.00    +0.012 A 
ATOM      7  C   UNL     1      -2.166   2.703  24.862  0.00  0.00    +0.041 A 
ATOM      8  C   UNL     1      -2.344   3.502  24.757  0.00  0.00    +0.172 A 
ATOM     11  C   UNL     1      -1.322   1.683  25.399  0.00  0.00    +0.054 C 
ATOM     36  N   UNL     1      -0.656   1.461  25.831  0.00  0.00    -0.274 NA
ATOM     37  C   UNL     1      -0.165   2.040  26.159  0.00  0.00    +0.130 C 
ATOM     38  C   UNL     1      -0.342   2.838  26.054  0.00  0.00    +0.053 C 
BRANCH   3   2
ATOM      1  C   UNL     1      -1.439   5.447  25.064  0.00  0.00    +0.253 C 
ATOM      2  O   UNL     1      -2.030   4.879  24.979  0.00  0.00    -0.468 OA
ENDBRANCH   3   2
BRANCH   8   9
ATOM      9  O   UNL     1      -3.010   3.724  24.325  0.00  0.00    -0.468 OA
ATOM     10  C   UNL     1      -3.712   3.299  24.403  0.00  0.00    +0.253 C 
ENDBRANCH   8   9
ENDBRANCH  12  11
ENDBRANCH  13  12
BRANCH  18  19
ATOM     19  C   UNL     1      -2.534  -0.257  25.659  0.00  0.00    +0.114 C 
BRANCH  19  20
ATOM     20  C   UNL     1      -3.074  -0.879  25.697  0.00  0.00    +0.365 C 
ATOM     21  O   UNL     1      -3.029  -1.428  26.312  0.00  0.00    -0.246 OA
ATOM     22  O   UNL     1      -3.660  -0.954  25.120  0.00  0.00    -0.246 OA
ENDBRANCH  19  20
ENDBRANCH  18  19
TORSDOF 8
ENDMDL
MODEL 5
REMARK VINA RESULT:     -10.3      2.605      4.374
REMARK  Name = 
REMARK  8 active torsions:
REMARK  status: ('A' for Active; 'I' for Inactive)
REMARK    1  A    between atoms: O_2  and  C_3
REMARK    2  A    between atoms: C_8  and  O_9
REMARK    3  A    between atoms: C_11  and  C_12
REMARK    4  A    between atoms: C_12  and  C_13
REMARK    5  A    between atoms: C_18  and  C_19
REMARK    6  A    between atoms: C_19  and  C_20
REMARK    7  A    between atoms: N_25  and  C_26
REMARK    8  A    between atoms: C_28  and  C_32
REMARK                            x       y       z     vdW  Elec       q    Type
REMARK                         _______ _______ _______ _____ _____    ______ ____
ROOT
ATOM     13  C   UNL     1      -3.489   0.045  24.602  0.00  0.00    +0.026 C 
ATOM     14  C   UNL     1      -2.796   0.459  24.769  0.00  0.00    +0.095 C 
ATOM     15  N   UNL     1      -2.082   0.053  24.847  0.00  0.00    -0.263 N 
ATOM     16  C   UNL     1      -2.062  -0.767  24.759  0.00  0.00    +0.095 C 
ATOM     17  C   UNL     1      -2.755  -1.181  24.593  0.00  0.00    +0.022 C 
ATOM     18  C   UNL     1      -3.469  -0.775  24.514  0.00  0.00    +0.015 C 
ATOM     23  C   UNL     1      -1.388   0.467  25.014  0.00  0.00    +0.327 C 
ATOM     24  O   UNL     1      -0.675   0.061  25.092  0.00  0.00    -0.250 OA
ATOM     25  N   UNL     1      -1.409   1.287  25.101  0.00  0.00    -0.162 NA
ENDROOT
BRANCH  25  26
ATOM     26  C   UNL     1      -0.715   1.702  25.268  0.00  0.00    +0.075 A 
ATOM     27  C   UNL     1      -0.539   1.917  26.044  0.00  0.00    +0.021 A 
ATOM     28  C   UNL     1       0.155   2.331  26.210  0.00  0.00    +0.073 A 
ATOM     29  C   UNL     1       0.674   2.530  25.600  0.00  0.00    +0.004 A 
ATOM     30  C   UNL     1       0.498   2.315  24.823  0.00  0.00    +0.001 A 
ATOM     31  C   UNL     1      -0.196   1.901  24.657  0.00  0.00    +0.017 A 
BRANCH  28  32
ATOM     32  C   UNL     1       0.331   2.547  26.987  0.00  0.00    +0.419 C 
ATOM     33  F   UNL     1       0.506   2.763  27.764  0.00  0.00    -0.166 F 
ATOM     34  F   UNL     1       1.134   2.432  26.838  0.00  0.00    -0.166 F 
ATOM     35  F   UNL     1      -0.473   2.663  27.136  0.00  0.00    -0.166 F 
ENDBRANCH  28  32
ENDBRANCH  25  26
BRANCH  13  12
ATOM     12  C   UNL     1      -4.204   0.451  24.524  0.00  0.00    +0.047 C 
BRANCH  12  11
ATOM      3  C   UNL     1      -5.474   2.993  25.404  0.00  0.00    +0.172 A 
ATOM      4  C   UNL     1      -5.061   3.170  24.712  0.00  0.00    +0.036 A 
ATOM      5  C   UNL     1      -4.640   2.580  24.318  0.00  0.00    -0.016 A 
ATOM      6  C   UNL     1      -4.632   1.810  24.617  0.00  0.00    +0.012 A 
ATOM      7  C   UNL     1      -5.045   1.633  25.309  0.00  0.00    +0.041 A 
ATOM      8  C   UNL     1      -5.466   2.223  25.703  0.00  0.00    +0.172 A 
ATOM     11  C   UNL     1      -4.211   1.219  24.225  0.00  0.00    +0.054 C 
ATOM     36  N   UNL     1      -3.799   1.397  23.534  0.00  0.00    -0.274 NA
ATOM     37  C   UNL     1      -3.807   2.167  23.234  0.00  0.00    +0.130 C 
ATOM     38  C   UNL     1      -4.227   2.757  23.627  0.00  0.00    +0.053 C 
BRANCH   3   2
ATOM      1  C   UNL     1      -5.781   4.375  25.594  0.00  0.00    +0.253 C 
ATOM      2  O   UNL     1      -5.894   3.584  25.796  0.00  0.00    -0.468 OA
ENDBRANCH   3   2
BRANCH   8   9
ATOM      9  O   UNL     1      -5.879   2.046  26.394  0.00  0.00    -0.468 OA
ATOM     10  C   UNL     1      -6.393   1.402  26.414  0.00  0.00    +0.253 C 
ENDBRANCH   8   9
ENDBRANCH  12  11
ENDBRANCH  13  12
BRANCH  18  19
ATOM     19  C   UNL     1      -4.163  -1.190  24.348  0.00  0.00    +0.114 C 
BRANCH  19  20
ATOM     20  C   UNL     1      -4.129  -1.992  24.161  0.00  0.00    +0.365 C 
ATOM     21  O   UNL     1      -4.001  -2.550  24.755  0.00  0.00    -0.246 OA
ATOM     22  O   UNL     1      -4.224  -2.237  23.378  0.00  0.00    -0.246 OA
ENDBRANCH  19  20
ENDBRANCH  18  19
TORSDOF 8
ENDMDL
MODEL 6
REMARK VINA RESULT:     -10.2      1.971      3.648
REMARK  Name = 
REMARK  8 active torsions:
REMARK  status: ('A' for Active; 'I' for Inactive)
REMARK    1  A    between atoms: O_2  and  C_3
REMARK    2  A    between atoms: C_8  and  O_9
REMARK    3  A    between atoms: C_11  and  C_12
REMARK    4  A    between atoms: C_12  and  C_13
REMARK    5  A    between atoms: C_18  and  C_19
REMARK    6  A    between atoms: C_19  and  C_20
REMARK    7  A    between atoms: N_25  and  C_26
REMARK    8  A    between atoms: C_28  and  C_32
REMARK                            x       y       z     vdW  Elec       q    Type
REMARK                         _______ _______ _______ _____ _____    ______ ____
ROOT
ATOM     13  C   UNL     1      -4.266   1.547  24.797  0.00  0.00    +0.026 C 
ATOM     14  C   UNL     1      -3.799   0.869  24.769  0.00  0.00    +0.095 C 
ATOM     15  N   UNL     1      -4.140   0.127  24.896  0.00  0.00    -0.263 N 
ATOM     16  C   UNL     1      -4.948   0.066  25.051  0.00  0.00    +0.095 C 
ATOM     17  C   UNL     1      -5.415   0.745  25.080  0.00  0.00    +0.022 C 
ATOM     18  C   UNL     1      -5.075   1.486  24.953  0.00  0.00    +0.015 C 
ATOM     23  C   UNL     1      -3.673  -0.552  24.867  0.00  0.00    +0.327 C 
ATOM     24  O   UNL     1      -4.013  -1.292  24.994  0.00  0.00    -0.250 OA
ATOM     25  N   UNL     1      -2.865  -0.490  24.711  0.00  0.00    -0.162 NA
ENDROOT
BRANCH  25  26
ATOM     26  C   UNL     1      -2.397  -1.169  24.682  0.00  0.00    +0.075 A 
ATOM     27  C   UNL     1      -1.612  -1.141  24.932  0.00  0.00    +0.021 A 
ATOM     28  C   UNL     1      -1.144  -1.820  24.903  0.00  0.00    +0.073 A 
ATOM     29  C   UNL     1      -1.462  -2.528  24.625  0.00  0.00    +0.004 A 
ATOM     30  C   UNL     1      -2.248  -2.557  24.375  0.00  0.00    +0.001 A 
ATOM     31  C   UNL     1      -2.716  -1.878  24.403  0.00  0.00    +0.017 A 
BRANCH  28  32
ATOM     32  C   UNL     1      -0.359  -1.792  25.153  0.00  0.00    +0.419 C 
ATOM     33  F   UNL     1       0.428  -1.763  25.402  0.00  0.00    -0.166 F 
ATOM     34  F   UNL     1      -0.545  -2.274  25.795  0.00  0.00    -0.166 F 
ATOM     35  F   UNL     1      -0.172  -1.309  24.510  0.00  0.00    -0.166 F 
ENDBRANCH  28  32
ENDBRANCH  25  26
BRANCH  13  12
ATOM     12  C   UNL     1      -3.926   2.288  24.671  0.00  0.00    +0.047 C 
BRANCH  12  11
ATOM      3  C   UNL     1      -1.339   3.739  24.895  0.00  0.00    +0.172 A 
ATOM      4  C   UNL     1      -1.323   3.353  24.166  0.00  0.00    +0.036 A 
ATOM      5  C   UNL     1      -1.965   2.894  23.927  0.00  0.00    -0.016 A 
ATOM      6  C   UNL     1      -2.625   2.820  24.418  0.00  0.00    +0.012 A 
ATOM      7  C   UNL     1      -2.641   3.206  25.148  0.00  0.00    +0.041 A 
ATOM      8  C   UNL     1      -1.999   3.666  25.387  0.00  0.00    +0.172 A 
ATOM     11  C   UNL     1      -3.267   2.361  24.180  0.00  0.00    +0.054 C 
ATOM     36  N   UNL     1      -3.251   1.976  23.451  0.00  0.00    -0.274 NA
ATOM     37  C   UNL     1      -2.591   2.050  22.960  0.00  0.00    +0.130 C 
ATOM     38  C   UNL     1      -1.949   2.509  23.199  0.00  0.00    +0.053 C 
BRANCH   3   2
ATOM      1  C   UNL     1      -0.239   4.591  24.572  0.00  0.00    +0.253 C 
ATOM      2  O   UNL     1      -0.697   4.198  25.134  0.00  0.00    -0.468 OA
ENDBRANCH   3   2
BRANCH   8   9
ATOM      9  O   UNL     1      -2.015   4.051  26.115  0.00  0.00    -0.468 OA
ATOM     10  C   UNL     1      -2.737   4.225  26.474  0.00  0.00    +0.253 C 
ENDBRANCH   8   9
ENDBRANCH  12  11
ENDBRANCH  13  12
BRANCH  18  19
ATOM     19  C   UNL     1      -5.542   2.165  24.982  0.00  0.00    +0.114 C 
BRANCH  19  20
ATOM     20  C   UNL     1      -6.237   2.169  25.426  0.00  0.00    +0.365 C 
ATOM     21  O   UNL     1      -6.950   1.938  25.080  0.00  0.00    -0.246 OA
ATOM     22  O   UNL     1      -6.220   2.403  26.218  0.00  0.00    -0.246 OA
ENDBRANCH  19  20
ENDBRANCH  18  19
TORSDOF 8
ENDMDL
MODEL 7
REMARK VINA RESULT:     -10.2      2.500      3.920
REMARK  Name = 
REMARK  8 active torsions:
REMARK  status: ('A' for Active; 'I' for Inactive)
REMARK    1  A    between atoms: O_2  and  C_3
REMARK    2  A    between atoms: C_8  and  O_9
REMARK    3  A    between atoms: C_11  and  C_12
REMARK    4  A    between atoms: C_12  and  C_13
REMARK    5  A    between atoms: C_18  and  C_19
REMARK    6  A    between atoms: C_19  and  C_20
REMARK    7  A    between atoms: N_25  and  C_26
REMARK    8  A    between atoms: C_28  and  C_32
REMARK                            x       y       z     vdW  Elec       q    Type
REMARK                         _______ _______ _______ _____ _____    ______ ____
ROOT
ATOM     13  C   UNL     1      -1.744   0.094  24.829  0.00  0.00    +0.026 C 
ATOM     14  C   UNL     1      -2.497   0.423  24.888  0.00  0.00    +0.095 C 
ATOM     15  N   UNL     1      -3.152  -0.064  25.013  0.00  0.00    -0.263 N 
ATOM     16  C   UNL     1      -3.051  -0.880  25.081  0.00  0.00    +0.095 C 
ATOM     17  C   UNL     1      -2.298  -1.209  25.022  0.00  0.00    +0.022 C 
ATOM     18  C   UNL     1      -1.644  -0.723  24.897  0.00  0.00    +0.015 C 
ATOM     23  C   UNL     1      -3.906   0.265  25.072  0.00  0.00    +0.327 C 
ATOM     24  O   UNL     1      -4.560  -0.222  25.197  0.00  0.00    -0.250 OA
ATOM     25  N   UNL     1      -4.005   1.081  25.004  0.00  0.00    -0.162 NA
ENDROOT
BRANCH  25  26
ATOM     26  C   UNL     1      -4.760   1.411  25.063  0.00  0.00    +0.075 A 
ATOM     27  C   UNL     1      -4.852   2.184  25.333  0.00  0.00    +0.021 A 
ATOM     28  C   UNL     1      -5.607   2.514  25.392  0.00  0.00    +0.073 A 
ATOM     29  C   UNL     1      -6.269   2.070  25.180  0.00  0.00    +0.004 A 
ATOM     30  C   UNL     1      -6.176   1.295  24.909  0.00  0.00    +0.001 A 
ATOM     31  C   UNL     1      -5.422   0.966  24.851  0.00  0.00    +0.017 A 
BRANCH  28  32
ATOM     32  C   UNL     1      -5.700   3.287  25.662  0.00  0.00    +0.419 C 
ATOM     33  F   UNL     1      -5.792   4.062  25.931  0.00  0.00    -0.166 F 
ATOM     34  F   UNL     1      -5.906   3.003  26.408  0.00  0.00    -0.166 F 
ATOM     35  F   UNL     1      -5.492   3.573  24.915  0.00  0.00    -0.166 F 
ENDBRANCH  28  32
ENDBRANCH  25  26
BRANCH  13  12
ATOM     12  C   UNL     1      -1.089   0.580  24.704  0.00  0.00    +0.047 C 
BRANCH  12  11
ATOM      3  C   UNL     1      -0.592   3.497  25.008  0.00  0.00    +0.172 A 
ATOM      4  C   UNL     1      -0.834   3.386  24.227  0.00  0.00    +0.036 A 
ATOM      5  C   UNL     1      -1.019   2.629  23.955  0.00  0.00    -0.016 A 
ATOM      6  C   UNL     1      -0.962   1.982  24.465  0.00  0.00    +0.012 A 
ATOM      7  C   UNL     1      -0.720   2.094  25.246  0.00  0.00    +0.041 A 
ATOM      8  C   UNL     1      -0.535   2.850  25.518  0.00  0.00    +0.172 A 
ATOM     11  C   UNL     1      -1.147   1.226  24.194  0.00  0.00    +0.054 C 
ATOM     36  N   UNL     1      -1.389   1.115  23.414  0.00  0.00    -0.274 NA
ATOM     37  C   UNL     1      -1.446   1.762  22.904  0.00  0.00    +0.130 C 
ATOM     38  C   UNL     1      -1.261   2.519  23.175  0.00  0.00    +0.053 C 
BRANCH   3   2
ATOM      1  C   UNL     1      -0.780   4.912  24.952  0.00  0.00    +0.253 C 
ATOM      2  O   UNL     1      -0.407   4.254  25.280  0.00  0.00    -0.468 OA
ENDBRANCH   3   2
BRANCH   8   9
ATOM      9  O   UNL     1      -0.293   2.961  26.299  0.00  0.00    -0.468 OA
ATOM     10  C   UNL     1       0.225   2.424  26.650  0.00  0.00    +0.253 C 
ENDBRANCH   8   9
ENDBRANCH  12  11
ENDBRANCH  13  12
BRANCH  18  19
ATOM     19  C   UNL     1      -0.889  -1.053  24.838  0.00  0.00    +0.114 C 
BRANCH  19  20
ATOM     20  C   UNL     1      -0.757  -1.825  25.093  0.00  0.00    +0.365 C 
ATOM     21  O   UNL     1      -0.996  -2.462  24.625  0.00  0.00    -0.246 OA
ATOM     22  O   UNL     1      -0.383  -1.963  25.816  0.00  0.00    -0.246 OA
ENDBRANCH  19  20
ENDBRANCH  18  19
TORSDOF 8
ENDMDL
MODEL 8
REMARK VINA RESULT:      -8.9     15.391     18.075
REMARK  Name = 
REMARK  8 active torsions:
REMARK  status: ('A' for Active; 'I' for Inactive)
REMARK    1  A    between atoms: O_2  and  C_3
REMARK    2  A    between atoms: C_8  and  O_9
REMARK    3  A    between atoms: C_11  and  C_12
REMARK    4  A    between atoms: C_12  and  C_13
REMARK    5  A    between atoms: C_18  and  C_19
REMARK    6  A    between atoms: C_19  and  C_20
REMARK    7  A    between atoms: N_25  and  C_26
REMARK    8  A    between atoms: C_28  and  C_32
REMARK                            x       y       z     vdW  Elec       q    Type
REMARK                         _______ _______ _______ _____ _____    ______ ____
ROOT
ATOM     13  C   UNL     1      14.239   7.014  19.853  0.00  0.00    +0.026 C 
ATOM     14  C   UNL     1      13.829   7.351  19.222  0.00  0.00    +0.095 C 
ATOM     15  N   UNL     1      14.212   7.479  18.502  0.00  0.00    -0.263 N 
ATOM     16  C   UNL     1      15.004   7.269  18.414  0.00  0.00    +0.095 C 
ATOM     17  C   UNL     1      15.414   6.931  19.044  0.00  0.00    +0.022 C 
ATOM     18  C   UNL     1      15.032   6.803  19.764  0.00  0.00    +0.015 C 
ATOM     23  C   UNL     1      13.801   7.817  17.871  0.00  0.00    +0.327 C 
ATOM     24  O   UNL     1      14.184   7.945  17.152  0.00  0.00    -0.250 OA
ATOM     25  N   UNL     1      13.008   8.027  17.961  0.00  0.00    -0.162 NA
ENDROOT
BRANCH  25  26
ATOM     26  C   UNL     1      12.598   8.365  17.330  0.00  0.00    +0.075 A 
ATOM     27  C   UNL     1      11.775   8.315  17.298  0.00  0.00    +0.021 A 
ATOM     28  C   UNL     1      11.365   8.653  16.667  0.00  0.00    +0.073 A 
ATOM     29  C   UNL     1      11.777   9.041  16.067  0.00  0.00    +0.004 A 
ATOM     30  C   UNL     1      12.601   9.092  16.098  0.00  0.00    +0.001 A 
ATOM     31  C   UNL     1      13.011   8.754  16.729  0.00  0.00    +0.017 A 
BRANCH  28  32
ATOM     32  C   UNL     1      10.542   8.603  16.635  0.00  0.00    +0.419 C 
ATOM     33  F   UNL     1       9.719   8.553  16.601  0.00  0.00    -0.166 F 
ATOM     34  F   UNL     1      10.518   8.463  17.447  0.00  0.00    -0.166 F 
ATOM     35  F   UNL     1      10.566   8.743  15.821  0.00  0.00    -0.166 F 
ENDBRANCH  28  32
ENDBRANCH  25  26
BRANCH  13  12
ATOM     12  C   UNL     1      13.857   6.886  20.572  0.00  0.00    +0.047 C 
BRANCH  12  11
ATOM      3  C   UNL     1      11.217   7.357  21.862  0.00  0.00    +0.172 A 
ATOM      4  C   UNL     1      11.656   8.046  21.979  0.00  0.00    +0.036 A 
ATOM      5  C   UNL     1      12.426   8.101  21.687  0.00  0.00    -0.016 A 
ATOM      6  C   UNL     1      12.757   7.466  21.276  0.00  0.00    +0.012 A 
ATOM      7  C   UNL     1      12.318   6.777  21.158  0.00  0.00    +0.041 A 
ATOM      8  C   UNL     1      11.548   6.722  21.451  0.00  0.00    +0.172 A 
ATOM     11  C   UNL     1      13.526   7.520  20.983  0.00  0.00    +0.054 C 
ATOM     36  N   UNL     1      13.964   8.209  21.100  0.00  0.00    -0.274 NA
ATOM     37  C   UNL     1      13.633   8.844  21.511  0.00  0.00    +0.130 C 
ATOM     38  C   UNL     1      12.864   8.789  21.804  0.00  0.00    +0.053 C 
BRANCH   3   2
ATOM      1  C   UNL     1      10.004   7.986  22.278  0.00  0.00    +0.253 C 
ATOM      2  O   UNL     1      10.448   7.303  22.155  0.00  0.00    -0.468 OA
ENDBRANCH   3   2
BRANCH   8   9
ATOM      9  O   UNL     1      11.110   6.034  21.334  0.00  0.00    -0.468 OA
ATOM     10  C   UNL     1      11.433   5.301  21.528  0.00  0.00    +0.253 C 
ENDBRANCH   8   9
ENDBRANCH  12  11
ENDBRANCH  13  12
BRANCH  18  19
ATOM     19  C   UNL     1      15.442   6.466  20.395  0.00  0.00    +0.114 C 
BRANCH  19  20
ATOM     20  C   UNL     1      16.239   6.270  20.311  0.00  0.00    +0.365 C 
ATOM     21  O   UNL     1      16.457   5.602  19.878  0.00  0.00    -0.246 OA
ATOM     22  O   UNL     1      16.819   6.742  20.661  0.00  0.00    -0.246 OA
ENDBRANCH  19  20
ENDBRANCH  18  19
TORSDOF 8
ENDMDL
