MODEL 1
REMARK VINA RESULT:      -9.6      0.000      0.000
REMARK  Name = 
REMARK  5 active torsions:
REMARK  status: ('A' for Active; 'I' for Inactive)
REMARK    1  A    between atoms: O_2  and  C_3
REMARK    2  A    between atoms: C_6  and  C_7
REMARK    3  A    between atoms: C_7  and  N_8
REMARK    4  A    between atoms: C_13  and  O_15
REMARK    5  A    between atoms: O_15  and  C_16
REMARK                            x       y       z     vdW  Elec       q    Type
REMARK                         _______ _______ _______ _____ _____    ______ ____
ROOT
ATOM      8  N   UNL     1      -3.235   1.228  24.270  0.00  0.00    -0.264 NA
ATOM      9  C   UNL     1      -3.244   1.154  23.447  0.00  0.00    +0.105 C 
ATOM     10  C   UNL     1      -2.723   1.478  22.897  0.00  0.00    +0.160 C 
ATOM     11  O   UNL     1      -2.064   1.956  23.031  0.00  0.00    -0.348 OA
ATOM     12  C   UNL     1      -1.764   2.228  23.750  0.00  0.00    +0.187 C 
ATOM     13  C   UNL     1      -2.049   2.089  24.512  0.00  0.00    +0.213 C 
ATOM     14  C   UNL     1      -2.704   1.644  24.742  0.00  0.00    +0.119 C 
ENDROOT
BRANCH   8   7
ATOM      7  C   UNL     1      -3.839   0.834  24.670  0.00  0.00    +0.099 C 
BRANCH   7   6
ATOM      3  C   UNL     1      -3.714  -1.617  24.996  0.00  0.00    +0.139 A 
ATOM      4  C   UNL     1      -4.095  -1.307  24.333  0.00  0.00    +0.037 A 
ATOM      5  C   UNL     1      -4.136  -0.491  24.225  0.00  0.00    +0.000 A 
ATOM      6  C   UNL     1      -3.797   0.017  24.779  0.00  0.00    -0.006 A 
ATOM     22  C   UNL     1      -3.416  -0.293  25.443  0.00  0.00    +0.000 A 
ATOM     23  C   UNL     1      -3.375  -1.108  25.551  0.00  0.00    +0.037 A 
BRANCH   3   2
ATOM      1  C   UNL     1      -3.335  -2.911  24.523  0.00  0.00    +0.252 C 
ATOM      2  O   UNL     1      -3.673  -2.433  25.105  0.00  0.00    -0.471 OA
ENDBRANCH   3   2
ENDBRANCH   7   6
ENDBRANCH   8   7
BRANCH  13  15
ATOM     15  O   UNL     1      -1.622   2.442  25.123  0.00  0.00    -0.459 OA
BRANCH  15  16
ATOM     16  C   UNL     1      -1.589   3.264  25.181  0.00  0.00    +0.245 A 
ATOM     17  C   UNL     1      -0.923   3.670  24.909  0.00  0.00    +0.156 A 
ATOM     18  N   UNL     1      -0.890   4.493  24.967  0.00  0.00    -0.236 NA
ATOM     19  C   UNL     1      -1.522   4.909  25.296  0.00  0.00    +0.120 A 
ATOM     20  C   UNL     1      -2.187   4.503  25.568  0.00  0.00    +0.123 A 
ATOM     21  N   UNL     1      -2.219   3.681  25.510  0.00  0.00    -0.207 NA
ENDBRANCH  15  16
ENDBRANCH  13  15
TORSDOF 5
ENDMDL
MODEL 2
REMARK VINA RESULT:      -9.5      1.115      1.506
REMARK  Name = 
REMARK  5 active torsions:
REMARK  status: ('A' for Active; 'I' for Inactive)
REMARK    1  A    between atoms: O_2  and  C_3
REMARK    2  A    between atoms: C_6  and  C_7
REMARK    3  A    between atoms: C_7  and  N_8
REMARK    4  A    between atoms: C_13  and  O_15
REMARK    5  A    between atoms: O_15  and  C_16
REMARK                            x       y       z     vdW  Elec       q    Type
REMARK                         _______ _______ _______ _____ _____    ______ ____
ROOT
ATOM      8  N   UNL     1      -3.413   1.740  24.364  0.00  0.00    -0.264 NA
ATOM      9  C   UNL     1      -4.190   1.919  24.148  0.00  0.00    +0.105 C 
ATOM     10  C   UNL     1      -4.658   2.552  24.392  0.00  0.00    +0.160 C 
ATOM     11  O   UNL     1      -4.467   3.163  24.912  0.00  0.00    -0.348 OA
ATOM     12  C   UNL     1      -3.760   3.291  25.317  0.00  0.00    +0.187 C 
ATOM     13  C   UNL     1      -3.069   2.840  25.301  0.00  0.00    +0.213 C 
ATOM     14  C   UNL     1      -2.915   2.150  24.877  0.00  0.00    +0.119 C 
ENDROOT
BRANCH   8   7
ATOM      7  C   UNL     1      -3.095   1.061  24.021  0.00  0.00    +0.099 C 
BRANCH   7   6
ATOM      3  C   UNL     1      -3.563  -1.162  25.005  0.00  0.00    +0.139 A 
ATOM      4  C   UNL     1      -2.948  -0.700  25.302  0.00  0.00    +0.037 A 
ATOM      5  C   UNL     1      -2.792   0.040  24.975  0.00  0.00    +0.000 A 
ATOM      6  C   UNL     1      -3.251   0.320  24.349  0.00  0.00    -0.006 A 
ATOM     22  C   UNL     1      -3.867  -0.142  24.051  0.00  0.00    +0.000 A 
ATOM     23  C   UNL     1      -4.023  -0.882  24.378  0.00  0.00    +0.037 A 
BRANCH   3   2
ATOM      1  C   UNL     1      -3.489  -2.588  24.933  0.00  0.00    +0.252 C 
ATOM      2  O   UNL     1      -3.719  -1.902  25.333  0.00  0.00    -0.471 OA
ENDBRANCH   3   2
ENDBRANCH   7   6
ENDBRANCH   8   7
BRANCH  13  15
ATOM     15  O   UNL     1      -2.450   3.116  25.773  0.00  0.00    -0.459 OA
BRANCH  15  16
ATOM     16  C   UNL     1      -1.941   3.697  25.484  0.00  0.00    +0.245 A 
ATOM     17  C   UNL     1      -2.140   4.495  25.561  0.00  0.00    +0.156 A 
ATOM     18  N   UNL     1      -1.630   5.076  25.273  0.00  0.00    -0.236 NA
ATOM     19  C   UNL     1      -0.922   4.861  24.907  0.00  0.00    +0.120 A 
ATOM     20  C   UNL     1      -0.724   4.064  24.830  0.00  0.00    +0.123 A 
ATOM     21  N   UNL     1      -1.234   3.482  25.119  0.00  0.00    -0.207 NA
ENDBRANCH  15  16
ENDBRANCH  13  15
TORSDOF 5
ENDMDL
MODEL 3
REMARK VINA RESULT:      -9.2      0.859      1.111
REMARK  Name = 
REMARK  5 active torsions:
REMARK  status: ('A' for Active; 'I' for Inactive)
REMARK    1  A    between atoms: O_2  and  C_3
REMARK    2  A    between atoms: C_6  and  C_7
REMARK    3  A    between atoms: C_7  and  N_8
REMARK    4  A    between atoms: C_13  and  O_15
REMARK    5  A    between atoms: O_15  and  C_16
REMARK                            x       y       z     vdW  Elec       q    Type
REMARK                         _______ _______ _______ _____ _____    ______ ____
ROOT
ATOM      8  N   UNL     1      -3.596   1.221  24.304  0.00  0.00    -0.264 NA
ATOM      9  C   UNL     1      -3.505   1.154  23.487  0.00  0.00    +0.105 C 
ATOM     10  C   UNL     1      -2.992   1.568  22.991  0.00  0.00    +0.160 C 
ATOM     11  O   UNL     1      -2.443   2.151  23.190  0.00  0.00    -0.348 OA
ATOM     12  C   UNL     1      -2.273   2.464  23.934  0.00  0.00    +0.187 C 
ATOM     13  C   UNL     1      -2.609   2.272  24.662  0.00  0.00    +0.213 C 
ATOM     14  C   UNL     1      -3.197   1.719  24.826  0.00  0.00    +0.119 C 
ENDROOT
BRANCH   8   7
ATOM      7  C   UNL     1      -4.162   0.725  24.642  0.00  0.00    +0.099 C 
BRANCH   7   6
ATOM      3  C   UNL     1      -3.703  -1.696  24.878  0.00  0.00    +0.139 A 
ATOM      4  C   UNL     1      -4.066  -1.409  24.195  0.00  0.00    +0.037 A 
ATOM      5  C   UNL     1      -4.219  -0.603  24.117  0.00  0.00    +0.000 A 
ATOM      6  C   UNL     1      -4.009  -0.082  24.721  0.00  0.00    -0.006 A 
ATOM     22  C   UNL     1      -3.646  -0.369  25.405  0.00  0.00    +0.000 A 
ATOM     23  C   UNL     1      -3.493  -1.175  25.483  0.00  0.00    +0.037 A 
BRANCH   3   2
ATOM      1  C   UNL     1      -2.896  -2.838  24.580  0.00  0.00    +0.252 C 
ATOM      2  O   UNL     1      -3.551  -2.503  24.957  0.00  0.00    -0.471 OA
ENDBRANCH   3   2
ENDBRANCH   7   6
ENDBRANCH   8   7
BRANCH  13  15
ATOM     15  O   UNL     1      -2.316   2.688  25.312  0.00  0.00    -0.459 OA
BRANCH  15  16
ATOM     16  C   UNL     1      -1.514   2.649  25.500  0.00  0.00    +0.245 A 
ATOM     17  C   UNL     1      -1.028   3.303  25.369  0.00  0.00    +0.156 A 
ATOM     18  N   UNL     1      -0.225   3.263  25.556  0.00  0.00    -0.236 NA
ATOM     19  C   UNL     1       0.091   2.570  25.874  0.00  0.00    +0.120 A 
ATOM     20  C   UNL     1      -0.395   1.917  26.004  0.00  0.00    +0.123 A 
ATOM     21  N   UNL     1      -1.198   1.957  25.817  0.00  0.00    -0.207 NA
ENDBRANCH  15  16
ENDBRANCH  13  15
TORSDOF 5
ENDMDL
MODEL 4
REMARK VINA RESULT:      -9.1      1.481      2.019
REMARK  Name = 
REMARK  5 active torsions:
REMARK  status: ('A' for Active; 'I' for Inactive)
REMARK    1  A    between atoms: O_2  and  C_3
REMARK    2  A    between atoms: C_6  and  C_7
REMARK    3  A    between atoms: C_7  and  N_8
REMARK    4  A    between atoms: C_13  and  O_15
REMARK    5  A    between atoms: O_15  and  C_16
REMARK                            x       y       z     vdW  Elec       q    Type
REMARK                         _______ _______ _______ _____ _____    ______ ____
ROOT
ATOM      8  N   UNL     1      -1.260   0.084  25.131  0.00  0.00    -0.264 NA
ATOM      9  C   UNL     1      -0.728  -0.034  24.511  0.00  0.00    +0.105 C 
ATOM     10  C   UNL     1      -0.449   0.513  23.960  0.00  0.00    +0.160 C 
ATOM     11  O   UNL     1      -0.634   1.314  23.892  0.00  0.00    -0.348 OA
ATOM     12  C   UNL     1      -1.142   1.765  24.360  0.00  0.00    +0.187 C 
ATOM     13  C   UNL     1      -1.592   1.527  25.009  0.00  0.00    +0.213 C 
ATOM     14  C   UNL     1      -1.644   0.779  25.352  0.00  0.00    +0.119 C 
ENDROOT
BRANCH   8   7
ATOM      7  C   UNL     1      -1.429  -0.581  25.589  0.00  0.00    +0.099 C 
BRANCH   7   6
ATOM      3  C   UNL     1      -3.138  -2.204  24.834  0.00  0.00    +0.139 A 
ATOM      4  C   UNL     1      -2.366  -2.255  24.549  0.00  0.00    +0.037 A 
ATOM      5  C   UNL     1      -1.797  -1.715  24.800  0.00  0.00    +0.000 A 
ATOM      6  C   UNL     1      -1.999  -1.122  25.337  0.00  0.00    -0.006 A 
ATOM     22  C   UNL     1      -2.772  -1.070  25.622  0.00  0.00    +0.000 A 
ATOM     23  C   UNL     1      -3.341  -1.610  25.371  0.00  0.00    +0.037 A 
BRANCH   3   2
ATOM      1  C   UNL     1      -4.166  -2.581  23.915  0.00  0.00    +0.252 C 
ATOM      2  O   UNL     1      -3.708  -2.745  24.582  0.00  0.00    -0.471 OA
ENDBRANCH   3   2
ENDBRANCH   7   6
ENDBRANCH   8   7
BRANCH  13  15
ATOM     15  O   UNL     1      -2.051   2.116  25.362  0.00  0.00    -0.459 OA
BRANCH  15  16
ATOM     16  C   UNL     1      -2.679   2.452  24.948  0.00  0.00    +0.245 A 
ATOM     17  C   UNL     1      -2.590   3.192  24.592  0.00  0.00    +0.156 A 
ATOM     18  N   UNL     1      -3.219   3.529  24.177  0.00  0.00    -0.236 NA
ATOM     19  C   UNL     1      -3.937   3.126  24.118  0.00  0.00    +0.120 A 
ATOM     20  C   UNL     1      -4.026   2.387  24.473  0.00  0.00    +0.123 A 
ATOM     21  N   UNL     1      -3.396   2.051  24.888  0.00  0.00    -0.207 NA
ENDBRANCH  15  16
ENDBRANCH  13  15
TORSDOF 5
ENDMDL
MODEL 5
REMARK VINA RESULT:      -9.0      2.208      3.826
REMARK  Name = 
REMARK  5 active torsions:
REMARK  status: ('A' for Active; 'I' for Inactive)
REMARK    1  A    between atoms: O_2  and  C_3
REMARK    2  A    between atoms: C_6  and  C_7
REMARK    3  A    between atoms: C_7  and  N_8
REMARK    4  A    between atoms: C_13  and  O_15
REMARK    5  A    between atoms: O_15  and  C_16
REMARK                            x       y       z     vdW  Elec       q    Type
REMARK                         _______ _______ _______ _____ _____    ______ ____
ROOT
ATOM      8  N   UNL     1      -3.459   0.128  24.704  0.00  0.00    -0.264 NA
ATOM      9  C   UNL     1      -3.860  -0.531  24.999  0.00  0.00    +0.105 C 
ATOM     10  C   UNL     1      -3.574  -1.133  25.485  0.00  0.00    +0.160 C 
ATOM     11  O   UNL     1      -2.815  -1.225  25.797  0.00  0.00    -0.348 OA
ATOM     12  C   UNL     1      -2.157  -0.738  25.699  0.00  0.00    +0.187 C 
ATOM     13  C   UNL     1      -2.094  -0.038  25.265  0.00  0.00    +0.213 C 
ATOM     14  C   UNL     1      -2.674   0.346  24.823  0.00  0.00    +0.119 C 
ENDROOT
BRANCH   8   7
ATOM      7  C   UNL     1      -3.905   0.633  24.228  0.00  0.00    +0.099 C 
BRANCH   7   6
ATOM      3  C   UNL     1      -5.192   2.483  25.250  0.00  0.00    +0.139 A 
ATOM      4  C   UNL     1      -5.487   1.713  25.272  0.00  0.00    +0.037 A 
ATOM      5  C   UNL     1      -5.058   1.097  24.932  0.00  0.00    +0.000 A 
ATOM      6  C   UNL     1      -4.334   1.250  24.569  0.00  0.00    -0.006 A 
ATOM     22  C   UNL     1      -4.038   2.021  24.546  0.00  0.00    +0.000 A 
ATOM     23  C   UNL     1      -4.467   2.637  24.887  0.00  0.00    +0.037 A 
BRANCH   3   2
ATOM      1  C   UNL     1      -5.314   3.866  25.591  0.00  0.00    +0.252 C 
ATOM      2  O   UNL     1      -5.621   3.100  25.591  0.00  0.00    -0.471 OA
ENDBRANCH   3   2
ENDBRANCH   7   6
ENDBRANCH   8   7
BRANCH  13  15
ATOM     15  O   UNL     1      -1.352   0.324  25.276  0.00  0.00    -0.459 OA
BRANCH  15  16
ATOM     16  C   UNL     1      -0.801   0.151  24.688  0.00  0.00    +0.245 A 
ATOM     17  C   UNL     1      -0.589   0.730  24.139  0.00  0.00    +0.156 A 
ATOM     18  N   UNL     1      -0.037   0.557  23.550  0.00  0.00    -0.236 NA
ATOM     19  C   UNL     1       0.302  -0.194  23.510  0.00  0.00    +0.120 A 
ATOM     20  C   UNL     1       0.091  -0.772  24.059  0.00  0.00    +0.123 A 
ATOM     21  N   UNL     1      -0.461  -0.599  24.648  0.00  0.00    -0.207 NA
ENDBRANCH  15  16
ENDBRANCH  13  15
TORSDOF 5
ENDMDL
MODEL 6
REMARK VINA RESULT:      -8.9      1.924      4.734
REMARK  Name = 
REMARK  5 active torsions:
REMARK  status: ('A' for Active; 'I' for Inactive)
REMARK    1  A    between atoms: O_2  and  C_3
REMARK    2  A    between atoms: C_6  and  C_7
REMARK    3  A    between atoms: C_7  and  N_8
REMARK    4  A    between atoms: C_13  and  O_15
REMARK    5  A    between atoms: O_15  and  C_16
REMARK                            x       y       z     vdW  Elec       q    Type
REMARK                         _______ _______ _______ _____ _____    ______ ____
ROOT
ATOM      8  N   UNL     1      -2.607   0.973  24.404  0.00  0.00    -0.264 NA
ATOM      9  C   UNL     1      -1.798   1.073  24.530  0.00  0.00    +0.105 C 
ATOM     10  C   UNL     1      -1.286   0.607  24.977  0.00  0.00    +0.160 C 
ATOM     11  O   UNL     1      -1.456  -0.076  25.409  0.00  0.00    -0.348 OA
ATOM     12  C   UNL     1      -2.180  -0.459  25.500  0.00  0.00    +0.187 C 
ATOM     13  C   UNL     1      -2.914  -0.255  25.181  0.00  0.00    +0.213 C 
ATOM     14  C   UNL     1      -3.103   0.382  24.694  0.00  0.00    +0.119 C 
ENDROOT
BRANCH   8   7
ATOM      7  C   UNL     1      -2.967   1.540  23.924  0.00  0.00    +0.099 C 
BRANCH   7   6
ATOM      3  C   UNL     1      -4.321   3.345  24.940  0.00  0.00    +0.139 A 
ATOM      4  C   UNL     1      -3.498   3.388  24.954  0.00  0.00    +0.037 A 
ATOM      5  C   UNL     1      -3.047   2.787  24.616  0.00  0.00    +0.000 A 
ATOM      6  C   UNL     1      -3.418   2.141  24.262  0.00  0.00    -0.006 A 
ATOM     22  C   UNL     1      -4.243   2.097  24.248  0.00  0.00    +0.000 A 
ATOM     23  C   UNL     1      -4.694   2.698  24.586  0.00  0.00    +0.037 A 
BRANCH   3   2
ATOM      1  C   UNL     1      -5.490   3.767  25.647  0.00  0.00    +0.252 C 
ATOM      2  O   UNL     1      -4.773   3.946  25.278  0.00  0.00    -0.471 OA
ENDBRANCH   3   2
ENDBRANCH   7   6
ENDBRANCH   8   7
BRANCH  13  15
ATOM     15  O   UNL     1      -3.540  -0.756  25.377  0.00  0.00    -0.459 OA
BRANCH  15  16
ATOM     16  C   UNL     1      -3.648  -1.462  24.964  0.00  0.00    +0.245 A 
ATOM     17  C   UNL     1      -3.306  -2.159  25.243  0.00  0.00    +0.156 A 
ATOM     18  N   UNL     1      -3.414  -2.865  24.829  0.00  0.00    -0.236 NA
ATOM     19  C   UNL     1      -3.862  -2.874  24.137  0.00  0.00    +0.120 A 
ATOM     20  C   UNL     1      -4.204  -2.177  23.858  0.00  0.00    +0.123 A 
ATOM     21  N   UNL     1      -4.096  -1.471  24.272  0.00  0.00    -0.207 NA
ENDBRANCH  15  16
ENDBRANCH  13  15
TORSDOF 5
ENDMDL
MODEL 7
REMARK VINA RESULT:      -8.8      2.005      4.174
REMARK  Name = 
REMARK  5 active torsions:
REMARK  status: ('A' for Active; 'I' for Inactive)
REMARK    1  A    between atoms: O_2  and  C_3
REMARK    2  A    between atoms: C_6  and  C_7
REMARK    3  A    between atoms: C_7  and  N_8
REMARK    4  A    between atoms: C_13  and  O_15
REMARK    5  A    between atoms: O_15  and  C_16
REMARK                            x       y       z     vdW  Elec       q    Type
REMARK                         _______ _______ _______ _____ _____    ______ ____
ROOT
ATOM      8  N   UNL     1      -1.520   2.896  24.919  0.00  0.00    -0.264 NA
ATOM      9  C   UNL     1      -1.174   3.136  25.629  0.00  0.00    +0.105 C 
ATOM     10  C   UNL     1      -0.615   2.740  26.088  0.00  0.00    +0.160 C 
ATOM     11  O   UNL     1      -0.263   2.006  25.951  0.00  0.00    -0.348 OA
ATOM     12  C   UNL     1      -0.385   1.488  25.321  0.00  0.00    +0.187 C 
ATOM     13  C   UNL     1      -0.888   1.575  24.672  0.00  0.00    +0.213 C 
ATOM     14  C   UNL     1      -1.392   2.202  24.494  0.00  0.00    +0.119 C 
ENDROOT
BRANCH   8   7
ATOM      7  C   UNL     1      -2.066   3.421  24.592  0.00  0.00    +0.099 C 
BRANCH   7   6
ATOM      3  C   UNL     1      -4.430   3.367  25.325  0.00  0.00    +0.139 A 
ATOM      4  C   UNL     1      -3.860   3.737  25.793  0.00  0.00    +0.037 A 
ATOM      5  C   UNL     1      -3.073   3.755  25.549  0.00  0.00    +0.000 A 
ATOM      6  C   UNL     1      -2.854   3.403  24.836  0.00  0.00    -0.006 A 
ATOM     22  C   UNL     1      -3.423   3.033  24.367  0.00  0.00    +0.000 A 
ATOM     23  C   UNL     1      -4.210   3.015  24.611  0.00  0.00    +0.037 A 
BRANCH   3   2
ATOM      1  C   UNL     1      -5.570   2.631  25.772  0.00  0.00    +0.252 C 
ATOM      2  O   UNL     1      -5.217   3.349  25.569  0.00  0.00    -0.471 OA
ENDBRANCH   3   2
ENDBRANCH   7   6
ENDBRANCH   8   7
BRANCH  13  15
ATOM     15  O   UNL     1      -0.884   0.951  24.131  0.00  0.00    -0.459 OA
BRANCH  15  16
ATOM     16  C   UNL     1      -1.096   0.193  24.375  0.00  0.00    +0.245 A 
ATOM     17  C   UNL     1      -0.510  -0.371  24.523  0.00  0.00    +0.156 A 
ATOM     18  N   UNL     1      -0.722  -1.130  24.767  0.00  0.00    -0.236 NA
ATOM     19  C   UNL     1      -1.518  -1.326  24.864  0.00  0.00    +0.120 A 
ATOM     20  C   UNL     1      -2.102  -0.763  24.716  0.00  0.00    +0.123 A 
ATOM     21  N   UNL     1      -1.890  -0.003  24.472  0.00  0.00    -0.207 NA
ENDBRANCH  15  16
ENDBRANCH  13  15
TORSDOF 5
ENDMDL
