MODEL 1
REMARK VINA RESULT:     -11.5      0.000      0.000
REMARK  Name = 
REMARK  6 active torsions:
REMARK  status: ('A' for Active; 'I' for Inactive)
REMARK    1  A    between atoms: C_2  and  C_3
REMARK    2  A    between atoms: C_2  and  C_25
REMARK    3  A    between atoms: C_10  and  N_11
REMARK    4  A    between atoms: C_12  and  C_14
REMARK    5  A    between atoms: N_27  and  C_29
REMARK    6  A    between atoms: C_29  and  C_30
REMARK                            x       y       z     vdW  Elec       q    Type
REMARK                         _______ _______ _______ _____ _____    ______ ____
ROOT
ATOM      3  C   UNL     1      -4.480   2.796  24.822  0.00  0.00    +0.039 C 
ATOM      4  C   UNL     1      -5.169   2.722  25.272  0.00  0.00    +0.003 C 
ATOM      5  C   UNL     1      -5.464   1.974  25.454  0.00  0.00    +0.000 C 
ATOM      6  C   UNL     1      -5.072   1.300  25.187  0.00  0.00    +0.002 C 
ATOM      7  C   UNL     1      -5.759   1.226  25.635  0.00  0.00    +0.000 C 
ATOM      8  C   UNL     1      -5.367   0.551  25.368  0.00  0.00    +0.002 C 
ATOM      9  C   UNL     1      -4.975  -0.123  25.102  0.00  0.00    +0.022 C 
ATOM     10  C   UNL     1      -4.286  -0.050  24.652  0.00  0.00    +0.096 C 
ATOM     20  C   UNL     1      -3.991   0.698  24.470  0.00  0.00    +0.022 C 
ATOM     21  C   UNL     1      -3.303   0.772  24.021  0.00  0.00    +0.002 C 
ATOM     22  C   UNL     1      -4.383   1.374  24.737  0.00  0.00    +0.032 C 
ATOM     23  C   UNL     1      -4.088   2.122  24.555  0.00  0.00    +0.152 C 
ATOM     24  O   UNL     1      -3.400   2.195  24.106  0.00  0.00    -0.223 OA
ENDROOT
BRANCH  10  11
ATOM     11  N   UNL     1      -3.894  -0.725  24.385  0.00  0.00    -0.202 NA
ATOM     12  C   UNL     1      -3.644  -1.297  24.923  0.00  0.00    +0.284 C 
ATOM     13  O   UNL     1      -3.786  -1.195  25.731  0.00  0.00    -0.267 OA
BRANCH  12  14
ATOM     14  C   UNL     1      -3.252  -1.972  24.656  0.00  0.00    +0.155 A 
ATOM     15  C   UNL     1      -3.683  -2.621  24.388  0.00  0.00    +0.123 A 
ATOM     16  N   UNL     1      -3.291  -3.297  24.121  0.00  0.00    -0.239 NA
ATOM     17  C   UNL     1      -2.466  -3.322  24.123  0.00  0.00    +0.120 A 
ATOM     18  C   UNL     1      -2.034  -2.672  24.392  0.00  0.00    +0.120 A 
ATOM     19  N   UNL     1      -2.427  -1.997  24.658  0.00  0.00    -0.236 NA
ENDBRANCH  12  14
ENDBRANCH  10  11
BRANCH   3   2
ATOM      1  C   UNL     1      -4.410   3.920  23.941  0.00  0.00    +0.010 C 
ATOM      2  C   UNL     1      -4.185   3.545  24.641  0.00  0.00    +0.079 C 
BRANCH   2  25
ATOM     25  C   UNL     1      -3.664   3.919  25.159  0.00  0.00    +0.226 C 
ATOM     26  O   UNL     1      -3.780   3.861  25.975  0.00  0.00    -0.275 OA
ATOM     27  N   UNL     1      -3.026   4.352  24.863  0.00  0.00    -0.274 N 
ATOM     28  C   UNL     1      -2.910   4.409  24.048  0.00  0.00    +0.115 C 
BRANCH  27  29
ATOM     29  C   UNL     1      -2.505   4.726  25.381  0.00  0.00    +0.120 C 
BRANCH  29  30
ATOM     30  C   UNL     1      -1.700   4.756  25.206  0.00  0.00    -0.002 A 
ATOM     31  C   UNL     1      -1.220   4.101  25.351  0.00  0.00    -0.003 A 
ATOM     32  C   UNL     1      -0.415   4.132  25.176  0.00  0.00    -0.000 A 
ATOM     33  C   UNL     1      -0.088   4.819  24.857  0.00  0.00    -0.000 A 
ATOM     34  C   UNL     1      -0.568   5.475  24.712  0.00  0.00    -0.000 A 
ATOM     35  C   UNL     1      -1.374   5.444  24.887  0.00  0.00    -0.003 A 
ENDBRANCH  29  30
ENDBRANCH  27  29
ENDBRANCH   2  25
ENDBRANCH   3   2
TORSDOF 6
ENDMDL
MODEL 2
REMARK VINA RESULT:     -11.3      0.882      5.453
REMARK  Name = 
REMARK  6 active torsions:
REMARK  status: ('A' for Active; 'I' for Inactive)
REMARK    1  A    between atoms: C_2  and  C_3
REMARK    2  A    between atoms: C_2  and  C_25
REMARK    3  A    between atoms: C_10  and  N_11
REMARK    4  A    between atoms: C_12  and  C_14
REMARK    5  A    between atoms: N_27  and  C_29
REMARK    6  A    between atoms: C_29  and  C_30
REMARK                            x       y       z     vdW  Elec       q    Type
REMARK                         _______ _______ _______ _____ _____    ______ ____
ROOT
ATOM      3  C   UNL     1      -4.680   0.719  24.842  0.00  0.00    +0.039 C 
ATOM      4  C   UNL     1      -5.327   0.990  25.278  0.00  0.00    +0.003 C 
ATOM      5  C   UNL     1      -5.359   1.777  25.522  0.00  0.00    +0.000 C 
ATOM      6  C   UNL     1      -4.746   2.293  25.332  0.00  0.00    +0.002 C 
ATOM      7  C   UNL     1      -5.391   2.563  25.767  0.00  0.00    +0.000 C 
ATOM      8  C   UNL     1      -4.777   3.081  25.576  0.00  0.00    +0.002 C 
ATOM      9  C   UNL     1      -4.164   3.597  25.385  0.00  0.00    +0.022 C 
ATOM     10  C   UNL     1      -3.516   3.326  24.950  0.00  0.00    +0.096 C 
ATOM     20  C   UNL     1      -3.484   2.539  24.705  0.00  0.00    +0.022 C 
ATOM     21  C   UNL     1      -2.838   2.269  24.270  0.00  0.00    +0.002 C 
ATOM     22  C   UNL     1      -4.098   2.022  24.896  0.00  0.00    +0.032 C 
ATOM     23  C   UNL     1      -4.067   1.235  24.651  0.00  0.00    +0.152 C 
ATOM     24  O   UNL     1      -3.420   0.965  24.216  0.00  0.00    -0.223 OA
ENDROOT
BRANCH  10  11
ATOM     11  N   UNL     1      -2.902   3.843  24.759  0.00  0.00    -0.202 NA
ATOM     12  C   UNL     1      -2.440   4.173  25.356  0.00  0.00    +0.284 C 
ATOM     13  O   UNL     1      -2.591   3.986  26.147  0.00  0.00    -0.267 OA
BRANCH  12  14
ATOM     14  C   UNL     1      -1.826   4.691  25.166  0.00  0.00    +0.155 A 
ATOM     15  C   UNL     1      -1.965   5.502  25.131  0.00  0.00    +0.123 A 
ATOM     16  N   UNL     1      -1.351   6.020  24.941  0.00  0.00    -0.239 NA
ATOM     17  C   UNL     1      -0.597   5.724  24.785  0.00  0.00    +0.120 A 
ATOM     18  C   UNL     1      -0.457   4.911  24.820  0.00  0.00    +0.120 A 
ATOM     19  N   UNL     1      -1.072   4.395  25.010  0.00  0.00    -0.236 NA
ENDBRANCH  12  14
ENDBRANCH  10  11
BRANCH   3   2
ATOM      1  C   UNL     1      -5.009  -0.298  23.892  0.00  0.00    +0.010 C 
ATOM      2  C   UNL     1      -4.649  -0.069  24.598  0.00  0.00    +0.079 C 
BRANCH   2  25
ATOM     25  C   UNL     1      -4.256  -0.628  25.060  0.00  0.00    +0.226 C 
ATOM     26  O   UNL     1      -4.177  -0.510  25.873  0.00  0.00    -0.275 OA
ATOM     27  N   UNL     1      -3.941  -1.306  24.709  0.00  0.00    -0.274 N 
ATOM     28  C   UNL     1      -4.020  -1.424  23.897  0.00  0.00    +0.115 C 
BRANCH  27  29
ATOM     29  C   UNL     1      -3.549  -1.864  25.171  0.00  0.00    +0.120 C 
BRANCH  29  30
ATOM     30  C   UNL     1      -2.813  -2.152  24.934  0.00  0.00    -0.002 A 
ATOM     31  C   UNL     1      -2.767  -2.799  24.423  0.00  0.00    -0.003 A 
ATOM     32  C   UNL     1      -2.031  -3.086  24.188  0.00  0.00    -0.000 A 
ATOM     33  C   UNL     1      -1.340  -2.727  24.462  0.00  0.00    -0.000 A 
ATOM     34  C   UNL     1      -1.386  -2.081  24.973  0.00  0.00    -0.000 A 
ATOM     35  C   UNL     1      -2.123  -1.793  25.209  0.00  0.00    -0.003 A 
ENDBRANCH  29  30
ENDBRANCH  27  29
ENDBRANCH   2  25
ENDBRANCH   3   2
TORSDOF 6
ENDMDL
MODEL 3
REMARK VINA RESULT:     -11.1      3.375      4.886
REMARK  Name = 
REMARK  6 active torsions:
REMARK  status: ('A' for Active; 'I' for Inactive)
REMARK    1  A    between atoms: C_2  and  C_3
REMARK    2  A    between atoms: C_2  and  C_25
REMARK    3  A    between atoms: C_10  and  N_11
REMARK    4  A    between atoms: C_12  and  C_14
REMARK    5  A    between atoms: N_27  and  C_29
REMARK    6  A    between atoms: C_29  and  C_30
REMARK                            x       y       z     vdW  Elec       q    Type
REMARK                         _______ _______ _______ _____ _____    ______ ____
ROOT
ATOM      3  C   UNL     1      -1.799   2.141  24.870  0.00  0.00    +0.039 C 
ATOM      4  C   UNL     1      -2.130   1.399  25.016  0.00  0.00    +0.003 C 
ATOM      5  C   UNL     1      -1.699   0.716  24.853  0.00  0.00    +0.000 C 
ATOM      6  C   UNL     1      -0.937   0.773  24.544  0.00  0.00    +0.002 C 
ATOM      7  C   UNL     1      -1.268   0.033  24.689  0.00  0.00    +0.000 C 
ATOM      8  C   UNL     1      -0.505   0.089  24.380  0.00  0.00    +0.002 C 
ATOM      9  C   UNL     1       0.257   0.146  24.071  0.00  0.00    +0.022 C 
ATOM     10  C   UNL     1       0.589   0.889  23.926  0.00  0.00    +0.096 C 
ATOM     20  C   UNL     1       0.158   1.572  24.089  0.00  0.00    +0.022 C 
ATOM     21  C   UNL     1       0.489   2.313  23.943  0.00  0.00    +0.002 C 
ATOM     22  C   UNL     1      -0.605   1.515  24.398  0.00  0.00    +0.032 C 
ATOM     23  C   UNL     1      -1.036   2.199  24.561  0.00  0.00    +0.152 C 
ATOM     24  O   UNL     1      -0.705   2.940  24.416  0.00  0.00    -0.223 OA
ENDROOT
BRANCH  10  11
ATOM     11  N   UNL     1       1.352   0.945  23.616  0.00  0.00    -0.202 NA
ATOM     12  C   UNL     1       1.631   0.368  23.098  0.00  0.00    +0.284 C 
ATOM     13  O   UNL     1       1.147  -0.267  22.888  0.00  0.00    -0.267 OA
BRANCH  12  14
ATOM     14  C   UNL     1       2.394   0.425  22.789  0.00  0.00    +0.155 A 
ATOM     15  C   UNL     1       2.567   0.096  22.053  0.00  0.00    +0.123 A 
ATOM     16  N   UNL     1       3.330   0.153  21.744  0.00  0.00    -0.239 NA
ATOM     17  C   UNL     1       3.921   0.539  22.172  0.00  0.00    +0.120 A 
ATOM     18  C   UNL     1       3.748   0.869  22.909  0.00  0.00    +0.120 A 
ATOM     19  N   UNL     1       2.985   0.812  23.217  0.00  0.00    -0.236 NA
ENDBRANCH  12  14
ENDBRANCH  10  11
BRANCH   3   2
ATOM      1  C   UNL     1      -1.933   3.387  25.561  0.00  0.00    +0.010 C 
ATOM      2  C   UNL     1      -2.231   2.825  25.034  0.00  0.00    +0.079 C 
BRANCH   2  25
ATOM     25  C   UNL     1      -2.961   2.948  24.671  0.00  0.00    +0.226 C 
ATOM     26  O   UNL     1      -3.028   2.893  23.850  0.00  0.00    -0.275 OA
ATOM     27  N   UNL     1      -3.625   3.125  25.128  0.00  0.00    -0.274 N 
ATOM     28  C   UNL     1      -3.557   3.179  25.949  0.00  0.00    +0.115 C 
BRANCH  27  29
ATOM     29  C   UNL     1      -4.355   3.247  24.766  0.00  0.00    +0.120 C 
BRANCH  29  30
ATOM     30  C   UNL     1      -5.026   2.857  25.045  0.00  0.00    -0.002 A 
ATOM     31  C   UNL     1      -5.317   2.198  24.643  0.00  0.00    -0.003 A 
ATOM     32  C   UNL     1      -5.987   1.808  24.923  0.00  0.00    -0.000 A 
ATOM     33  C   UNL     1      -6.367   2.076  25.604  0.00  0.00    -0.000 A 
ATOM     34  C   UNL     1      -6.076   2.735  26.006  0.00  0.00    -0.000 A 
ATOM     35  C   UNL     1      -5.404   3.126  25.726  0.00  0.00    -0.003 A 
ENDBRANCH  29  30
ENDBRANCH  27  29
ENDBRANCH   2  25
ENDBRANCH   3   2
TORSDOF 6
ENDMDL
MODEL 4
REMARK VINA RESULT:     -10.0      2.857      4.502
REMARK  Name = 
REMARK  6 active torsions:
REMARK  status: ('A' for Active; 'I' for Inactive)
REMARK    1  A    between atoms: C_2  and  C_3
REMARK    2  A    between atoms: C_2  and  C_25
REMARK    3  A    between atoms: C_10  and  N_11
REMARK    4  A    between atoms: C_12  and  C_14
REMARK    5  A    between atoms: N_27  and  C_29
REMARK    6  A    between atoms: C_29  and  C_30
REMARK                            x       y       z     vdW  Elec       q    Type
REMARK                         _______ _______ _______ _____ _____    ______ ____
ROOT
ATOM      3  C   UNL     1      -3.127  -0.141  24.569  0.00  0.00    +0.039 C 
ATOM      4  C   UNL     1      -3.048  -0.791  25.073  0.00  0.00    +0.003 C 
ATOM      5  C   UNL     1      -2.303  -1.112  25.217  0.00  0.00    +0.000 C 
ATOM      6  C   UNL     1      -1.636  -0.784  24.859  0.00  0.00    +0.002 C 
ATOM      7  C   UNL     1      -1.558  -1.433  25.362  0.00  0.00    +0.000 C 
ATOM      8  C   UNL     1      -0.890  -1.105  25.004  0.00  0.00    +0.002 C 
ATOM      9  C   UNL     1      -0.223  -0.778  24.646  0.00  0.00    +0.022 C 
ATOM     10  C   UNL     1      -0.302  -0.128  24.143  0.00  0.00    +0.096 C 
ATOM     20  C   UNL     1      -1.048   0.193  23.998  0.00  0.00    +0.022 C 
ATOM     21  C   UNL     1      -1.127   0.842  23.495  0.00  0.00    +0.002 C 
ATOM     22  C   UNL     1      -1.715  -0.134  24.356  0.00  0.00    +0.032 C 
ATOM     23  C   UNL     1      -2.461   0.186  24.211  0.00  0.00    +0.152 C 
ATOM     24  O   UNL     1      -2.540   0.835  23.708  0.00  0.00    -0.223 OA
ENDROOT
BRANCH  10  11
ATOM     11  N   UNL     1       0.365   0.199  23.785  0.00  0.00    -0.202 NA
ATOM     12  C   UNL     1       0.933  -0.291  23.442  0.00  0.00    +0.284 C 
ATOM     13  O   UNL     1       0.833  -1.111  23.458  0.00  0.00    -0.267 OA
BRANCH  12  14
ATOM     14  C   UNL     1       1.600   0.036  23.084  0.00  0.00    +0.155 A 
ATOM     15  C   UNL     1       1.852  -0.240  22.350  0.00  0.00    +0.123 A 
ATOM     16  N   UNL     1       2.520   0.087  21.992  0.00  0.00    -0.239 NA
ATOM     17  C   UNL     1       2.935   0.692  22.370  0.00  0.00    +0.120 A 
ATOM     18  C   UNL     1       2.683   0.969  23.106  0.00  0.00    +0.120 A 
ATOM     19  N   UNL     1       2.016   0.640  23.462  0.00  0.00    -0.236 NA
ENDBRANCH  12  14
ENDBRANCH  10  11
BRANCH   3   2
ATOM      1  C   UNL     1      -4.203   0.137  23.669  0.00  0.00    +0.010 C 
ATOM      2  C   UNL     1      -3.874   0.180  24.424  0.00  0.00    +0.079 C 
BRANCH   2  25
ATOM     25  C   UNL     1      -4.291   0.544  25.036  0.00  0.00    +0.226 C 
ATOM     26  O   UNL     1      -4.348   0.177  25.773  0.00  0.00    -0.275 OA
ATOM     27  N   UNL     1      -4.652   1.276  24.911  0.00  0.00    -0.274 N 
ATOM     28  C   UNL     1      -4.595   1.643  24.174  0.00  0.00    +0.115 C 
BRANCH  27  29
ATOM     29  C   UNL     1      -5.069   1.640  25.521  0.00  0.00    +0.120 C 
BRANCH  29  30
ATOM     30  C   UNL     1      -5.098   2.463  25.568  0.00  0.00    -0.002 A 
ATOM     31  C   UNL     1      -5.804   2.860  25.413  0.00  0.00    -0.003 A 
ATOM     32  C   UNL     1      -5.833   3.683  25.460  0.00  0.00    -0.000 A 
ATOM     33  C   UNL     1      -5.156   4.109  25.662  0.00  0.00    -0.000 A 
ATOM     34  C   UNL     1      -4.450   3.712  25.817  0.00  0.00    -0.000 A 
ATOM     35  C   UNL     1      -4.421   2.888  25.770  0.00  0.00    -0.003 A 
ENDBRANCH  29  30
ENDBRANCH  27  29
ENDBRANCH   2  25
ENDBRANCH   3   2
TORSDOF 6
ENDMDL
MODEL 5
REMARK VINA RESULT:     -10.0      3.640      5.195
REMARK  Name = 
REMARK  6 active torsions:
REMARK  status: ('A' for Active; 'I' for Inactive)
REMARK    1  A    between atoms: C_2  and  C_3
REMARK    2  A    between atoms: C_2  and  C_25
REMARK    3  A    between atoms: C_10  and  N_11
REMARK    4  A    between atoms: C_12  and  C_14
REMARK    5  A    between atoms: N_27  and  C_29
REMARK    6  A    between atoms: C_29  and  C_30
REMARK                            x       y       z     vdW  Elec       q    Type
REMARK                         _______ _______ _______ _____ _____    ______ ____
ROOT
ATOM      3  C   UNL     1      -0.201   0.448  23.932  0.00  0.00    +0.039 C 
ATOM      4  C   UNL     1      -0.204  -0.343  24.169  0.00  0.00    +0.003 C 
ATOM      5  C   UNL     1      -0.904  -0.691  24.432  0.00  0.00    +0.000 C 
ATOM      6  C   UNL     1      -1.600  -0.250  24.459  0.00  0.00    +0.002 C 
ATOM      7  C   UNL     1      -1.603  -1.040  24.694  0.00  0.00    +0.000 C 
ATOM      8  C   UNL     1      -2.300  -0.599  24.722  0.00  0.00    +0.002 C 
ATOM      9  C   UNL     1      -2.996  -0.157  24.748  0.00  0.00    +0.022 C 
ATOM     10  C   UNL     1      -2.992   0.634  24.512  0.00  0.00    +0.096 C 
ATOM     20  C   UNL     1      -2.293   0.982  24.249  0.00  0.00    +0.022 C 
ATOM     21  C   UNL     1      -2.289   1.773  24.013  0.00  0.00    +0.002 C 
ATOM     22  C   UNL     1      -1.596   0.541  24.222  0.00  0.00    +0.032 C 
ATOM     23  C   UNL     1      -0.897   0.890  23.959  0.00  0.00    +0.152 C 
ATOM     24  O   UNL     1      -0.893   1.680  23.723  0.00  0.00    -0.223 OA
ENDROOT
BRANCH  10  11
ATOM     11  N   UNL     1      -3.689   1.075  24.539  0.00  0.00    -0.202 NA
ATOM     12  C   UNL     1      -4.263   0.906  25.106  0.00  0.00    +0.284 C 
ATOM     13  O   UNL     1      -4.141   0.294  25.647  0.00  0.00    -0.267 OA
BRANCH  12  14
ATOM     14  C   UNL     1      -4.960   1.347  25.133  0.00  0.00    +0.155 A 
ATOM     15  C   UNL     1      -5.631   1.085  24.732  0.00  0.00    +0.123 A 
ATOM     16  N   UNL     1      -6.328   1.526  24.759  0.00  0.00    -0.239 NA
ATOM     17  C   UNL     1      -6.353   2.230  25.188  0.00  0.00    +0.120 A 
ATOM     18  C   UNL     1      -5.681   2.493  25.589  0.00  0.00    +0.120 A 
ATOM     19  N   UNL     1      -4.985   2.051  25.562  0.00  0.00    -0.236 NA
ENDBRANCH  12  14
ENDBRANCH  10  11
BRANCH   3   2
ATOM      1  C   UNL     1       0.691   1.566  23.899  0.00  0.00    +0.010 C 
ATOM      2  C   UNL     1       0.500   0.797  23.669  0.00  0.00    +0.079 C 
BRANCH   2  25
ATOM     25  C   UNL     1       1.009   0.376  23.176  0.00  0.00    +0.226 C 
ATOM     26  O   UNL     1       0.713  -0.225  22.692  0.00  0.00    -0.275 OA
ATOM     27  N   UNL     1       1.815   0.554  23.165  0.00  0.00    -0.274 N 
ATOM     28  C   UNL     1       2.110   1.154  23.648  0.00  0.00    +0.115 C 
BRANCH  27  29
ATOM     29  C   UNL     1       2.324   0.133  22.672  0.00  0.00    +0.120 C 
BRANCH  29  30
ATOM     30  C   UNL     1       3.138   0.155  22.803  0.00  0.00    -0.002 A 
ATOM     31  C   UNL     1       3.589   0.776  22.501  0.00  0.00    -0.003 A 
ATOM     32  C   UNL     1       4.402   0.797  22.633  0.00  0.00    -0.000 A 
ATOM     33  C   UNL     1       4.766   0.198  23.067  0.00  0.00    -0.000 A 
ATOM     34  C   UNL     1       4.315  -0.424  23.369  0.00  0.00    -0.000 A 
ATOM     35  C   UNL     1       3.501  -0.445  23.238  0.00  0.00    -0.003 A 
ENDBRANCH  29  30
ENDBRANCH  27  29
ENDBRANCH   2  25
ENDBRANCH   3   2
TORSDOF 6
ENDMDL
MODEL 6
REMARK VINA RESULT:      -9.5      1.818      5.789
REMARK  Name = 
REMARK  6 active torsions:
REMARK  status: ('A' for Active; 'I' for Inactive)
REMARK    1  A    between atoms: C_2  and  C_3
REMARK    2  A    between atoms: C_2  and  C_25
REMARK    3  A    between atoms: C_10  and  N_11
REMARK    4  A    between atoms: C_12  and  C_14
REMARK    5  A    between atoms: N_27  and  C_29
REMARK    6  A    between atoms: C_29  and  C_30
REMARK                            x       y       z     vdW  Elec       q    Type
REMARK                         _______ _______ _______ _____ _____    ______ ____
ROOT
ATOM      3  C   UNL     1      -0.766   0.995  24.846  0.00  0.00    +0.039 C 
ATOM      4  C   UNL     1      -0.206   1.436  25.262  0.00  0.00    +0.003 C 
ATOM      5  C   UNL     1      -0.406   2.177  25.565  0.00  0.00    +0.000 C 
ATOM      6  C   UNL     1      -1.166   2.476  25.452  0.00  0.00    +0.002 C 
ATOM      7  C   UNL     1      -0.606   2.917  25.867  0.00  0.00    +0.000 C 
ATOM      8  C   UNL     1      -1.366   3.217  25.755  0.00  0.00    +0.002 C 
ATOM      9  C   UNL     1      -2.126   3.517  25.642  0.00  0.00    +0.022 C 
ATOM     10  C   UNL     1      -2.687   3.076  25.226  0.00  0.00    +0.096 C 
ATOM     20  C   UNL     1      -2.486   2.336  24.923  0.00  0.00    +0.022 C 
ATOM     21  C   UNL     1      -3.046   1.895  24.508  0.00  0.00    +0.002 C 
ATOM     22  C   UNL     1      -1.726   2.035  25.036  0.00  0.00    +0.032 C 
ATOM     23  C   UNL     1      -1.526   1.295  24.734  0.00  0.00    +0.152 C 
ATOM     24  O   UNL     1      -2.086   0.854  24.318  0.00  0.00    -0.223 OA
ENDROOT
BRANCH  10  11
ATOM     11  N   UNL     1      -3.447   3.376  25.113  0.00  0.00    -0.202 NA
ATOM     12  C   UNL     1      -3.910   3.581  25.764  0.00  0.00    +0.284 C 
ATOM     13  O   UNL     1      -3.614   3.486  26.528  0.00  0.00    -0.267 OA
BRANCH  12  14
ATOM     14  C   UNL     1      -4.671   3.882  25.651  0.00  0.00    +0.155 A 
ATOM     15  C   UNL     1      -5.329   3.418  25.829  0.00  0.00    +0.123 A 
ATOM     16  N   UNL     1      -6.089   3.719  25.717  0.00  0.00    -0.239 NA
ATOM     17  C   UNL     1      -6.190   4.484  25.426  0.00  0.00    +0.120 A 
ATOM     18  C   UNL     1      -5.531   4.949  25.247  0.00  0.00    +0.120 A 
ATOM     19  N   UNL     1      -4.772   4.647  25.360  0.00  0.00    -0.236 NA
ENDBRANCH  12  14
ENDBRANCH  10  11
BRANCH   3   2
ATOM      1  C   UNL     1      -0.177   0.195  23.818  0.00  0.00    +0.010 C 
ATOM      2  C   UNL     1      -0.565   0.254  24.544  0.00  0.00    +0.079 C 
BRANCH   2  25
ATOM     25  C   UNL     1      -0.753  -0.429  24.967  0.00  0.00    +0.226 C 
ATOM     26  O   UNL     1      -0.686  -0.435  25.790  0.00  0.00    -0.275 OA
ATOM     27  N   UNL     1      -1.007  -1.106  24.569  0.00  0.00    -0.274 N 
ATOM     28  C   UNL     1      -1.074  -1.098  23.747  0.00  0.00    +0.115 C 
BRANCH  27  29
ATOM     29  C   UNL     1      -1.194  -1.787  24.992  0.00  0.00    +0.120 C 
BRANCH  29  30
ATOM     30  C   UNL     1      -1.920  -2.161  24.873  0.00  0.00    -0.002 A 
ATOM     31  C   UNL     1      -2.012  -2.694  24.250  0.00  0.00    -0.003 A 
ATOM     32  C   UNL     1      -2.737  -3.068  24.131  0.00  0.00    -0.000 A 
ATOM     33  C   UNL     1      -3.371  -2.909  24.635  0.00  0.00    -0.000 A 
ATOM     34  C   UNL     1      -3.279  -2.376  25.258  0.00  0.00    -0.000 A 
ATOM     35  C   UNL     1      -2.553  -2.002  25.377  0.00  0.00    -0.003 A 
ENDBRANCH  29  30
ENDBRANCH  27  29
ENDBRANCH   2  25
ENDBRANCH   3   2
TORSDOF 6
ENDMDL
MODEL 7
REMARK VINA RESULT:      -9.5      3.227      5.589
REMARK  Name = 
REMARK  6 active torsions:
REMARK  status: ('A' for Active; 'I' for Inactive)
REMARK    1  A    between atoms: C_2  and  C_3
REMARK    2  A    between atoms: C_2  and  C_25
REMARK    3  A    between atoms: C_10  and  N_11
REMARK    4  A    between atoms: C_12  and  C_14
REMARK    5  A    between atoms: N_27  and  C_29
REMARK    6  A    between atoms: C_29  and  C_30
REMARK                            x       y       z     vdW  Elec       q    Type
REMARK                         _______ _______ _______ _____ _____    ______ ____
ROOT
ATOM      3  C   UNL     1      -2.232   1.482  24.472  0.00  0.00    +0.039 C 
ATOM      4  C   UNL     1      -2.093   2.062  25.043  0.00  0.00    +0.003 C 
ATOM      5  C   UNL     1      -1.321   2.283  25.227  0.00  0.00    +0.000 C 
ATOM      6  C   UNL     1      -0.686   1.925  24.841  0.00  0.00    +0.002 C 
ATOM      7  C   UNL     1      -0.548   2.504  25.411  0.00  0.00    +0.000 C 
ATOM      8  C   UNL     1       0.087   2.146  25.025  0.00  0.00    +0.002 C 
ATOM      9  C   UNL     1       0.722   1.788  24.639  0.00  0.00    +0.022 C 
ATOM     10  C   UNL     1       0.583   1.208  24.067  0.00  0.00    +0.096 C 
ATOM     20  C   UNL     1      -0.190   0.987  23.883  0.00  0.00    +0.022 C 
ATOM     21  C   UNL     1      -0.328   0.407  23.313  0.00  0.00    +0.002 C 
ATOM     22  C   UNL     1      -0.825   1.345  24.270  0.00  0.00    +0.032 C 
ATOM     23  C   UNL     1      -1.597   1.124  24.086  0.00  0.00    +0.152 C 
ATOM     24  O   UNL     1      -1.736   0.544  23.515  0.00  0.00    -0.223 OA
ENDROOT
BRANCH  10  11
ATOM     11  N   UNL     1       1.218   0.850  23.681  0.00  0.00    -0.202 NA
ATOM     12  C   UNL     1       1.874   1.298  23.462  0.00  0.00    +0.284 C 
ATOM     13  O   UNL     1       1.896   2.107  23.630  0.00  0.00    -0.267 OA
BRANCH  12  14
ATOM     14  C   UNL     1       2.510   0.940  23.076  0.00  0.00    +0.155 A 
ATOM     15  C   UNL     1       2.388   0.265  22.619  0.00  0.00    +0.123 A 
ATOM     16  N   UNL     1       3.023  -0.093  22.233  0.00  0.00    -0.239 NA
ATOM     17  C   UNL     1       3.781   0.225  22.305  0.00  0.00    +0.120 A 
ATOM     18  C   UNL     1       3.904   0.901  22.763  0.00  0.00    +0.120 A 
ATOM     19  N   UNL     1       3.268   1.258  23.148  0.00  0.00    -0.236 NA
ENDBRANCH  12  14
ENDBRANCH  10  11
BRANCH   3   2
ATOM      1  C   UNL     1      -3.397   1.615  23.654  0.00  0.00    +0.010 C 
ATOM      2  C   UNL     1      -3.005   1.261  24.288  0.00  0.00    +0.079 C 
BRANCH   2  25
ATOM     25  C   UNL     1      -3.388   0.686  24.739  0.00  0.00    +0.226 C 
ATOM     26  O   UNL     1      -3.352   0.716  25.563  0.00  0.00    -0.275 OA
ATOM     27  N   UNL     1      -3.807   0.080  24.366  0.00  0.00    -0.274 N 
ATOM     28  C   UNL     1      -3.842   0.050  23.543  0.00  0.00    +0.115 C 
BRANCH  27  29
ATOM     29  C   UNL     1      -4.189  -0.495  24.817  0.00  0.00    +0.120 C 
BRANCH  29  30
ATOM     30  C   UNL     1      -4.044  -1.294  24.676  0.00  0.00    -0.002 A 
ATOM     31  C   UNL     1      -4.357  -1.659  24.006  0.00  0.00    -0.003 A 
ATOM     32  C   UNL     1      -4.212  -2.458  23.865  0.00  0.00    -0.000 A 
ATOM     33  C   UNL     1      -3.752  -2.894  24.395  0.00  0.00    -0.000 A 
ATOM     34  C   UNL     1      -3.439  -2.529  25.065  0.00  0.00    -0.000 A 
ATOM     35  C   UNL     1      -3.584  -1.729  25.206  0.00  0.00    -0.003 A 
ENDBRANCH  29  30
ENDBRANCH  27  29
ENDBRANCH   2  25
ENDBRANCH   3   2
TORSDOF 6
ENDMDL
