MODEL 1
REMARK VINA RESULT:     -12.7      0.000      0.000
REMARK  Name = 
REMARK  3 active torsions:
REMARK  status: ('A' for Active; 'I' for Inactive)
REMARK    1  A    between atoms: C_7  and  C_8
REMARK    2  A    between atoms: C_8  and  N_9
REMARK    3  A    between atoms: N_15  and  C_16
REMARK                            x       y       z     vdW  Elec       q    Type
REMARK                         _______ _______ _______ _____ _____    ______ ____
ROOT
ATOM      9  N   UNL     1      -4.120   0.486  24.541  0.00  0.00    -0.266 NA
ATOM     10  C   UNL     1      -4.703   0.873  24.978  0.00  0.00    +0.094 C 
ATOM     11  C   UNL     1      -4.573   1.639  25.252  0.00  0.00    +0.112 C 
ATOM     12  N   UNL     1      -3.859   2.021  25.090  0.00  0.00    -0.261 N 
ATOM     13  C   UNL     1      -3.276   1.634  24.652  0.00  0.00    +0.113 C 
ATOM     14  C   UNL     1      -2.633   2.145  24.578  0.00  0.00    +0.116 C 
ATOM     15  N   UNL     1      -2.818   2.847  24.969  0.00  0.00    -0.264 N 
ATOM     22  C   UNL     1      -3.576   2.770  25.285  0.00  0.00    +0.307 C 
ATOM     23  O   UNL     1      -3.981   3.342  25.721  0.00  0.00    -0.252 OA
ATOM     24  C   UNL     1      -3.406   0.867  24.378  0.00  0.00    +0.094 C 
ENDROOT
BRANCH  15  16
ATOM     16  C   UNL     1      -2.331   3.510  25.034  0.00  0.00    +0.077 C 
ATOM     17  C   UNL     1      -1.619   3.460  25.450  0.00  0.00    +0.020 C 
ATOM     18  C   UNL     1      -1.132   4.123  25.514  0.00  0.00    +0.002 C 
ATOM     19  C   UNL     1      -1.357   4.835  25.162  0.00  0.00    +0.000 C 
ATOM     20  C   UNL     1      -2.067   4.885  24.747  0.00  0.00    +0.002 C 
ATOM     21  C   UNL     1      -2.554   4.222  24.682  0.00  0.00    +0.020 C 
ENDBRANCH  15  16
BRANCH   9   8
ATOM      8  C   UNL     1      -4.250  -0.281  24.267  0.00  0.00    +0.099 C 
BRANCH   8   7
ATOM      1  C   UNL     1      -4.181  -1.769  23.556  0.00  0.00    +0.031 C 
ATOM      2  C   UNL     1      -3.916  -1.669  24.331  0.00  0.00    -0.024 A 
ATOM      3  C   UNL     1      -3.616  -2.313  24.751  0.00  0.00    -0.005 A 
ATOM      4  C   UNL     1      -3.351  -2.213  25.526  0.00  0.00    -0.000 A 
ATOM      5  C   UNL     1      -3.386  -1.470  25.881  0.00  0.00    -0.000 A 
ATOM      6  C   UNL     1      -3.685  -0.825  25.462  0.00  0.00    -0.003 A 
ATOM      7  C   UNL     1      -3.950  -0.925  24.687  0.00  0.00    -0.010 A 
ENDBRANCH   8   7
ENDBRANCH   9   8
TORSDOF 3
ENDMDL
MODEL 2
REMARK VINA RESULT:     -12.4      1.652      2.033
REMARK  Name = 
REMARK  3 active torsions:
REMARK  status: ('A' for Active; 'I' for Inactive)
REMARK    1  A    between atoms: C_7  and  C_8
REMARK    2  A    between atoms: C_8  and  N_9
REMARK    3  A    between atoms: N_15  and  C_16
REMARK                            x       y       z     vdW  Elec       q    Type
REMARK                         _______ _______ _______ _____ _____    ______ ____
ROOT
ATOM      9  N   UNL     1      -1.529  -0.037  24.770  0.00  0.00    -0.266 NA
ATOM     10  C   UNL     1      -1.064  -0.032  25.451  0.00  0.00    +0.094 C 
ATOM     11  C   UNL     1      -0.844   0.684  25.795  0.00  0.00    +0.112 C 
ATOM     12  N   UNL     1      -1.089   1.396  25.459  0.00  0.00    -0.261 N 
ATOM     13  C   UNL     1      -1.553   1.392  24.777  0.00  0.00    +0.113 C 
ATOM     14  C   UNL     1      -1.710   2.174  24.570  0.00  0.00    +0.116 C 
ATOM     15  N   UNL     1      -1.343   2.663  25.124  0.00  0.00    -0.264 N 
ATOM     22  C   UNL     1      -0.959   2.182  25.672  0.00  0.00    +0.307 C 
ATOM     23  O   UNL     1      -0.522   2.441  26.322  0.00  0.00    -0.252 OA
ATOM     24  C   UNL     1      -1.774   0.675  24.432  0.00  0.00    +0.094 C 
ENDROOT
BRANCH  15  16
ATOM     16  C   UNL     1      -1.357   3.488  25.128  0.00  0.00    +0.077 C 
ATOM     17  C   UNL     1      -0.746   3.913  24.772  0.00  0.00    +0.020 C 
ATOM     18  C   UNL     1      -0.760   4.738  24.776  0.00  0.00    +0.002 C 
ATOM     19  C   UNL     1      -1.386   5.137  25.136  0.00  0.00    +0.000 C 
ATOM     20  C   UNL     1      -1.996   4.713  25.492  0.00  0.00    +0.002 C 
ATOM     21  C   UNL     1      -1.982   3.888  25.488  0.00  0.00    +0.020 C 
ENDBRANCH  15  16
BRANCH   9   8
ATOM      8  C   UNL     1      -1.749  -0.754  24.425  0.00  0.00    +0.099 C 
BRANCH   8   7
ATOM      1  C   UNL     1      -1.765  -2.402  24.349  0.00  0.00    +0.031 C 
ATOM      2  C   UNL     1      -2.400  -1.999  24.686  0.00  0.00    -0.024 A 
ATOM      3  C   UNL     1      -3.044  -2.419  24.985  0.00  0.00    -0.005 A 
ATOM      4  C   UNL     1      -3.680  -2.016  25.321  0.00  0.00    -0.000 A 
ATOM      5  C   UNL     1      -3.672  -1.192  25.359  0.00  0.00    -0.000 A 
ATOM      6  C   UNL     1      -3.029  -0.771  25.061  0.00  0.00    -0.003 A 
ATOM      7  C   UNL     1      -2.393  -1.174  24.724  0.00  0.00    -0.010 A 
ENDBRANCH   8   7
ENDBRANCH   9   8
TORSDOF 3
ENDMDL
MODEL 3
REMARK VINA RESULT:     -12.3      1.738      5.202
REMARK  Name = 
REMARK  3 active torsions:
REMARK  status: ('A' for Active; 'I' for Inactive)
REMARK    1  A    between atoms: C_7  and  C_8
REMARK    2  A    between atoms: C_8  and  N_9
REMARK    3  A    between atoms: N_15  and  C_16
REMARK                            x       y       z     vdW  Elec       q    Type
REMARK                         _______ _______ _______ _____ _____    ______ ____
ROOT
ATOM      9  N   UNL     1      -1.180   2.124  24.825  0.00  0.00    -0.266 NA
ATOM     10  C   UNL     1      -0.712   1.846  25.445  0.00  0.00    +0.094 C 
ATOM     11  C   UNL     1      -0.800   1.071  25.712  0.00  0.00    +0.112 C 
ATOM     12  N   UNL     1      -1.355   0.573  25.359  0.00  0.00    -0.261 N 
ATOM     13  C   UNL     1      -1.823   0.851  24.739  0.00  0.00    +0.113 C 
ATOM     14  C   UNL     1      -2.320   0.239  24.500  0.00  0.00    +0.116 C 
ATOM     15  N   UNL     1      -2.161  -0.418  24.972  0.00  0.00    -0.264 N 
ATOM     22  C   UNL     1      -1.564  -0.211  25.503  0.00  0.00    +0.307 C 
ATOM     23  O   UNL     1      -1.234  -0.703  26.077  0.00  0.00    -0.252 OA
ATOM     24  C   UNL     1      -1.735   1.627  24.471  0.00  0.00    +0.094 C 
ENDROOT
BRANCH  15  16
ATOM     16  C   UNL     1      -2.532  -1.153  24.922  0.00  0.00    +0.077 C 
ATOM     17  C   UNL     1      -3.262  -1.273  25.289  0.00  0.00    +0.020 C 
ATOM     18  C   UNL     1      -3.634  -2.008  25.240  0.00  0.00    +0.002 C 
ATOM     19  C   UNL     1      -3.275  -2.623  24.823  0.00  0.00    +0.000 C 
ATOM     20  C   UNL     1      -2.546  -2.504  24.456  0.00  0.00    +0.002 C 
ATOM     21  C   UNL     1      -2.175  -1.769  24.506  0.00  0.00    +0.020 C 
ENDBRANCH  15  16
BRANCH   9   8
ATOM      8  C   UNL     1      -1.092   2.900  24.558  0.00  0.00    +0.099 C 
BRANCH   8   7
ATOM      1  C   UNL     1      -0.465   4.427  24.535  0.00  0.00    +0.031 C 
ATOM      2  C   UNL     1      -1.175   4.278  24.927  0.00  0.00    -0.024 A 
ATOM      3  C   UNL     1      -1.573   4.892  25.308  0.00  0.00    -0.005 A 
ATOM      4  C   UNL     1      -2.283   4.744  25.700  0.00  0.00    -0.000 A 
ATOM      5  C   UNL     1      -2.596   3.982  25.712  0.00  0.00    -0.000 A 
ATOM      6  C   UNL     1      -2.200   3.366  25.331  0.00  0.00    -0.003 A 
ATOM      7  C   UNL     1      -1.489   3.515  24.939  0.00  0.00    -0.010 A 
ENDBRANCH   8   7
ENDBRANCH   9   8
TORSDOF 3
ENDMDL
MODEL 4
REMARK VINA RESULT:     -12.2      1.088      4.829
REMARK  Name = 
REMARK  3 active torsions:
REMARK  status: ('A' for Active; 'I' for Inactive)
REMARK    1  A    between atoms: C_7  and  C_8
REMARK    2  A    between atoms: C_8  and  N_9
REMARK    3  A    between atoms: N_15  and  C_16
REMARK                            x       y       z     vdW  Elec       q    Type
REMARK                         _______ _______ _______ _____ _____    ______ ____
ROOT
ATOM      9  N   UNL     1      -3.209   2.356  24.272  0.00  0.00    -0.266 NA
ATOM     10  C   UNL     1      -4.025   2.374  24.389  0.00  0.00    +0.094 C 
ATOM     11  C   UNL     1      -4.443   1.670  24.488  0.00  0.00    +0.112 C 
ATOM     12  N   UNL     1      -4.045   0.948  24.469  0.00  0.00    -0.261 N 
ATOM     13  C   UNL     1      -3.229   0.930  24.352  0.00  0.00    +0.113 C 
ATOM     14  C   UNL     1      -2.987   0.142  24.359  0.00  0.00    +0.116 C 
ATOM     15  N   UNL     1      -3.654  -0.328  24.481  0.00  0.00    -0.264 N 
ATOM     22  C   UNL     1      -4.307   0.170  24.549  0.00  0.00    +0.307 C 
ATOM     23  O   UNL     1      -5.088  -0.067  24.675  0.00  0.00    -0.252 OA
ATOM     24  C   UNL     1      -2.810   1.635  24.253  0.00  0.00    +0.094 C 
ENDROOT
BRANCH  15  16
ATOM     16  C   UNL     1      -3.666  -1.152  24.527  0.00  0.00    +0.077 C 
ATOM     17  C   UNL     1      -3.381  -1.532  25.203  0.00  0.00    +0.020 C 
ATOM     18  C   UNL     1      -3.393  -2.355  25.249  0.00  0.00    +0.002 C 
ATOM     19  C   UNL     1      -3.688  -2.799  24.619  0.00  0.00    +0.000 C 
ATOM     20  C   UNL     1      -3.972  -2.420  23.944  0.00  0.00    +0.002 C 
ATOM     21  C   UNL     1      -3.961  -1.597  23.898  0.00  0.00    +0.020 C 
ENDBRANCH  15  16
BRANCH   9   8
ATOM      8  C   UNL     1      -2.790   3.061  24.174  0.00  0.00    +0.099 C 
BRANCH   8   7
ATOM      1  C   UNL     1      -1.264   3.670  24.320  0.00  0.00    +0.031 C 
ATOM      2  C   UNL     1      -1.826   3.821  24.905  0.00  0.00    -0.024 A 
ATOM      3  C   UNL     1      -1.626   4.277  25.563  0.00  0.00    -0.005 A 
ATOM      4  C   UNL     1      -2.188   4.428  26.147  0.00  0.00    -0.000 A 
ATOM      5  C   UNL     1      -2.951   4.123  26.074  0.00  0.00    -0.000 A 
ATOM      6  C   UNL     1      -3.153   3.668  25.416  0.00  0.00    -0.003 A 
ATOM      7  C   UNL     1      -2.590   3.517  24.832  0.00  0.00    -0.010 A 
ENDBRANCH   8   7
ENDBRANCH   9   8
TORSDOF 3
ENDMDL
MODEL 5
REMARK VINA RESULT:      -9.3     16.439     18.769
REMARK  Name = 
REMARK  3 active torsions:
REMARK  status: ('A' for Active; 'I' for Inactive)
REMARK    1  A    between atoms: C_7  and  C_8
REMARK    2  A    between atoms: C_8  and  N_9
REMARK    3  A    between atoms: N_15  and  C_16
REMARK                            x       y       z     vdW  Elec       q    Type
REMARK                         _______ _______ _______ _____ _____    ______ ____
ROOT
ATOM      9  N   UNL     1      12.269   7.192  20.059  0.00  0.00    -0.266 NA
ATOM     10  C   UNL     1      12.336   7.559  19.323  0.00  0.00    +0.094 C 
ATOM     11  C   UNL     1      13.073   7.625  18.961  0.00  0.00    +0.112 C 
ATOM     12  N   UNL     1      13.745   7.325  19.334  0.00  0.00    -0.261 N 
ATOM     13  C   UNL     1      13.679   6.958  20.070  0.00  0.00    +0.113 C 
ATOM     14  C   UNL     1      14.431   6.717  20.304  0.00  0.00    +0.116 C 
ATOM     15  N   UNL     1      14.964   6.934  19.713  0.00  0.00    -0.264 N 
ATOM     22  C   UNL     1      14.539   7.310  19.114  0.00  0.00    +0.307 C 
ATOM     23  O   UNL     1      14.855   7.617  18.416  0.00  0.00    -0.252 OA
ATOM     24  C   UNL     1      12.940   6.892  20.433  0.00  0.00    +0.094 C 
ENDROOT
BRANCH  15  16
ATOM     16  C   UNL     1      15.778   6.799  19.719  0.00  0.00    +0.077 C 
ATOM     17  C   UNL     1      16.097   6.179  19.277  0.00  0.00    +0.020 C 
ATOM     18  C   UNL     1      16.911   6.044  19.284  0.00  0.00    +0.002 C 
ATOM     19  C   UNL     1      17.405   6.529  19.733  0.00  0.00    +0.000 C 
ATOM     20  C   UNL     1      17.087   7.147  20.175  0.00  0.00    +0.002 C 
ATOM     21  C   UNL     1      16.273   7.282  20.168  0.00  0.00    +0.020 C 
ENDBRANCH  15  16
BRANCH   9   8
ATOM      8  C   UNL     1      11.530   7.125  20.421  0.00  0.00    +0.099 C 
BRANCH   8   7
ATOM      1  C   UNL     1      10.726   6.711  21.801  0.00  0.00    +0.031 C 
ATOM      2  C   UNL     1      10.869   7.505  21.630  0.00  0.00    -0.024 A 
ATOM      3  C   UNL     1      10.610   8.093  22.148  0.00  0.00    -0.005 A 
ATOM      4  C   UNL     1      10.753   8.887  21.977  0.00  0.00    -0.000 A 
ATOM      5  C   UNL     1      11.155   9.094  21.287  0.00  0.00    -0.000 A 
ATOM      6  C   UNL     1      11.414   8.507  20.768  0.00  0.00    -0.003 A 
ATOM      7  C   UNL     1      11.271   7.713  20.939  0.00  0.00    -0.010 A 
ENDBRANCH   8   7
ENDBRANCH   9   8
TORSDOF 3
ENDMDL
MODEL 6
REMARK VINA RESULT:      -9.3     16.658     19.063
REMARK  Name = 
REMARK  3 active torsions:
REMARK  status: ('A' for Active; 'I' for Inactive)
REMARK    1  A    between atoms: C_7  and  C_8
REMARK    2  A    between atoms: C_8  and  N_9
REMARK    3  A    between atoms: N_15  and  C_16
REMARK                            x       y       z     vdW  Elec       q    Type
REMARK                         _______ _______ _______ _____ _____    ______ ____
ROOT
ATOM      9  N   UNL     1      14.851   7.562  19.725  0.00  0.00    -0.266 NA
ATOM     10  C   UNL     1      14.430   7.503  19.018  0.00  0.00    +0.094 C 
ATOM     11  C   UNL     1      13.622   7.340  19.030  0.00  0.00    +0.112 C 
ATOM     12  N   UNL     1      13.233   7.235  19.750  0.00  0.00    -0.261 N 
ATOM     13  C   UNL     1      13.653   7.293  20.458  0.00  0.00    +0.113 C 
ATOM     14  C   UNL     1      13.126   7.164  21.079  0.00  0.00    +0.116 C 
ATOM     15  N   UNL     1      12.381   7.026  20.755  0.00  0.00    -0.264 N 
ATOM     22  C   UNL     1      12.447   7.070  19.935  0.00  0.00    +0.307 C 
ATOM     23  O   UNL     1      11.834   6.966  19.392  0.00  0.00    -0.252 OA
ATOM     24  C   UNL     1      14.463   7.457  20.446  0.00  0.00    +0.094 C 
ENDROOT
BRANCH  15  16
ATOM     16  C   UNL     1      11.689   6.871  21.179  0.00  0.00    +0.077 C 
ATOM     17  C   UNL     1      11.213   7.495  21.434  0.00  0.00    +0.020 C 
ATOM     18  C   UNL     1      10.522   7.340  21.857  0.00  0.00    +0.002 C 
ATOM     19  C   UNL     1      10.307   6.561  22.025  0.00  0.00    +0.000 C 
ATOM     20  C   UNL     1      10.783   5.938  21.770  0.00  0.00    +0.002 C 
ATOM     21  C   UNL     1      11.474   6.093  21.347  0.00  0.00    +0.020 C 
ENDBRANCH  15  16
BRANCH   9   8
ATOM      8  C   UNL     1      15.660   7.725  19.713  0.00  0.00    +0.099 C 
BRANCH   8   7
ATOM      1  C   UNL     1      16.974   7.668  20.709  0.00  0.00    +0.031 C 
ATOM      2  C   UNL     1      16.861   7.080  20.141  0.00  0.00    -0.024 A 
ATOM      3  C   UNL     1      17.405   6.464  20.071  0.00  0.00    -0.005 A 
ATOM      4  C   UNL     1      17.291   5.876  19.504  0.00  0.00    -0.000 A 
ATOM      5  C   UNL     1      16.634   5.904  19.007  0.00  0.00    -0.000 A 
ATOM      6  C   UNL     1      16.090   6.520  19.076  0.00  0.00    -0.003 A 
ATOM      7  C   UNL     1      16.203   7.108  19.643  0.00  0.00    -0.010 A 
ENDBRANCH   8   7
ENDBRANCH   9   8
TORSDOF 3
ENDMDL
