MODEL 1
REMARK VINA RESULT:      -9.4      0.000      0.000
REMARK  Name = 
REMARK  7 active torsions:
REMARK  status: ('A' for Active; 'I' for Inactive)
REMARK    1  A    between atoms: C_5  and  S_8
REMARK    2  A    between atoms: S_8  and  N_11
REMARK    3  A    between atoms: N_11  and  C_12
REMARK    4  A    between atoms: C_16  and  N_20
REMARK    5  A    between atoms: C_24  and  O_25
REMARK    6  A    between atoms: O_25  and  C_26
REMARK    7  A    between atoms: C_29  and  N_32
REMARK                            x       y       z     vdW  Elec       q    Type
REMARK                         _______ _______ _______ _____ _____    ______ ____
ROOT
ATOM     12  C   UNL     1      -3.479   0.806  24.751  0.00  0.00    +0.157 C 
ATOM     13  C   UNL     1      -3.612   0.085  24.375  0.00  0.00    +0.164 C 
ATOM     14  O   UNL     1      -2.909  -0.347  24.397  0.00  0.00    -0.350 OA
ATOM     15  C   UNL     1      -2.342   0.107  24.786  0.00  0.00    +0.169 C 
ATOM     16  C   UNL     1      -1.558   0.123  25.041  0.00  0.00    +0.170 C 
ATOM     17  C   UNL     1      -1.425   0.844  25.418  0.00  0.00    +0.169 C 
ATOM     18  O   UNL     1      -2.127   1.276  25.396  0.00  0.00    -0.350 OA
ATOM     19  C   UNL     1      -2.695   0.820  25.006  0.00  0.00    +0.164 C 
ENDROOT
BRANCH  16  20
ATOM     20  N   UNL     1      -1.003  -0.480  24.937  0.00  0.00    -0.180 N 
ATOM     21  N   UNL     1      -0.957  -1.178  25.375  0.00  0.00    -0.040 NA
ATOM     22  N   UNL     1      -0.323  -1.619  25.085  0.00  0.00    -0.020 NA
ATOM     23  N   UNL     1       0.023  -1.193  24.470  0.00  0.00    -0.071 NA
ATOM     24  C   UNL     1      -0.397  -0.489  24.378  0.00  0.00    +0.343 A 
BRANCH  24  25
ATOM     25  O   UNL     1      -0.238   0.102  23.824  0.00  0.00    -0.421 OA
BRANCH  25  26
ATOM     26  C   UNL     1       0.529   0.203  23.537  0.00  0.00    +0.149 A 
ATOM     27  C   UNL     1       0.829  -0.318  22.972  0.00  0.00    +0.039 A 
ATOM     28  C   UNL     1       1.595  -0.217  22.685  0.00  0.00    +0.022 A 
ATOM     29  C   UNL     1       2.062   0.405  22.962  0.00  0.00    +0.085 A 
ATOM     30  C   UNL     1       1.761   0.926  23.527  0.00  0.00    +0.022 A 
ATOM     31  C   UNL     1       0.994   0.824  23.814  0.00  0.00    +0.039 A 
BRANCH  29  32
ATOM     32  N   UNL     1       2.829   0.506  22.675  0.00  0.00    -0.208 N 
ATOM     33  C   UNL     1       3.119   0.218  21.959  0.00  0.00    +0.202 A 
ATOM     34  N   UNL     1       3.910   0.447  21.894  0.00  0.00    -0.200 NA
ATOM     35  C   UNL     1       4.106   0.876  22.571  0.00  0.00    +0.221 A 
ATOM     36  N   UNL     1       3.438   0.913  23.053  0.00  0.00    -0.141 NA
ENDBRANCH  29  32
ENDBRANCH  25  26
ENDBRANCH  24  25
ENDBRANCH  16  20
BRANCH  12  11
ATOM     11  N   UNL     1      -4.033   1.409  24.855  0.00  0.00    -0.074 NA
BRANCH  11   8
ATOM      8  S   UNL     1      -4.838   1.251  24.759  0.00  0.00    +0.077 S 
ATOM      9  O   UNL     1      -4.658   0.478  24.530  0.00  0.00    -0.152 OA
ATOM     10  O   UNL     1      -5.641   1.092  24.662  0.00  0.00    -0.152 OA
BRANCH   8   5
ATOM      1  C   UNL     1      -5.559   4.337  25.676  0.00  0.00    +0.031 C 
ATOM      2  C   UNL     1      -5.378   3.565  25.446  0.00  0.00    -0.022 A 
ATOM      3  C   UNL     1      -5.006   3.427  24.724  0.00  0.00    -0.003 A 
ATOM      4  C   UNL     1      -4.825   2.654  24.494  0.00  0.00    +0.020 A 
ATOM      5  C   UNL     1      -5.018   2.022  24.988  0.00  0.00    +0.124 A 
ATOM      6  C   UNL     1      -5.391   2.161  25.710  0.00  0.00    +0.020 A 
ATOM      7  C   UNL     1      -5.571   2.932  25.939  0.00  0.00    -0.003 A 
ENDBRANCH   8   5
ENDBRANCH  11   8
ENDBRANCH  12  11
TORSDOF 7
ENDMDL
MODEL 2
REMARK VINA RESULT:      -9.3      1.845      6.779
REMARK  Name = 
REMARK  7 active torsions:
REMARK  status: ('A' for Active; 'I' for Inactive)
REMARK    1  A    between atoms: C_5  and  S_8
REMARK    2  A    between atoms: S_8  and  N_11
REMARK    3  A    between atoms: N_11  and  C_12
REMARK    4  A    between atoms: C_16  and  N_20
REMARK    5  A    between atoms: C_24  and  O_25
REMARK    6  A    between atoms: O_25  and  C_26
REMARK    7  A    between atoms: C_29  and  N_32
REMARK                            x       y       z     vdW  Elec       q    Type
REMARK                         _______ _______ _______ _____ _____    ______ ____
ROOT
ATOM     12  C   UNL     1       1.069   0.099  23.323  0.00  0.00    +0.157 C 
ATOM     13  C   UNL     1       0.670  -0.578  23.072  0.00  0.00    +0.164 C 
ATOM     14  O   UNL     1      -0.036  -0.628  23.495  0.00  0.00    -0.350 OA
ATOM     15  C   UNL     1      -0.075   0.017  24.006  0.00  0.00    +0.169 C 
ATOM     16  C   UNL     1      -0.535   0.386  24.583  0.00  0.00    +0.170 C 
ATOM     17  C   UNL     1      -0.137   1.064  24.833  0.00  0.00    +0.169 C 
ATOM     18  O   UNL     1       0.570   1.114  24.411  0.00  0.00    -0.350 OA
ATOM     19  C   UNL     1       0.608   0.467  23.899  0.00  0.00    +0.164 C 
ENDROOT
BRANCH  16  20
ATOM     20  N   UNL     1      -1.266   0.123  24.861  0.00  0.00    -0.180 N 
ATOM     21  N   UNL     1      -1.409  -0.593  25.247  0.00  0.00    -0.040 NA
ATOM     22  N   UNL     1      -2.213  -0.629  25.426  0.00  0.00    -0.020 NA
ATOM     23  N   UNL     1      -2.567   0.064  25.152  0.00  0.00    -0.071 NA
ATOM     24  C   UNL     1      -1.981   0.528  24.803  0.00  0.00    +0.343 A 
BRANCH  24  25
ATOM     25  O   UNL     1      -2.092   1.269  24.456  0.00  0.00    -0.421 OA
BRANCH  25  26
ATOM     26  C   UNL     1      -2.751   1.724  24.656  0.00  0.00    +0.149 A 
ATOM     27  C   UNL     1      -3.465   1.614  24.258  0.00  0.00    +0.039 A 
ATOM     28  C   UNL     1      -4.123   2.069  24.458  0.00  0.00    +0.022 A 
ATOM     29  C   UNL     1      -4.067   2.634  25.058  0.00  0.00    +0.085 A 
ATOM     30  C   UNL     1      -3.353   2.743  25.457  0.00  0.00    +0.022 A 
ATOM     31  C   UNL     1      -2.695   2.288  25.255  0.00  0.00    +0.039 A 
BRANCH  29  32
ATOM     32  N   UNL     1      -4.725   3.089  25.259  0.00  0.00    -0.208 N 
ATOM     33  C   UNL     1      -5.412   2.813  25.624  0.00  0.00    +0.202 A 
ATOM     34  N   UNL     1      -5.924   3.453  25.721  0.00  0.00    -0.200 NA
ATOM     35  C   UNL     1      -5.553   4.124  25.417  0.00  0.00    +0.221 A 
ATOM     36  N   UNL     1      -4.813   3.899  25.131  0.00  0.00    -0.141 NA
ENDBRANCH  29  32
ENDBRANCH  25  26
ENDBRANCH  24  25
ENDBRANCH  16  20
BRANCH  12  11
ATOM     11  N   UNL     1       1.800   0.363  23.044  0.00  0.00    -0.074 NA
BRANCH  11   8
ATOM      8  S   UNL     1       2.102   0.069  22.335  0.00  0.00    +0.077 S 
ATOM      9  O   UNL     1       1.334  -0.054  22.059  0.00  0.00    -0.152 OA
ATOM     10  O   UNL     1       2.403  -0.225  21.626  0.00  0.00    -0.152 OA
BRANCH   8   5
ATOM      1  C   UNL     1       5.173   0.559  23.436  0.00  0.00    +0.031 C 
ATOM      2  C   UNL     1       4.405   0.436  23.161  0.00  0.00    -0.022 A 
ATOM      3  C   UNL     1       4.064  -0.313  23.211  0.00  0.00    -0.003 A 
ATOM      4  C   UNL     1       3.295  -0.436  22.935  0.00  0.00    +0.020 A 
ATOM      5  C   UNL     1       2.870   0.191  22.610  0.00  0.00    +0.124 A 
ATOM      6  C   UNL     1       3.210   0.941  22.560  0.00  0.00    +0.020 A 
ATOM      7  C   UNL     1       3.978   1.063  22.836  0.00  0.00    -0.003 A 
ENDBRANCH   8   5
ENDBRANCH  11   8
ENDBRANCH  12  11
TORSDOF 7
ENDMDL
MODEL 3
REMARK VINA RESULT:      -7.8      2.637      5.853
REMARK  Name = 
REMARK  7 active torsions:
REMARK  status: ('A' for Active; 'I' for Inactive)
REMARK    1  A    between atoms: C_5  and  S_8
REMARK    2  A    between atoms: S_8  and  N_11
REMARK    3  A    between atoms: N_11  and  C_12
REMARK    4  A    between atoms: C_16  and  N_20
REMARK    5  A    between atoms: C_24  and  O_25
REMARK    6  A    between atoms: O_25  and  C_26
REMARK    7  A    between atoms: C_29  and  N_32
REMARK                            x       y       z     vdW  Elec       q    Type
REMARK                         _______ _______ _______ _____ _____    ______ ____
ROOT
ATOM     12  C   UNL     1      -1.152  -0.379  24.914  0.00  0.00    +0.157 C 
ATOM     13  C   UNL     1      -1.213  -0.143  25.702  0.00  0.00    +0.164 C 
ATOM     14  O   UNL     1      -1.088   0.671  25.734  0.00  0.00    -0.350 OA
ATOM     15  C   UNL     1      -0.948   0.939  24.967  0.00  0.00    +0.169 C 
ATOM     16  C   UNL     1      -0.784   1.607  24.512  0.00  0.00    +0.170 C 
ATOM     17  C   UNL     1      -0.723   1.371  23.724  0.00  0.00    +0.169 C 
ATOM     18  O   UNL     1      -0.848   0.557  23.692  0.00  0.00    -0.350 OA
ATOM     19  C   UNL     1      -0.988   0.289  24.460  0.00  0.00    +0.164 C 
ENDROOT
BRANCH  16  20
ATOM     20  N   UNL     1      -0.698   2.377  24.796  0.00  0.00    -0.180 N 
ATOM     21  N   UNL     1      -0.108   2.642  25.309  0.00  0.00    -0.040 NA
ATOM     22  N   UNL     1      -0.231   3.445  25.446  0.00  0.00    -0.020 NA
ATOM     23  N   UNL     1      -0.896   3.678  25.018  0.00  0.00    -0.071 NA
ATOM     24  C   UNL     1      -1.185   3.018  24.616  0.00  0.00    +0.343 A 
BRANCH  24  25
ATOM     25  O   UNL     1      -1.845   3.002  24.121  0.00  0.00    -0.421 OA
BRANCH  25  26
ATOM     26  C   UNL     1      -2.592   3.177  24.424  0.00  0.00    +0.149 A 
ATOM     27  C   UNL     1      -2.668   3.698  25.059  0.00  0.00    +0.039 A 
ATOM     28  C   UNL     1      -3.415   3.873  25.362  0.00  0.00    +0.022 A 
ATOM     29  C   UNL     1      -4.087   3.526  25.030  0.00  0.00    +0.085 A 
ATOM     30  C   UNL     1      -4.011   3.004  24.395  0.00  0.00    +0.022 A 
ATOM     31  C   UNL     1      -3.263   2.830  24.092  0.00  0.00    +0.039 A 
BRANCH  29  32
ATOM     32  N   UNL     1      -4.834   3.701  25.332  0.00  0.00    -0.208 N 
ATOM     33  C   UNL     1      -5.347   3.165  25.693  0.00  0.00    +0.202 A 
ATOM     34  N   UNL     1      -6.031   3.574  25.911  0.00  0.00    -0.200 NA
ATOM     35  C   UNL     1      -5.939   4.361  25.684  0.00  0.00    +0.221 A 
ATOM     36  N   UNL     1      -5.199   4.440  25.327  0.00  0.00    -0.141 NA
ENDBRANCH  29  32
ENDBRANCH  25  26
ENDBRANCH  24  25
ENDBRANCH  16  20
BRANCH  12  11
ATOM     11  N   UNL     1      -1.239  -1.149  24.631  0.00  0.00    -0.074 NA
BRANCH  11   8
ATOM      8  S   UNL     1      -1.161  -1.790  25.145  0.00  0.00    +0.077 S 
ATOM      9  O   UNL     1      -0.454  -1.475  25.431  0.00  0.00    -0.152 OA
ATOM     10  O   UNL     1      -1.083  -2.430  25.659  0.00  0.00    -0.152 OA
BRANCH   8   5
ATOM      1  C   UNL     1      -3.988  -3.052  24.003  0.00  0.00    +0.031 C 
ATOM      2  C   UNL     1      -3.281  -2.736  24.289  0.00  0.00    -0.022 A 
ATOM      3  C   UNL     1      -3.268  -2.346  25.015  0.00  0.00    -0.003 A 
ATOM      4  C   UNL     1      -2.560  -2.030  25.301  0.00  0.00    +0.020 A 
ATOM      5  C   UNL     1      -1.868  -2.105  24.860  0.00  0.00    +0.124 A 
ATOM      6  C   UNL     1      -1.881  -2.495  24.133  0.00  0.00    +0.020 A 
ATOM      7  C   UNL     1      -2.588  -2.811  23.848  0.00  0.00    -0.003 A 
ENDBRANCH   8   5
ENDBRANCH  11   8
ENDBRANCH  12  11
TORSDOF 7
ENDMDL
MODEL 4
REMARK VINA RESULT:      -7.1      2.420      3.208
REMARK  Name = 
REMARK  7 active torsions:
REMARK  status: ('A' for Active; 'I' for Inactive)
REMARK    1  A    between atoms: C_5  and  S_8
REMARK    2  A    between atoms: S_8  and  N_11
REMARK    3  A    between atoms: N_11  and  C_12
REMARK    4  A    between atoms: C_16  and  N_20
REMARK    5  A    between atoms: C_24  and  O_25
REMARK    6  A    between atoms: O_25  and  C_26
REMARK    7  A    between atoms: C_29  and  N_32
REMARK                            x       y       z     vdW  Elec       q    Type
REMARK                         _______ _______ _______ _____ _____    ______ ____
ROOT
ATOM     12  C   UNL     1      -2.269  -0.212  25.088  0.00  0.00    +0.157 C 
ATOM     13  C   UNL     1      -1.780  -0.278  25.749  0.00  0.00    +0.164 C 
ATOM     14  O   UNL     1      -1.180   0.284  25.679  0.00  0.00    -0.350 OA
ATOM     15  C   UNL     1      -1.297   0.696  24.975  0.00  0.00    +0.169 C 
ATOM     16  C   UNL     1      -1.000   1.299  24.496  0.00  0.00    +0.170 C 
ATOM     17  C   UNL     1      -1.489   1.364  23.835  0.00  0.00    +0.169 C 
ATOM     18  O   UNL     1      -2.089   0.803  23.905  0.00  0.00    -0.350 OA
ATOM     19  C   UNL     1      -1.971   0.390  24.610  0.00  0.00    +0.164 C 
ENDROOT
BRANCH  16  20
ATOM     20  N   UNL     1      -0.330   1.755  24.651  0.00  0.00    -0.180 N 
ATOM     21  N   UNL     1      -0.263   2.337  25.234  0.00  0.00    -0.040 NA
ATOM     22  N   UNL     1       0.498   2.651  25.194  0.00  0.00    -0.020 NA
ATOM     23  N   UNL     1       0.902   2.264  24.588  0.00  0.00    -0.071 NA
ATOM     24  C   UNL     1       0.390   1.711  24.253  0.00  0.00    +0.343 A 
BRANCH  24  25
ATOM     25  O   UNL     1       0.568   1.202  23.627  0.00  0.00    -0.421 OA
BRANCH  25  26
ATOM     26  C   UNL     1       1.354   1.027  23.448  0.00  0.00    +0.149 A 
ATOM     27  C   UNL     1       1.883   1.637  23.277  0.00  0.00    +0.039 A 
ATOM     28  C   UNL     1       2.669   1.463  23.098  0.00  0.00    +0.022 A 
ATOM     29  C   UNL     1       2.927   0.678  23.090  0.00  0.00    +0.085 A 
ATOM     30  C   UNL     1       2.397   0.069  23.261  0.00  0.00    +0.022 A 
ATOM     31  C   UNL     1       1.611   0.244  23.440  0.00  0.00    +0.039 A 
BRANCH  29  32
ATOM     32  N   UNL     1       3.713   0.503  22.911  0.00  0.00    -0.208 N 
ATOM     33  C   UNL     1       4.046   0.490  22.157  0.00  0.00    +0.202 A 
ATOM     34  N   UNL     1       4.843   0.289  22.233  0.00  0.00    -0.200 NA
ATOM     35  C   UNL     1       5.001   0.179  23.035  0.00  0.00    +0.221 A 
ATOM     36  N   UNL     1       4.303   0.311  23.454  0.00  0.00    -0.141 NA
ENDBRANCH  29  32
ENDBRANCH  25  26
ENDBRANCH  24  25
ENDBRANCH  16  20
BRANCH  12  11
ATOM     11  N   UNL     1      -2.938  -0.668  24.933  0.00  0.00    -0.074 NA
BRANCH  11   8
ATOM      8  S   UNL     1      -3.278  -1.121  25.533  0.00  0.00    +0.077 S 
ATOM      9  O   UNL     1      -2.975  -0.601  26.097  0.00  0.00    -0.152 OA
ATOM     10  O   UNL     1      -3.618  -1.572  26.134  0.00  0.00    -0.152 OA
BRANCH   8   5
ATOM      1  C   UNL     1      -4.496  -3.202  23.281  0.00  0.00    +0.031 C 
ATOM      2  C   UNL     1      -4.191  -2.682  23.845  0.00  0.00    -0.022 A 
ATOM      3  C   UNL     1      -3.615  -2.940  24.375  0.00  0.00    -0.003 A 
ATOM      4  C   UNL     1      -3.310  -2.419  24.939  0.00  0.00    +0.020 A 
ATOM      5  C   UNL     1      -3.582  -1.642  24.970  0.00  0.00    +0.124 A 
ATOM      6  C   UNL     1      -4.159  -1.383  24.440  0.00  0.00    +0.020 A 
ATOM      7  C   UNL     1      -4.463  -1.903  23.877  0.00  0.00    -0.003 A 
ENDBRANCH   8   5
ENDBRANCH  11   8
ENDBRANCH  12  11
TORSDOF 7
ENDMDL
MODEL 5
REMARK VINA RESULT:      -7.0      3.484      5.377
REMARK  Name = 
REMARK  7 active torsions:
REMARK  status: ('A' for Active; 'I' for Inactive)
REMARK    1  A    between atoms: C_5  and  S_8
REMARK    2  A    between atoms: S_8  and  N_11
REMARK    3  A    between atoms: N_11  and  C_12
REMARK    4  A    between atoms: C_16  and  N_20
REMARK    5  A    between atoms: C_24  and  O_25
REMARK    6  A    between atoms: O_25  and  C_26
REMARK    7  A    between atoms: C_29  and  N_32
REMARK                            x       y       z     vdW  Elec       q    Type
REMARK                         _______ _______ _______ _____ _____    ______ ____
ROOT
ATOM     12  C   UNL     1      -4.224  -0.460  24.576  0.00  0.00    +0.157 C 
ATOM     13  C   UNL     1      -4.169  -0.052  23.861  0.00  0.00    +0.164 C 
ATOM     14  O   UNL     1      -4.421   0.723  23.991  0.00  0.00    -0.350 OA
ATOM     15  C   UNL     1      -4.632   0.794  24.784  0.00  0.00    +0.169 C 
ATOM     16  C   UNL     1      -4.918   1.315  25.356  0.00  0.00    +0.170 C 
ATOM     17  C   UNL     1      -4.972   0.907  26.071  0.00  0.00    +0.169 C 
ATOM     18  O   UNL     1      -4.720   0.133  25.941  0.00  0.00    -0.350 OA
ATOM     19  C   UNL     1      -4.509   0.062  25.146  0.00  0.00    +0.164 C 
ENDROOT
BRANCH  16  20
ATOM     20  N   UNL     1      -5.115   2.107  25.234  0.00  0.00    -0.180 N 
ATOM     21  N   UNL     1      -5.789   2.386  24.847  0.00  0.00    -0.040 NA
ATOM     22  N   UNL     1      -5.763   3.210  24.851  0.00  0.00    -0.020 NA
ATOM     23  N   UNL     1      -5.073   3.441  25.240  0.00  0.00    -0.071 NA
ATOM     24  C   UNL     1      -4.673   2.760  25.476  0.00  0.00    +0.343 A 
BRANCH  24  25
ATOM     25  O   UNL     1      -3.956   2.736  25.884  0.00  0.00    -0.421 OA
BRANCH  25  26
ATOM     26  C   UNL     1      -3.350   3.260  25.686  0.00  0.00    +0.149 A 
ATOM     27  C   UNL     1      -3.233   3.943  26.132  0.00  0.00    +0.039 A 
ATOM     28  C   UNL     1      -2.628   4.467  25.934  0.00  0.00    +0.022 A 
ATOM     29  C   UNL     1      -2.140   4.308  25.288  0.00  0.00    +0.085 A 
ATOM     30  C   UNL     1      -2.257   3.624  24.841  0.00  0.00    +0.022 A 
ATOM     31  C   UNL     1      -2.862   3.100  25.040  0.00  0.00    +0.039 A 
BRANCH  29  32
ATOM     32  N   UNL     1      -1.534   4.832  25.089  0.00  0.00    -0.208 N 
ATOM     33  C   UNL     1      -0.759   4.625  24.895  0.00  0.00    +0.202 A 
ATOM     34  N   UNL     1      -0.342   5.319  24.735  0.00  0.00    -0.200 NA
ATOM     35  C   UNL     1      -0.860   5.954  24.830  0.00  0.00    +0.221 A 
ATOM     36  N   UNL     1      -1.596   5.653  25.049  0.00  0.00    -0.141 NA
ENDBRANCH  29  32
ENDBRANCH  25  26
ENDBRANCH  24  25
ENDBRANCH  16  20
BRANCH  12  11
ATOM     11  N   UNL     1      -4.027  -1.252  24.698  0.00  0.00    -0.074 NA
BRANCH  11   8
ATOM      8  S   UNL     1      -4.011  -1.777  24.062  0.00  0.00    +0.077 S 
ATOM      9  O   UNL     1      -4.730  -1.474  23.794  0.00  0.00    -0.152 OA
ATOM     10  O   UNL     1      -3.996  -2.301  23.425  0.00  0.00    -0.152 OA
BRANCH   8   5
ATOM      1  C   UNL     1      -1.136  -2.992  25.129  0.00  0.00    +0.031 C 
ATOM      2  C   UNL     1      -1.855  -2.688  24.862  0.00  0.00    -0.022 A 
ATOM      3  C   UNL     1      -1.869  -2.164  24.226  0.00  0.00    -0.003 A 
ATOM      4  C   UNL     1      -2.589  -1.860  23.958  0.00  0.00    +0.020 A 
ATOM      5  C   UNL     1      -3.292  -2.080  24.328  0.00  0.00    +0.124 A 
ATOM      6  C   UNL     1      -3.278  -2.605  24.965  0.00  0.00    +0.020 A 
ATOM      7  C   UNL     1      -2.558  -2.908  25.232  0.00  0.00    -0.003 A 
ENDBRANCH   8   5
ENDBRANCH  11   8
ENDBRANCH  12  11
TORSDOF 7
ENDMDL
MODEL 6
REMARK VINA RESULT:      -6.6      1.671      2.119
REMARK  Name = 
REMARK  7 active torsions:
REMARK  status: ('A' for Active; 'I' for Inactive)
REMARK    1  A    between atoms: C_5  and  S_8
REMARK    2  A    between atoms: S_8  and  N_11
REMARK    3  A    between atoms: N_11  and  C_12
REMARK    4  A    between atoms: C_16  and  N_20
REMARK    5  A    between atoms: C_24  and  O_25
REMARK    6  A    between atoms: O_25  and  C_26
REMARK    7  A    between atoms: C_29  and  N_32
REMARK                            x       y       z     vdW  Elec       q    Type
REMARK                         _______ _______ _______ _____ _____    ______ ____
ROOT
ATOM     12  C   UNL     1      -3.155   2.825  24.844  0.00  0.00    +0.157 C 
ATOM     13  C   UNL     1      -2.757   3.547  24.869  0.00  0.00    +0.164 C 
ATOM     14  O   UNL     1      -1.972   3.398  25.070  0.00  0.00    -0.350 OA
ATOM     15  C   UNL     1      -1.883   2.585  25.169  0.00  0.00    +0.169 C 
ATOM     16  C   UNL     1      -1.344   1.989  25.355  0.00  0.00    +0.170 C 
ATOM     17  C   UNL     1      -1.742   1.267  25.330  0.00  0.00    +0.169 C 
ATOM     18  O   UNL     1      -2.527   1.416  25.129  0.00  0.00    -0.350 OA
ATOM     19  C   UNL     1      -2.615   2.231  25.029  0.00  0.00    +0.164 C 
ENDROOT
BRANCH  16  20
ATOM     20  N   UNL     1      -0.546   2.097  25.535  0.00  0.00    -0.180 N 
ATOM     21  N   UNL     1      -0.245   2.448  26.219  0.00  0.00    -0.040 NA
ATOM     22  N   UNL     1       0.578   2.440  26.168  0.00  0.00    -0.020 NA
ATOM     23  N   UNL     1       0.786   2.085  25.454  0.00  0.00    -0.071 NA
ATOM     24  C   UNL     1       0.092   1.873  25.062  0.00  0.00    +0.343 A 
BRANCH  24  25
ATOM     25  O   UNL     1       0.044   1.502  24.327  0.00  0.00    -0.421 OA
BRANCH  25  26
ATOM     26  C   UNL     1       0.734   1.280  23.931  0.00  0.00    +0.149 A 
ATOM     27  C   UNL     1       0.900   0.481  23.809  0.00  0.00    +0.039 A 
ATOM     28  C   UNL     1       1.589   0.259  23.414  0.00  0.00    +0.022 A 
ATOM     29  C   UNL     1       2.112   0.836  23.140  0.00  0.00    +0.085 A 
ATOM     30  C   UNL     1       1.945   1.635  23.262  0.00  0.00    +0.022 A 
ATOM     31  C   UNL     1       1.256   1.856  23.657  0.00  0.00    +0.039 A 
BRANCH  29  32
ATOM     32  N   UNL     1       2.801   0.615  22.744  0.00  0.00    -0.208 N 
ATOM     33  C   UNL     1       2.843   0.118  22.087  0.00  0.00    +0.202 A 
ATOM     34  N   UNL     1       3.637   0.047  21.872  0.00  0.00    -0.200 NA
ATOM     35  C   UNL     1       4.084   0.500  22.397  0.00  0.00    +0.221 A 
ATOM     36  N   UNL     1       3.567   0.850  22.936  0.00  0.00    -0.141 NA
ENDBRANCH  29  32
ENDBRANCH  25  26
ENDBRANCH  24  25
ENDBRANCH  16  20
BRANCH  12  11
ATOM     11  N   UNL     1      -3.953   2.717  24.664  0.00  0.00    -0.074 NA
BRANCH  11   8
ATOM      8  S   UNL     1      -4.468   3.362  24.666  0.00  0.00    +0.077 S 
ATOM      9  O   UNL     1      -3.900   3.817  24.276  0.00  0.00    -0.152 OA
ATOM     10  O   UNL     1      -4.981   4.008  24.667  0.00  0.00    -0.152 OA
BRANCH   8   5
ATOM      1  C   UNL     1      -6.742   1.549  26.223  0.00  0.00    +0.031 C 
ATOM      2  C   UNL     1      -6.173   2.003  25.834  0.00  0.00    -0.022 A 
ATOM      3  C   UNL     1      -5.829   2.647  26.215  0.00  0.00    -0.003 A 
ATOM      4  C   UNL     1      -5.260   3.102  25.825  0.00  0.00    +0.020 A 
ATOM      5  C   UNL     1      -5.036   2.909  25.056  0.00  0.00    +0.124 A 
ATOM      6  C   UNL     1      -5.380   2.264  24.674  0.00  0.00    +0.020 A 
ATOM      7  C   UNL     1      -5.949   1.811  25.063  0.00  0.00    -0.003 A 
ENDBRANCH   8   5
ENDBRANCH  11   8
ENDBRANCH  12  11
TORSDOF 7
ENDMDL
MODEL 7
REMARK VINA RESULT:      -6.6      2.514      4.346
REMARK  Name = 
REMARK  7 active torsions:
REMARK  status: ('A' for Active; 'I' for Inactive)
REMARK    1  A    between atoms: C_5  and  S_8
REMARK    2  A    between atoms: S_8  and  N_11
REMARK    3  A    between atoms: N_11  and  C_12
REMARK    4  A    between atoms: C_16  and  N_20
REMARK    5  A    between atoms: C_24  and  O_25
REMARK    6  A    between atoms: O_25  and  C_26
REMARK    7  A    between atoms: C_29  and  N_32
REMARK                            x       y       z     vdW  Elec       q    Type
REMARK                         _______ _______ _______ _____ _____    ______ ____
ROOT
ATOM     12  C   UNL     1      -1.092   3.022  24.927  0.00  0.00    +0.157 C 
ATOM     13  C   UNL     1      -1.174   2.963  24.109  0.00  0.00    +0.164 C 
ATOM     14  O   UNL     1      -0.872   2.232  23.874  0.00  0.00    -0.350 OA
ATOM     15  C   UNL     1      -0.603   1.839  24.547  0.00  0.00    +0.169 C 
ATOM     16  C   UNL     1      -0.251   1.145  24.820  0.00  0.00    +0.170 C 
ATOM     17  C   UNL     1      -0.168   1.203  25.638  0.00  0.00    +0.169 C 
ATOM     18  O   UNL     1      -0.470   1.934  25.872  0.00  0.00    -0.350 OA
ATOM     19  C   UNL     1      -0.739   2.327  25.198  0.00  0.00    +0.164 C 
ENDROOT
BRANCH  16  20
ATOM     20  N   UNL     1      -0.020   0.503  24.354  0.00  0.00    -0.180 N 
ATOM     21  N   UNL     1       0.489   0.533  23.705  0.00  0.00    -0.040 NA
ATOM     22  N   UNL     1       0.565  -0.232  23.405  0.00  0.00    -0.020 NA
ATOM     23  N   UNL     1       0.103  -0.734  23.869  0.00  0.00    -0.071 NA
ATOM     24  C   UNL     1      -0.258  -0.279  24.455  0.00  0.00    +0.343 A 
BRANCH  24  25
ATOM     25  O   UNL     1      -0.769  -0.560  25.040  0.00  0.00    -0.421 OA
BRANCH  25  26
ATOM     26  C   UNL     1      -1.420  -1.023  24.832  0.00  0.00    +0.149 A 
ATOM     27  C   UNL     1      -2.171  -0.685  24.795  0.00  0.00    +0.039 A 
ATOM     28  C   UNL     1      -2.822  -1.148  24.588  0.00  0.00    +0.022 A 
ATOM     29  C   UNL     1      -2.720  -1.949  24.417  0.00  0.00    +0.085 A 
ATOM     30  C   UNL     1      -1.968  -2.287  24.454  0.00  0.00    +0.022 A 
ATOM     31  C   UNL     1      -1.318  -1.823  24.661  0.00  0.00    +0.039 A 
BRANCH  29  32
ATOM     32  N   UNL     1      -3.370  -2.412  24.209  0.00  0.00    -0.208 N 
ATOM     33  C   UNL     1      -3.490  -3.201  24.421  0.00  0.00    +0.202 A 
ATOM     34  N   UNL     1      -4.208  -3.446  24.096  0.00  0.00    -0.200 NA
ATOM     35  C   UNL     1      -4.532  -2.808  23.684  0.00  0.00    +0.221 A 
ATOM     36  N   UNL     1      -4.014  -2.170  23.754  0.00  0.00    -0.141 NA
ENDBRANCH  29  32
ENDBRANCH  25  26
ENDBRANCH  24  25
ENDBRANCH  16  20
BRANCH  12  11
ATOM     11  N   UNL     1      -1.322   3.663  25.393  0.00  0.00    -0.074 NA
BRANCH  11   8
ATOM      8  S   UNL     1      -1.550   4.371  25.037  0.00  0.00    +0.077 S 
ATOM      9  O   UNL     1      -0.793   4.457  24.722  0.00  0.00    -0.152 OA
ATOM     10  O   UNL     1      -1.778   5.079  24.680  0.00  0.00    -0.152 OA
BRANCH   8   5
ATOM      1  C   UNL     1      -4.581   4.031  26.296  0.00  0.00    +0.031 C 
ATOM      2  C   UNL     1      -3.823   4.116  25.981  0.00  0.00    -0.022 A 
ATOM      3  C   UNL     1      -3.713   4.105  25.164  0.00  0.00    -0.003 A 
ATOM      4  C   UNL     1      -2.954   4.190  24.848  0.00  0.00    +0.020 A 
ATOM      5  C   UNL     1      -2.308   4.286  25.351  0.00  0.00    +0.124 A 
ATOM      6  C   UNL     1      -2.418   4.297  26.169  0.00  0.00    +0.020 A 
ATOM      7  C   UNL     1      -3.176   4.212  26.483  0.00  0.00    -0.003 A 
ENDBRANCH   8   5
ENDBRANCH  11   8
ENDBRANCH  12  11
TORSDOF 7
ENDMDL
MODEL 8
REMARK VINA RESULT:      -6.5      2.762      6.723
REMARK  Name = 
REMARK  7 active torsions:
REMARK  status: ('A' for Active; 'I' for Inactive)
REMARK    1  A    between atoms: C_5  and  S_8
REMARK    2  A    between atoms: S_8  and  N_11
REMARK    3  A    between atoms: N_11  and  C_12
REMARK    4  A    between atoms: C_16  and  N_20
REMARK    5  A    between atoms: C_24  and  O_25
REMARK    6  A    between atoms: O_25  and  C_26
REMARK    7  A    between atoms: C_29  and  N_32
REMARK                            x       y       z     vdW  Elec       q    Type
REMARK                         _______ _______ _______ _____ _____    ______ ____
ROOT
ATOM     12  C   UNL     1       1.593   0.552  23.122  0.00  0.00    +0.157 C 
ATOM     13  C   UNL     1       1.047   0.296  22.560  0.00  0.00    +0.164 C 
ATOM     14  O   UNL     1       0.305   0.580  22.778  0.00  0.00    -0.350 OA
ATOM     15  C   UNL     1       0.391   1.012  23.475  0.00  0.00    +0.169 C 
ATOM     16  C   UNL     1      -0.013   1.455  24.041  0.00  0.00    +0.170 C 
ATOM     17  C   UNL     1       0.533   1.712  24.603  0.00  0.00    +0.169 C 
ATOM     18  O   UNL     1       1.275   1.427  24.385  0.00  0.00    -0.350 OA
ATOM     19  C   UNL     1       1.188   0.995  23.687  0.00  0.00    +0.164 C 
ENDROOT
BRANCH  16  20
ATOM     20  N   UNL     1      -0.823   1.614  24.044  0.00  0.00    -0.180 N 
ATOM     21  N   UNL     1      -1.197   2.237  23.652  0.00  0.00    -0.040 NA
ATOM     22  N   UNL     1      -2.006   2.185  23.806  0.00  0.00    -0.020 NA
ATOM     23  N   UNL     1      -2.132   1.531  24.291  0.00  0.00    -0.071 NA
ATOM     24  C   UNL     1      -1.401   1.178  24.439  0.00  0.00    +0.343 A 
BRANCH  24  25
ATOM     25  O   UNL     1      -1.271   0.506  24.901  0.00  0.00    -0.421 OA
BRANCH  25  26
ATOM     26  C   UNL     1      -1.775  -0.144  24.833  0.00  0.00    +0.149 A 
ATOM     27  C   UNL     1      -2.582  -0.058  24.975  0.00  0.00    +0.039 A 
ATOM     28  C   UNL     1      -3.085  -0.708  24.908  0.00  0.00    +0.022 A 
ATOM     29  C   UNL     1      -2.780  -1.445  24.698  0.00  0.00    +0.085 A 
ATOM     30  C   UNL     1      -1.971  -1.532  24.556  0.00  0.00    +0.022 A 
ATOM     31  C   UNL     1      -1.469  -0.881  24.623  0.00  0.00    +0.039 A 
BRANCH  29  32
ATOM     32  N   UNL     1      -3.282  -2.096  24.630  0.00  0.00    -0.208 N 
ATOM     33  C   UNL     1      -3.279  -2.763  25.116  0.00  0.00    +0.202 A 
ATOM     34  N   UNL     1      -3.870  -3.275  24.852  0.00  0.00    -0.200 NA
ATOM     35  C   UNL     1      -4.238  -2.923  24.203  0.00  0.00    +0.221 A 
ATOM     36  N   UNL     1      -3.875  -2.195  24.066  0.00  0.00    -0.141 NA
ENDBRANCH  29  32
ENDBRANCH  25  26
ENDBRANCH  24  25
ENDBRANCH  16  20
BRANCH  12  11
ATOM     11  N   UNL     1       2.403   0.394  23.119  0.00  0.00    -0.074 NA
BRANCH  11   8
ATOM      8  S   UNL     1       2.777   0.167  22.419  0.00  0.00    +0.077 S 
ATOM      9  O   UNL     1       2.048   0.159  22.032  0.00  0.00    -0.152 OA
ATOM     10  O   UNL     1       3.150  -0.060  21.719  0.00  0.00    -0.152 OA
BRANCH   8   5
ATOM      1  C   UNL     1       5.693   0.197  23.962  0.00  0.00    +0.031 C 
ATOM      2  C   UNL     1       4.964   0.190  23.576  0.00  0.00    -0.022 A 
ATOM      3  C   UNL     1       4.717   0.850  23.148  0.00  0.00    -0.003 A 
ATOM      4  C   UNL     1       3.987   0.843  22.762  0.00  0.00    +0.020 A 
ATOM      5  C   UNL     1       3.506   0.175  22.805  0.00  0.00    +0.124 A 
ATOM      6  C   UNL     1       3.752  -0.486  23.233  0.00  0.00    +0.020 A 
ATOM      7  C   UNL     1       4.481  -0.478  23.618  0.00  0.00    -0.003 A 
ENDBRANCH   8   5
ENDBRANCH  11   8
ENDBRANCH  12  11
TORSDOF 7
ENDMDL
MODEL 9
REMARK VINA RESULT:      -6.5     15.996     17.211
REMARK  Name = 
REMARK  7 active torsions:
REMARK  status: ('A' for Active; 'I' for Inactive)
REMARK    1  A    between atoms: C_5  and  S_8
REMARK    2  A    between atoms: S_8  and  N_11
REMARK    3  A    between atoms: N_11  and  C_12
REMARK    4  A    between atoms: C_16  and  N_20
REMARK    5  A    between atoms: C_24  and  O_25
REMARK    6  A    between atoms: O_25  and  C_26
REMARK    7  A    between atoms: C_29  and  N_32
REMARK                            x       y       z     vdW  Elec       q    Type
REMARK                         _______ _______ _______ _____ _____    ______ ____
ROOT
ATOM     12  C   UNL     1      -6.721  -9.672  10.561  0.00  0.00    +0.157 C 
ATOM     13  C   UNL     1      -6.651 -10.493  10.606  0.00  0.00    +0.164 C 
ATOM     14  O   UNL     1      -6.158 -10.671  11.242  0.00  0.00    -0.350 OA
ATOM     15  C   UNL     1      -5.923  -9.962  11.590  0.00  0.00    +0.169 C 
ATOM     16  C   UNL     1      -5.473  -9.632  12.199  0.00  0.00    +0.170 C 
ATOM     17  C   UNL     1      -5.543  -8.812  12.153  0.00  0.00    +0.169 C 
ATOM     18  O   UNL     1      -6.037  -8.634  11.517  0.00  0.00    -0.350 OA
ATOM     19  C   UNL     1      -6.272  -9.344  11.169  0.00  0.00    +0.164 C 
ENDROOT
BRANCH  16  20
ATOM     20  N   UNL     1      -5.030 -10.051  12.755  0.00  0.00    -0.180 N 
ATOM     21  N   UNL     1      -4.310 -10.431  12.616  0.00  0.00    -0.040 NA
ATOM     22  N   UNL     1      -4.065 -10.778  13.323  0.00  0.00    -0.020 NA
ATOM     23  N   UNL     1      -4.632 -10.613  13.898  0.00  0.00    -0.071 NA
ATOM     24  C   UNL     1      -5.228 -10.164  13.547  0.00  0.00    +0.343 A 
BRANCH  24  25
ATOM     25  O   UNL     1      -5.905  -9.878  13.923  0.00  0.00    -0.421 OA
BRANCH  25  26
ATOM     26  C   UNL     1      -6.025 -10.027  14.726  0.00  0.00    +0.149 A 
ATOM     27  C   UNL     1      -6.536 -10.631  14.961  0.00  0.00    +0.039 A 
ATOM     28  C   UNL     1      -6.656 -10.780  15.763  0.00  0.00    +0.022 A 
ATOM     29  C   UNL     1      -6.265 -10.326  16.331  0.00  0.00    +0.085 A 
ATOM     30  C   UNL     1      -5.754  -9.722  16.095  0.00  0.00    +0.022 A 
ATOM     31  C   UNL     1      -5.634  -9.573  15.293  0.00  0.00    +0.039 A 
BRANCH  29  32
ATOM     32  N   UNL     1      -6.385 -10.475  17.133  0.00  0.00    -0.208 N 
ATOM     33  C   UNL     1      -7.115 -10.577  17.503  0.00  0.00    +0.202 A 
ATOM     34  N   UNL     1      -6.978 -10.713  18.306  0.00  0.00    -0.200 NA
ATOM     35  C   UNL     1      -6.163 -10.694  18.431  0.00  0.00    +0.221 A 
ATOM     36  N   UNL     1      -5.797 -10.547  17.706  0.00  0.00    -0.141 NA
ENDBRANCH  29  32
ENDBRANCH  25  26
ENDBRANCH  24  25
ENDBRANCH  16  20
BRANCH  12  11
ATOM     11  N   UNL     1      -7.164  -9.253  10.005  0.00  0.00    -0.074 NA
BRANCH  11   8
ATOM      8  S   UNL     1      -7.599  -9.659   9.433  0.00  0.00    +0.077 S 
ATOM      9  O   UNL     1      -7.259 -10.370   9.679  0.00  0.00    -0.152 OA
ATOM     10  O   UNL     1      -8.033 -10.065   8.861  0.00  0.00    -0.152 OA
BRANCH   8   5
ATOM      1  C   UNL     1      -8.957  -6.819   8.445  0.00  0.00    +0.031 C 
ATOM      2  C   UNL     1      -8.618  -7.530   8.692  0.00  0.00    -0.022 A 
ATOM      3  C   UNL     1      -9.006  -8.001   9.246  0.00  0.00    -0.003 A 
ATOM      4  C   UNL     1      -8.666  -8.712   9.493  0.00  0.00    +0.020 A 
ATOM      5  C   UNL     1      -7.939  -8.949   9.186  0.00  0.00    +0.124 A 
ATOM      6  C   UNL     1      -7.550  -8.478   8.631  0.00  0.00    +0.020 A 
ATOM      7  C   UNL     1      -7.890  -7.768   8.385  0.00  0.00    -0.003 A 
ENDBRANCH   8   5
ENDBRANCH  11   8
ENDBRANCH  12  11
TORSDOF 7
ENDMDL
MODEL 10
REMARK VINA RESULT:      -6.3     17.544     18.303
REMARK  Name = 
REMARK  7 active torsions:
REMARK  status: ('A' for Active; 'I' for Inactive)
REMARK    1  A    between atoms: C_5  and  S_8
REMARK    2  A    between atoms: S_8  and  N_11
REMARK    3  A    between atoms: N_11  and  C_12
REMARK    4  A    between atoms: C_16  and  N_20
REMARK    5  A    between atoms: C_24  and  O_25
REMARK    6  A    between atoms: O_25  and  C_26
REMARK    7  A    between atoms: C_29  and  N_32
REMARK                            x       y       z     vdW  Elec       q    Type
REMARK                         _______ _______ _______ _____ _____    ______ ____
ROOT
ATOM     12  C   UNL     1      -8.570  -7.969   8.647  0.00  0.00    +0.157 C 
ATOM     13  C   UNL     1      -8.798  -8.746   8.486  0.00  0.00    +0.164 C 
ATOM     14  O   UNL     1      -8.122  -9.218   8.502  0.00  0.00    -0.350 OA
ATOM     15  C   UNL     1      -7.477  -8.734   8.672  0.00  0.00    +0.169 C 
ATOM     16  C   UNL     1      -6.660  -8.726   8.787  0.00  0.00    +0.170 C 
ATOM     17  C   UNL     1      -6.432  -7.949   8.948  0.00  0.00    +0.169 C 
ATOM     18  O   UNL     1      -7.108  -7.477   8.932  0.00  0.00    -0.350 OA
ATOM     19  C   UNL     1      -7.754  -7.962   8.762  0.00  0.00    +0.164 C 
ENDROOT
BRANCH  16  20
ATOM     20  N   UNL     1      -6.158  -9.380   8.749  0.00  0.00    -0.180 N 
ATOM     21  N   UNL     1      -6.109  -9.917   8.124  0.00  0.00    -0.040 NA
ATOM     22  N   UNL     1      -5.539 -10.481   8.317  0.00  0.00    -0.020 NA
ATOM     23  N   UNL     1      -5.236 -10.293   9.060  0.00  0.00    -0.071 NA
ATOM     24  C   UNL     1      -5.619  -9.612   9.327  0.00  0.00    +0.343 A 
BRANCH  24  25
ATOM     25  O   UNL     1      -5.486  -9.231  10.047  0.00  0.00    -0.421 OA
BRANCH  25  26
ATOM     26  C   UNL     1      -4.877  -9.487  10.543  0.00  0.00    +0.149 A 
ATOM     27  C   UNL     1      -4.093  -9.312  10.357  0.00  0.00    +0.039 A 
ATOM     28  C   UNL     1      -3.484  -9.567  10.851  0.00  0.00    +0.022 A 
ATOM     29  C   UNL     1      -3.661  -9.998  11.533  0.00  0.00    +0.085 A 
ATOM     30  C   UNL     1      -4.445 -10.173  11.720  0.00  0.00    +0.022 A 
ATOM     31  C   UNL     1      -5.053  -9.917  11.224  0.00  0.00    +0.039 A 
BRANCH  29  32
ATOM     32  N   UNL     1      -3.053 -10.253  12.029  0.00  0.00    -0.208 N 
ATOM     33  C   UNL     1      -3.126 -10.434  12.831  0.00  0.00    +0.202 A 
ATOM     34  N   UNL     1      -2.384 -10.666  13.109  0.00  0.00    -0.200 NA
ATOM     35  C   UNL     1      -1.853 -10.628  12.478  0.00  0.00    +0.221 A 
ATOM     36  N   UNL     1      -2.267 -10.373  11.811  0.00  0.00    -0.141 NA
ENDBRANCH  29  32
ENDBRANCH  25  26
ENDBRANCH  24  25
ENDBRANCH  16  20
BRANCH  12  11
ATOM     11  N   UNL     1      -9.071  -7.315   8.685  0.00  0.00    -0.074 NA
BRANCH  11   8
ATOM      8  S   UNL     1      -9.888  -7.423   8.737  0.00  0.00    +0.077 S 
ATOM      9  O   UNL     1      -9.782  -8.240   8.701  0.00  0.00    -0.152 OA
ATOM     10  O   UNL     1     -10.704  -7.531   8.789  0.00  0.00    -0.152 OA
BRANCH   8   5
ATOM      1  C   UNL     1     -10.315  -4.155   8.884  0.00  0.00    +0.031 C 
ATOM      2  C   UNL     1     -10.208  -4.972   8.847  0.00  0.00    -0.022 A 
ATOM      3  C   UNL     1      -9.911  -5.318   8.161  0.00  0.00    -0.003 A 
ATOM      4  C   UNL     1      -9.804  -6.136   8.124  0.00  0.00    +0.020 A 
ATOM      5  C   UNL     1      -9.994  -6.605   8.774  0.00  0.00    +0.124 A 
ATOM      6  C   UNL     1     -10.292  -6.260   9.461  0.00  0.00    +0.020 A 
ATOM      7  C   UNL     1     -10.399  -5.442   9.497  0.00  0.00    -0.003 A 
ENDBRANCH   8   5
ENDBRANCH  11   8
ENDBRANCH  12  11
TORSDOF 7
ENDMDL
