MODEL 1
REMARK VINA RESULT:      -9.9      0.000      0.000
REMARK  Name = 
REMARK  9 active torsions:
REMARK  status: ('A' for Active; 'I' for Inactive)
REMARK    1  A    between atoms: O_2  and  C_3
REMARK    2  A    between atoms: C_3  and  C_4
REMARK    3  A    between atoms: N_6  and  C_7
REMARK    4  A    between atoms: C_7  and  C_8
REMARK    5  A    between atoms: C_12  and  C_13
REMARK    6  A    between atoms: C_13  and  C_14
REMARK    7  A    between atoms: N_16  and  C_17
REMARK    8  A    between atoms: C_17  and  C_18
REMARK    9  A    between atoms: C_25  and  C_26
REMARK                            x       y       z     vdW  Elec       q    Type
REMARK                         _______ _______ _______ _____ _____    ______ ____
ROOT
ATOM      8  C   UNL     1      -4.009   0.808  24.208  0.00  0.00    +0.043 C 
ATOM      9  C   UNL     1      -4.659   0.938  24.699  0.00  0.00    -0.033 C 
ATOM     10  C   UNL     1      -4.810   1.696  24.991  0.00  0.00    -0.048 C 
ATOM     11  C   UNL     1      -5.460   1.826  25.482  0.00  0.00    +0.026 C 
ATOM     12  C   UNL     1      -4.311   2.322  24.792  0.00  0.00    +0.027 C 
ATOM     24  C   UNL     1      -3.661   2.190  24.301  0.00  0.00    +0.005 C 
ATOM     25  C   UNL     1      -3.510   1.434  24.009  0.00  0.00    +0.006 C 
ENDROOT
BRANCH  25  26
ATOM     26  C   UNL     1      -2.860   1.303  23.518  0.00  0.00    +0.000 C 
ATOM     27  C   UNL     1      -2.918   1.446  22.709  0.00  0.00    +0.000 C 
ATOM     28  C   UNL     1      -2.151   1.028  23.838  0.00  0.00    +0.000 C 
ENDBRANCH  25  26
BRANCH   8   7
ATOM      7  C   UNL     1      -3.858   0.051  23.916  0.00  0.00    +0.119 C 
BRANCH   7   6
ATOM      4  C   UNL     1      -4.003  -1.358  24.108  0.00  0.00    +0.272 C 
ATOM      5  O   UNL     1      -4.066  -1.463  23.294  0.00  0.00    -0.271 OA
ATOM      6  N   UNL     1      -3.899  -0.601  24.421  0.00  0.00    -0.203 NA
BRANCH   4   3
ATOM      3  C   UNL     1      -4.043  -2.009  24.613  0.00  0.00    +0.229 C 
BRANCH   3   2
ATOM      1  C   UNL     1      -3.394  -3.224  24.995  0.00  0.00    +0.175 C 
ATOM      2  O   UNL     1      -3.667  -2.715  24.406  0.00  0.00    -0.342 OA
ENDBRANCH   3   2
ENDBRANCH   4   3
ENDBRANCH   7   6
ENDBRANCH   8   7
BRANCH  12  13
ATOM     13  C   UNL     1      -4.462   3.078  25.084  0.00  0.00    +0.091 C 
BRANCH  13  14
ATOM     14  C   UNL     1      -3.917   3.444  25.584  0.00  0.00    +0.242 C 
ATOM     15  O   UNL     1      -3.986   3.360  26.401  0.00  0.00    -0.273 OA
ATOM     16  N   UNL     1      -3.304   3.895  25.267  0.00  0.00    -0.199 NA
BRANCH  16  17
ATOM     17  C   UNL     1      -2.760   4.261  25.766  0.00  0.00    +0.160 C 
BRANCH  17  18
ATOM     18  C   UNL     1      -2.033   4.515  25.470  0.00  0.00    +0.081 A 
ATOM     19  N   UNL     1      -1.381   4.009  25.481  0.00  0.00    -0.246 NA
ATOM     20  C   UNL     1      -0.655   4.264  25.185  0.00  0.00    +0.099 A 
ATOM     21  C   UNL     1      -0.580   5.026  24.878  0.00  0.00    +0.021 A 
ATOM     22  C   UNL     1      -1.230   5.533  24.867  0.00  0.00    +0.003 A 
ATOM     23  C   UNL     1      -1.957   5.277  25.163  0.00  0.00    +0.017 A 
ENDBRANCH  17  18
ENDBRANCH  16  17
ENDBRANCH  13  14
ENDBRANCH  12  13
TORSDOF 9
ENDMDL
MODEL 2
REMARK VINA RESULT:      -9.7      2.501      4.164
REMARK  Name = 
REMARK  9 active torsions:
REMARK  status: ('A' for Active; 'I' for Inactive)
REMARK    1  A    between atoms: O_2  and  C_3
REMARK    2  A    between atoms: C_3  and  C_4
REMARK    3  A    between atoms: N_6  and  C_7
REMARK    4  A    between atoms: C_7  and  C_8
REMARK    5  A    between atoms: C_12  and  C_13
REMARK    6  A    between atoms: C_13  and  C_14
REMARK    7  A    between atoms: N_16  and  C_17
REMARK    8  A    between atoms: C_17  and  C_18
REMARK    9  A    between atoms: C_25  and  C_26
REMARK                            x       y       z     vdW  Elec       q    Type
REMARK                         _______ _______ _______ _____ _____    ______ ____
ROOT
ATOM      8  C   UNL     1      -0.786   1.187  24.432  0.00  0.00    +0.043 C 
ATOM      9  C   UNL     1      -0.478   1.950  24.375  0.00  0.00    -0.033 C 
ATOM     10  C   UNL     1      -0.902   2.589  24.681  0.00  0.00    -0.048 C 
ATOM     11  C   UNL     1      -0.594   3.353  24.625  0.00  0.00    +0.026 C 
ATOM     12  C   UNL     1      -1.633   2.465  25.044  0.00  0.00    +0.027 C 
ATOM     24  C   UNL     1      -1.940   1.701  25.099  0.00  0.00    +0.005 C 
ATOM     25  C   UNL     1      -1.517   1.062  24.794  0.00  0.00    +0.006 C 
ENDROOT
BRANCH  25  26
ATOM     26  C   UNL     1      -1.824   0.299  24.850  0.00  0.00    +0.000 C 
ATOM     27  C   UNL     1      -2.305   0.002  24.250  0.00  0.00    +0.000 C 
ATOM     28  C   UNL     1      -1.649  -0.168  25.507  0.00  0.00    +0.000 C 
ENDBRANCH  25  26
BRANCH   8   7
ATOM      7  C   UNL     1      -0.362   0.548  24.126  0.00  0.00    +0.119 C 
BRANCH   7   6
ATOM      4  C   UNL     1       0.701   0.049  23.312  0.00  0.00    +0.272 C 
ATOM      5  O   UNL     1       0.586  -0.705  23.625  0.00  0.00    -0.271 OA
ATOM      6  N   UNL     1       0.226   0.676  23.562  0.00  0.00    -0.203 NA
BRANCH   4   3
ATOM      3  C   UNL     1       1.290   0.177  22.749  0.00  0.00    +0.229 C 
BRANCH   3   2
ATOM      1  C   UNL     1       2.668   0.080  22.384  0.00  0.00    +0.175 C 
ATOM      2  O   UNL     1       2.030  -0.179  22.838  0.00  0.00    -0.342 OA
ENDBRANCH   3   2
ENDBRANCH   4   3
ENDBRANCH   7   6
ENDBRANCH   8   7
BRANCH  12  13
ATOM     13  C   UNL     1      -2.055   3.103  25.349  0.00  0.00    +0.091 C 
BRANCH  13  14
ATOM     14  C   UNL     1      -2.784   3.311  25.022  0.00  0.00    +0.242 C 
ATOM     15  O   UNL     1      -2.813   3.753  24.326  0.00  0.00    -0.273 OA
ATOM     16  N   UNL     1      -3.483   3.077  25.391  0.00  0.00    -0.199 NA
BRANCH  16  17
ATOM     17  C   UNL     1      -4.211   3.284  25.064  0.00  0.00    +0.160 C 
BRANCH  17  18
ATOM     18  C   UNL     1      -4.889   2.854  25.257  0.00  0.00    +0.081 A 
ATOM     19  N   UNL     1      -5.251   2.959  25.991  0.00  0.00    -0.246 NA
ATOM     20  C   UNL     1      -5.927   2.529  26.183  0.00  0.00    +0.099 A 
ATOM     21  C   UNL     1      -6.243   1.993  25.641  0.00  0.00    +0.021 A 
ATOM     22  C   UNL     1      -5.882   1.887  24.907  0.00  0.00    +0.003 A 
ATOM     23  C   UNL     1      -5.204   2.318  24.715  0.00  0.00    +0.017 A 
ENDBRANCH  17  18
ENDBRANCH  16  17
ENDBRANCH  13  14
ENDBRANCH  12  13
TORSDOF 9
ENDMDL
MODEL 3
REMARK VINA RESULT:      -9.3      2.369      4.628
REMARK  Name = 
REMARK  9 active torsions:
REMARK  status: ('A' for Active; 'I' for Inactive)
REMARK    1  A    between atoms: O_2  and  C_3
REMARK    2  A    between atoms: C_3  and  C_4
REMARK    3  A    between atoms: N_6  and  C_7
REMARK    4  A    between atoms: C_7  and  C_8
REMARK    5  A    between atoms: C_12  and  C_13
REMARK    6  A    between atoms: C_13  and  C_14
REMARK    7  A    between atoms: N_16  and  C_17
REMARK    8  A    between atoms: C_17  and  C_18
REMARK    9  A    between atoms: C_25  and  C_26
REMARK                            x       y       z     vdW  Elec       q    Type
REMARK                         _______ _______ _______ _____ _____    ______ ____
ROOT
ATOM      8  C   UNL     1      -3.177   3.203  24.657  0.00  0.00    +0.043 C 
ATOM      9  C   UNL     1      -3.332   2.711  24.013  0.00  0.00    -0.033 C 
ATOM     10  C   UNL     1      -2.708   2.364  23.600  0.00  0.00    -0.048 C 
ATOM     11  C   UNL     1      -2.863   1.872  22.956  0.00  0.00    +0.026 C 
ATOM     12  C   UNL     1      -1.929   2.509  23.830  0.00  0.00    +0.027 C 
ATOM     24  C   UNL     1      -1.775   3.001  24.474  0.00  0.00    +0.005 C 
ATOM     25  C   UNL     1      -2.398   3.348  24.887  0.00  0.00    +0.006 C 
ENDROOT
BRANCH  25  26
ATOM     26  C   UNL     1      -2.244   3.840  25.532  0.00  0.00    +0.000 C 
ATOM     27  C   UNL     1      -2.209   3.525  26.293  0.00  0.00    +0.000 C 
ATOM     28  C   UNL     1      -2.125   4.648  25.413  0.00  0.00    +0.000 C 
ENDBRANCH  25  26
BRANCH   8   7
ATOM      7  C   UNL     1      -3.801   3.550  25.071  0.00  0.00    +0.119 C 
BRANCH   7   6
ATOM      4  C   UNL     1      -5.173   3.489  25.468  0.00  0.00    +0.272 C 
ATOM      5  O   UNL     1      -5.197   4.312  25.511  0.00  0.00    -0.271 OA
ATOM      6  N   UNL     1      -4.475   3.107  25.248  0.00  0.00    -0.203 NA
BRANCH   4   3
ATOM      3  C   UNL     1      -5.846   3.047  25.645  0.00  0.00    +0.229 C 
BRANCH   3   2
ATOM      1  C   UNL     1      -6.424   2.033  26.470  0.00  0.00    +0.175 C 
ATOM      2  O   UNL     1      -5.914   2.675  26.379  0.00  0.00    -0.342 OA
ENDBRANCH   3   2
ENDBRANCH   4   3
ENDBRANCH   7   6
ENDBRANCH   8   7
BRANCH  12  13
ATOM     13  C   UNL     1      -1.306   2.162  23.417  0.00  0.00    +0.091 C 
BRANCH  13  14
ATOM     14  C   UNL     1      -0.743   1.711  23.819  0.00  0.00    +0.242 C 
ATOM     15  O   UNL     1      -0.030   2.054  24.052  0.00  0.00    -0.273 OA
ATOM     16  N   UNL     1      -0.894   0.918  23.987  0.00  0.00    -0.199 NA
BRANCH  16  17
ATOM     17  C   UNL     1      -0.332   0.468  24.389  0.00  0.00    +0.160 C 
BRANCH  17  18
ATOM     18  C   UNL     1      -0.525  -0.286  24.662  0.00  0.00    +0.081 A 
ATOM     19  N   UNL     1      -0.379  -0.947  24.190  0.00  0.00    -0.246 NA
ATOM     20  C   UNL     1      -0.571  -1.701  24.463  0.00  0.00    +0.099 A 
ATOM     21  C   UNL     1      -0.911  -1.795  25.209  0.00  0.00    +0.021 A 
ATOM     22  C   UNL     1      -1.058  -1.135  25.682  0.00  0.00    +0.003 A 
ATOM     23  C   UNL     1      -0.865  -0.380  25.408  0.00  0.00    +0.017 A 
ENDBRANCH  17  18
ENDBRANCH  16  17
ENDBRANCH  13  14
ENDBRANCH  12  13
TORSDOF 9
ENDMDL
MODEL 4
REMARK VINA RESULT:      -9.3      1.466      5.439
REMARK  Name = 
REMARK  9 active torsions:
REMARK  status: ('A' for Active; 'I' for Inactive)
REMARK    1  A    between atoms: O_2  and  C_3
REMARK    2  A    between atoms: C_3  and  C_4
REMARK    3  A    between atoms: N_6  and  C_7
REMARK    4  A    between atoms: C_7  and  C_8
REMARK    5  A    between atoms: C_12  and  C_13
REMARK    6  A    between atoms: C_13  and  C_14
REMARK    7  A    between atoms: N_16  and  C_17
REMARK    8  A    between atoms: C_17  and  C_18
REMARK    9  A    between atoms: C_25  and  C_26
REMARK                            x       y       z     vdW  Elec       q    Type
REMARK                         _______ _______ _______ _____ _____    ______ ____
ROOT
ATOM      8  C   UNL     1      -2.107   2.394  24.636  0.00  0.00    +0.043 C 
ATOM      9  C   UNL     1      -2.832   2.776  24.542  0.00  0.00    -0.033 C 
ATOM     10  C   UNL     1      -3.512   2.336  24.385  0.00  0.00    -0.048 C 
ATOM     11  C   UNL     1      -4.237   2.718  24.291  0.00  0.00    +0.026 C 
ATOM     12  C   UNL     1      -3.467   1.514  24.324  0.00  0.00    +0.027 C 
ATOM     24  C   UNL     1      -2.741   1.133  24.418  0.00  0.00    +0.005 C 
ATOM     25  C   UNL     1      -2.061   1.573  24.575  0.00  0.00    +0.006 C 
ENDROOT
BRANCH  25  26
ATOM     26  C   UNL     1      -1.336   1.192  24.670  0.00  0.00    +0.000 C 
ATOM     27  C   UNL     1      -0.860   1.040  24.013  0.00  0.00    +0.000 C 
ATOM     28  C   UNL     1      -1.085   0.964  25.422  0.00  0.00    +0.000 C 
ENDBRANCH  25  26
BRANCH   8   7
ATOM      7  C   UNL     1      -1.426   2.835  24.793  0.00  0.00    +0.119 C 
BRANCH   7   6
ATOM      4  C   UNL     1      -0.852   4.131  24.972  0.00  0.00    +0.272 C 
ATOM      5  O   UNL     1      -0.325   3.821  25.524  0.00  0.00    -0.271 OA
ATOM      6  N   UNL     1      -1.403   3.638  24.605  0.00  0.00    -0.203 NA
BRANCH   4   3
ATOM      3  C   UNL     1      -0.829   4.934  24.784  0.00  0.00    +0.229 C 
BRANCH   3   2
ATOM      1  C   UNL     1      -1.546   6.164  24.909  0.00  0.00    +0.175 C 
ATOM      2  O   UNL     1      -1.240   5.478  25.250  0.00  0.00    -0.342 OA
ENDBRANCH   3   2
ENDBRANCH   4   3
ENDBRANCH   7   6
ENDBRANCH   8   7
BRANCH  12  13
ATOM     13  C   UNL     1      -4.147   1.075  24.167  0.00  0.00    +0.091 C 
BRANCH  13  14
ATOM     14  C   UNL     1      -4.327   0.415  24.629  0.00  0.00    +0.242 C 
ATOM     15  O   UNL     1      -4.657   0.514  25.378  0.00  0.00    -0.273 OA
ATOM     16  N   UNL     1      -4.178  -0.343  24.341  0.00  0.00    -0.199 NA
BRANCH  16  17
ATOM     17  C   UNL     1      -4.358  -1.002  24.802  0.00  0.00    +0.160 C 
BRANCH  17  18
ATOM     18  C   UNL     1      -4.050  -1.742  24.605  0.00  0.00    +0.081 A 
ATOM     19  N   UNL     1      -4.290  -2.119  23.912  0.00  0.00    -0.246 NA
ATOM     20  C   UNL     1      -3.981  -2.858  23.715  0.00  0.00    +0.099 A 
ATOM     21  C   UNL     1      -3.432  -3.220  24.212  0.00  0.00    +0.021 A 
ATOM     22  C   UNL     1      -3.190  -2.844  24.906  0.00  0.00    +0.003 A 
ATOM     23  C   UNL     1      -3.500  -2.104  25.102  0.00  0.00    +0.017 A 
ENDBRANCH  17  18
ENDBRANCH  16  17
ENDBRANCH  13  14
ENDBRANCH  12  13
TORSDOF 9
ENDMDL
MODEL 5
REMARK VINA RESULT:      -9.3      2.782      4.563
REMARK  Name = 
REMARK  9 active torsions:
REMARK  status: ('A' for Active; 'I' for Inactive)
REMARK    1  A    between atoms: O_2  and  C_3
REMARK    2  A    between atoms: C_3  and  C_4
REMARK    3  A    between atoms: N_6  and  C_7
REMARK    4  A    between atoms: C_7  and  C_8
REMARK    5  A    between atoms: C_12  and  C_13
REMARK    6  A    between atoms: C_13  and  C_14
REMARK    7  A    between atoms: N_16  and  C_17
REMARK    8  A    between atoms: C_17  and  C_18
REMARK    9  A    between atoms: C_25  and  C_26
REMARK                            x       y       z     vdW  Elec       q    Type
REMARK                         _______ _______ _______ _____ _____    ______ ____
ROOT
ATOM      8  C   UNL     1      -0.721   0.604  24.300  0.00  0.00    +0.043 C 
ATOM      9  C   UNL     1      -0.864  -0.207  24.338  0.00  0.00    -0.033 C 
ATOM     10  C   UNL     1      -1.599  -0.485  24.592  0.00  0.00    -0.048 C 
ATOM     11  C   UNL     1      -1.741  -1.297  24.630  0.00  0.00    +0.026 C 
ATOM     12  C   UNL     1      -2.189   0.048  24.808  0.00  0.00    +0.027 C 
ATOM     24  C   UNL     1      -2.046   0.860  24.770  0.00  0.00    +0.005 C 
ATOM     25  C   UNL     1      -1.312   1.138  24.516  0.00  0.00    +0.006 C 
ENDROOT
BRANCH  25  26
ATOM     26  C   UNL     1      -1.168   1.950  24.478  0.00  0.00    +0.000 C 
ATOM     27  C   UNL     1      -0.868   2.347  25.135  0.00  0.00    +0.000 C 
ATOM     28  C   UNL     1      -1.325   2.363  23.782  0.00  0.00    +0.000 C 
ENDBRANCH  25  26
BRANCH   8   7
ATOM      7  C   UNL     1       0.014   0.882  24.046  0.00  0.00    +0.119 C 
BRANCH   7   6
ATOM      4  C   UNL     1       1.265   0.634  23.403  0.00  0.00    +0.272 C 
ATOM      5  O   UNL     1       1.571   1.325  23.732  0.00  0.00    -0.271 OA
ATOM      6  N   UNL     1       0.486   0.412  23.560  0.00  0.00    -0.203 NA
BRANCH   4   3
ATOM      3  C   UNL     1       1.738   0.164  22.917  0.00  0.00    +0.229 C 
BRANCH   3   2
ATOM      1  C   UNL     1       2.937  -0.016  22.161  0.00  0.00    +0.175 C 
ATOM      2  O   UNL     1       2.488   0.426  22.693  0.00  0.00    -0.342 OA
ENDBRANCH   3   2
ENDBRANCH   4   3
ENDBRANCH   7   6
ENDBRANCH   8   7
BRANCH  12  13
ATOM     13  C   UNL     1      -2.923  -0.230  25.062  0.00  0.00    +0.091 C 
BRANCH  13  14
ATOM     14  C   UNL     1      -3.616   0.066  24.725  0.00  0.00    +0.242 C 
ATOM     15  O   UNL     1      -3.852  -0.190  23.977  0.00  0.00    -0.273 OA
ATOM     16  N   UNL     1      -4.072   0.616  25.135  0.00  0.00    -0.199 NA
BRANCH  16  17
ATOM     17  C   UNL     1      -4.765   0.911  24.799  0.00  0.00    +0.160 C 
BRANCH  17  18
ATOM     18  C   UNL     1      -5.118   1.590  25.108  0.00  0.00    +0.081 A 
ATOM     19  N   UNL     1      -5.637   1.531  25.747  0.00  0.00    -0.246 NA
ATOM     20  C   UNL     1      -5.990   2.209  26.055  0.00  0.00    +0.099 A 
ATOM     21  C   UNL     1      -5.825   2.947  25.725  0.00  0.00    +0.021 A 
ATOM     22  C   UNL     1      -5.306   3.007  25.087  0.00  0.00    +0.003 A 
ATOM     23  C   UNL     1      -4.952   2.327  24.778  0.00  0.00    +0.017 A 
ENDBRANCH  17  18
ENDBRANCH  16  17
ENDBRANCH  13  14
ENDBRANCH  12  13
TORSDOF 9
ENDMDL
MODEL 6
REMARK VINA RESULT:      -9.2      2.645      5.106
REMARK  Name = 
REMARK  9 active torsions:
REMARK  status: ('A' for Active; 'I' for Inactive)
REMARK    1  A    between atoms: O_2  and  C_3
REMARK    2  A    between atoms: C_3  and  C_4
REMARK    3  A    between atoms: N_6  and  C_7
REMARK    4  A    between atoms: C_7  and  C_8
REMARK    5  A    between atoms: C_12  and  C_13
REMARK    6  A    between atoms: C_13  and  C_14
REMARK    7  A    between atoms: N_16  and  C_17
REMARK    8  A    between atoms: C_17  and  C_18
REMARK    9  A    between atoms: C_25  and  C_26
REMARK                            x       y       z     vdW  Elec       q    Type
REMARK                         _______ _______ _______ _____ _____    ______ ____
ROOT
ATOM      8  C   UNL     1      -0.860   1.479  24.129  0.00  0.00    +0.043 C 
ATOM      9  C   UNL     1      -1.246   1.532  23.401  0.00  0.00    -0.033 C 
ATOM     10  C   UNL     1      -2.070   1.568  23.374  0.00  0.00    -0.048 C 
ATOM     11  C   UNL     1      -2.456   1.621  22.647  0.00  0.00    +0.026 C 
ATOM     12  C   UNL     1      -2.507   1.551  24.073  0.00  0.00    +0.027 C 
ATOM     24  C   UNL     1      -2.120   1.497  24.800  0.00  0.00    +0.005 C 
ATOM     25  C   UNL     1      -1.297   1.462  24.828  0.00  0.00    +0.006 C 
ENDROOT
BRANCH  25  26
ATOM     26  C   UNL     1      -0.910   1.409  25.555  0.00  0.00    +0.000 C 
ATOM     27  C   UNL     1      -0.655   2.093  25.938  0.00  0.00    +0.000 C 
ATOM     28  C   UNL     1      -0.778   0.670  25.898  0.00  0.00    +0.000 C 
ENDBRANCH  25  26
BRANCH   8   7
ATOM      7  C   UNL     1      -0.035   1.444  24.156  0.00  0.00    +0.119 C 
BRANCH   7   6
ATOM      4  C   UNL     1       1.177   1.040  23.516  0.00  0.00    +0.272 C 
ATOM      5  O   UNL     1       1.575   1.667  23.874  0.00  0.00    -0.271 OA
ATOM      6  N   UNL     1       0.371   0.928  23.657  0.00  0.00    -0.203 NA
BRANCH   4   3
ATOM      3  C   UNL     1       1.584   0.525  23.017  0.00  0.00    +0.229 C 
BRANCH   3   2
ATOM      1  C   UNL     1       2.795   0.125  22.373  0.00  0.00    +0.175 C 
ATOM      2  O   UNL     1       2.391   0.634  22.880  0.00  0.00    -0.342 OA
ENDBRANCH   3   2
ENDBRANCH   4   3
ENDBRANCH   7   6
ENDBRANCH   8   7
BRANCH  12  13
ATOM     13  C   UNL     1      -3.330   1.586  24.046  0.00  0.00    +0.091 C 
BRANCH  13  14
ATOM     14  C   UNL     1      -3.782   1.037  24.465  0.00  0.00    +0.242 C 
ATOM     15  O   UNL     1      -4.213   1.277  25.126  0.00  0.00    -0.273 OA
ATOM     16  N   UNL     1      -3.804   0.250  24.222  0.00  0.00    -0.199 NA
BRANCH  16  17
ATOM     17  C   UNL     1      -4.256  -0.298  24.641  0.00  0.00    +0.160 C 
BRANCH  17  18
ATOM     18  C   UNL     1      -4.092  -1.105  24.576  0.00  0.00    +0.081 A 
ATOM     19  N   UNL     1      -3.697  -1.498  25.185  0.00  0.00    -0.246 NA
ATOM     20  C   UNL     1      -3.534  -2.303  25.119  0.00  0.00    +0.099 A 
ATOM     21  C   UNL     1      -3.767  -2.717  24.444  0.00  0.00    +0.021 A 
ATOM     22  C   UNL     1      -4.162  -2.325  23.835  0.00  0.00    +0.003 A 
ATOM     23  C   UNL     1      -4.325  -1.519  23.901  0.00  0.00    +0.017 A 
ENDBRANCH  17  18
ENDBRANCH  16  17
ENDBRANCH  13  14
ENDBRANCH  12  13
TORSDOF 9
ENDMDL
MODEL 7
REMARK VINA RESULT:      -9.1      1.180      5.445
REMARK  Name = 
REMARK  9 active torsions:
REMARK  status: ('A' for Active; 'I' for Inactive)
REMARK    1  A    between atoms: O_2  and  C_3
REMARK    2  A    between atoms: C_3  and  C_4
REMARK    3  A    between atoms: N_6  and  C_7
REMARK    4  A    between atoms: C_7  and  C_8
REMARK    5  A    between atoms: C_12  and  C_13
REMARK    6  A    between atoms: C_13  and  C_14
REMARK    7  A    between atoms: N_16  and  C_17
REMARK    8  A    between atoms: C_17  and  C_18
REMARK    9  A    between atoms: C_25  and  C_26
REMARK                            x       y       z     vdW  Elec       q    Type
REMARK                         _______ _______ _______ _____ _____    ______ ____
ROOT
ATOM      8  C   UNL     1      -3.574   3.020  24.817  0.00  0.00    +0.043 C 
ATOM      9  C   UNL     1      -3.069   2.649  24.280  0.00  0.00    -0.033 C 
ATOM     10  C   UNL     1      -3.291   1.933  23.933  0.00  0.00    -0.048 C 
ATOM     11  C   UNL     1      -2.787   1.562  23.396  0.00  0.00    +0.026 C 
ATOM     12  C   UNL     1      -4.017   1.590  24.123  0.00  0.00    +0.027 C 
ATOM     24  C   UNL     1      -4.521   1.962  24.661  0.00  0.00    +0.005 C 
ATOM     25  C   UNL     1      -4.300   2.676  25.007  0.00  0.00    +0.006 C 
ENDROOT
BRANCH  25  26
ATOM     26  C   UNL     1      -4.803   3.049  25.545  0.00  0.00    +0.000 C 
ATOM     27  C   UNL     1      -4.752   2.873  26.348  0.00  0.00    +0.000 C 
ATOM     28  C   UNL     1      -5.358   3.597  25.277  0.00  0.00    +0.000 C 
ENDBRANCH  25  26
BRANCH   8   7
ATOM      7  C   UNL     1      -3.352   3.735  25.164  0.00  0.00    +0.119 C 
BRANCH   7   6
ATOM      4  C   UNL     1      -2.296   4.684  25.326  0.00  0.00    +0.272 C 
ATOM      5  O   UNL     1      -2.486   4.759  26.125  0.00  0.00    -0.271 OA
ATOM      6  N   UNL     1      -2.729   4.172  24.845  0.00  0.00    -0.203 NA
BRANCH   4   3
ATOM      3  C   UNL     1      -1.673   5.121  25.007  0.00  0.00    +0.229 C 
BRANCH   3   2
ATOM      1  C   UNL     1      -0.292   5.144  24.640  0.00  0.00    +0.175 C 
ATOM      2  O   UNL     1      -0.893   4.886  25.143  0.00  0.00    -0.342 OA
ENDBRANCH   3   2
ENDBRANCH   4   3
ENDBRANCH   7   6
ENDBRANCH   8   7
BRANCH  12  13
ATOM     13  C   UNL     1      -4.239   0.875  23.777  0.00  0.00    +0.091 C 
BRANCH  13  14
ATOM     14  C   UNL     1      -4.377   0.212  24.248  0.00  0.00    +0.242 C 
ATOM     15  O   UNL     1      -5.047   0.181  24.728  0.00  0.00    -0.273 OA
ATOM     16  N   UNL     1      -3.846  -0.418  24.240  0.00  0.00    -0.199 NA
BRANCH  16  17
ATOM     17  C   UNL     1      -3.985  -1.080  24.711  0.00  0.00    +0.160 C 
BRANCH  17  18
ATOM     18  C   UNL     1      -3.486  -1.735  24.661  0.00  0.00    +0.081 A 
ATOM     19  N   UNL     1      -2.690  -1.667  24.870  0.00  0.00    -0.246 NA
ATOM     20  C   UNL     1      -2.192  -2.321  24.820  0.00  0.00    +0.099 A 
ATOM     21  C   UNL     1      -2.488  -3.046  24.560  0.00  0.00    +0.021 A 
ATOM     22  C   UNL     1      -3.283  -3.116  24.350  0.00  0.00    +0.003 A 
ATOM     23  C   UNL     1      -3.782  -2.460  24.400  0.00  0.00    +0.017 A 
ENDBRANCH  17  18
ENDBRANCH  16  17
ENDBRANCH  13  14
ENDBRANCH  12  13
TORSDOF 9
ENDMDL
MODEL 8
REMARK VINA RESULT:      -8.8      2.015      5.194
REMARK  Name = 
REMARK  9 active torsions:
REMARK  status: ('A' for Active; 'I' for Inactive)
REMARK    1  A    between atoms: O_2  and  C_3
REMARK    2  A    between atoms: C_3  and  C_4
REMARK    3  A    between atoms: N_6  and  C_7
REMARK    4  A    between atoms: C_7  and  C_8
REMARK    5  A    between atoms: C_12  and  C_13
REMARK    6  A    between atoms: C_13  and  C_14
REMARK    7  A    between atoms: N_16  and  C_17
REMARK    8  A    between atoms: C_17  and  C_18
REMARK    9  A    between atoms: C_25  and  C_26
REMARK                            x       y       z     vdW  Elec       q    Type
REMARK                         _______ _______ _______ _____ _____    ______ ____
ROOT
ATOM      8  C   UNL     1      -2.234   2.227  24.383  0.00  0.00    +0.043 C 
ATOM      9  C   UNL     1      -1.800   2.229  25.085  0.00  0.00    -0.033 C 
ATOM     10  C   UNL     1      -1.221   1.655  25.213  0.00  0.00    -0.048 C 
ATOM     11  C   UNL     1      -0.788   1.657  25.915  0.00  0.00    +0.026 C 
ATOM     12  C   UNL     1      -1.077   1.079  24.640  0.00  0.00    +0.027 C 
ATOM     24  C   UNL     1      -1.512   1.078  23.939  0.00  0.00    +0.005 C 
ATOM     25  C   UNL     1      -2.090   1.651  23.810  0.00  0.00    +0.006 C 
ENDROOT
BRANCH  25  26
ATOM     26  C   UNL     1      -2.524   1.650  23.108  0.00  0.00    +0.000 C 
ATOM     27  C   UNL     1      -3.222   1.214  23.056  0.00  0.00    +0.000 C 
ATOM     28  C   UNL     1      -2.260   2.085  22.459  0.00  0.00    +0.000 C 
ENDBRANCH  25  26
BRANCH   8   7
ATOM      7  C   UNL     1      -2.813   2.802  24.254  0.00  0.00    +0.119 C 
BRANCH   7   6
ATOM      4  C   UNL     1      -3.813   3.660  24.806  0.00  0.00    +0.272 C 
ATOM      5  O   UNL     1      -3.704   4.188  24.183  0.00  0.00    -0.271 OA
ATOM      6  N   UNL     1      -3.368   2.966  24.842  0.00  0.00    -0.203 NA
BRANCH   4   3
ATOM      3  C   UNL     1      -4.368   3.824  25.394  0.00  0.00    +0.229 C 
BRANCH   3   2
ATOM      1  C   UNL     1      -5.718   3.612  25.813  0.00  0.00    +0.175 C 
ATOM      2  O   UNL     1      -5.175   3.794  25.219  0.00  0.00    -0.342 OA
ENDBRANCH   3   2
ENDBRANCH   4   3
ENDBRANCH   7   6
ENDBRANCH   8   7
BRANCH  12  13
ATOM     13  C   UNL     1      -0.499   0.506  24.769  0.00  0.00    +0.091 C 
BRANCH  13  14
ATOM     14  C   UNL     1      -0.622  -0.269  24.513  0.00  0.00    +0.242 C 
ATOM     15  O   UNL     1      -0.218  -0.554  23.852  0.00  0.00    -0.273 OA
ATOM     16  N   UNL     1      -1.146  -0.760  24.918  0.00  0.00    -0.199 NA
BRANCH  16  17
ATOM     17  C   UNL     1      -1.268  -1.534  24.662  0.00  0.00    +0.160 C 
BRANCH  17  18
ATOM     18  C   UNL     1      -2.002  -1.894  24.771  0.00  0.00    +0.081 A 
ATOM     19  N   UNL     1      -2.322  -2.369  24.177  0.00  0.00    -0.246 NA
ATOM     20  C   UNL     1      -3.056  -2.729  24.286  0.00  0.00    +0.099 A 
ATOM     21  C   UNL     1      -3.471  -2.614  24.990  0.00  0.00    +0.021 A 
ATOM     22  C   UNL     1      -3.152  -2.140  25.585  0.00  0.00    +0.003 A 
ATOM     23  C   UNL     1      -2.417  -1.780  25.475  0.00  0.00    +0.017 A 
ENDBRANCH  17  18
ENDBRANCH  16  17
ENDBRANCH  13  14
ENDBRANCH  12  13
TORSDOF 9
ENDMDL
MODEL 9
REMARK VINA RESULT:      -8.8      1.297      2.321
REMARK  Name = 
REMARK  9 active torsions:
REMARK  status: ('A' for Active; 'I' for Inactive)
REMARK    1  A    between atoms: O_2  and  C_3
REMARK    2  A    between atoms: C_3  and  C_4
REMARK    3  A    between atoms: N_6  and  C_7
REMARK    4  A    between atoms: C_7  and  C_8
REMARK    5  A    between atoms: C_12  and  C_13
REMARK    6  A    between atoms: C_13  and  C_14
REMARK    7  A    between atoms: N_16  and  C_17
REMARK    8  A    between atoms: C_17  and  C_18
REMARK    9  A    between atoms: C_25  and  C_26
REMARK                            x       y       z     vdW  Elec       q    Type
REMARK                         _______ _______ _______ _____ _____    ______ ____
ROOT
ATOM      8  C   UNL     1      -2.701   0.086  24.378  0.00  0.00    +0.043 C 
ATOM      9  C   UNL     1      -2.011  -0.331  24.551  0.00  0.00    -0.033 C 
ATOM     10  C   UNL     1      -1.309   0.077  24.702  0.00  0.00    -0.048 C 
ATOM     11  C   UNL     1      -0.619  -0.341  24.875  0.00  0.00    +0.026 C 
ATOM     12  C   UNL     1      -1.298   0.901  24.680  0.00  0.00    +0.027 C 
ATOM     24  C   UNL     1      -1.990   1.318  24.507  0.00  0.00    +0.005 C 
ATOM     25  C   UNL     1      -2.690   0.911  24.356  0.00  0.00    +0.006 C 
ENDROOT
BRANCH  25  26
ATOM     26  C   UNL     1      -3.381   1.327  24.183  0.00  0.00    +0.000 C 
ATOM     27  C   UNL     1      -3.923   1.496  24.781  0.00  0.00    +0.000 C 
ATOM     28  C   UNL     1      -3.530   1.575  23.410  0.00  0.00    +0.000 C 
ENDBRANCH  25  26
BRANCH   8   7
ATOM      7  C   UNL     1      -3.402  -0.322  24.227  0.00  0.00    +0.119 C 
BRANCH   7   6
ATOM      4  C   UNL     1      -4.072  -1.570  24.035  0.00  0.00    +0.272 C 
ATOM      5  O   UNL     1      -4.787  -1.218  24.243  0.00  0.00    -0.271 OA
ATOM      6  N   UNL     1      -3.378  -1.122  24.027  0.00  0.00    -0.203 NA
BRANCH   4   3
ATOM      3  C   UNL     1      -4.048  -2.370  23.835  0.00  0.00    +0.229 C 
BRANCH   3   2
ATOM      1  C   UNL     1      -3.623  -3.658  24.284  0.00  0.00    +0.175 C 
ATOM      2  O   UNL     1      -4.007  -2.942  24.428  0.00  0.00    -0.342 OA
ENDBRANCH   3   2
ENDBRANCH   4   3
ENDBRANCH   7   6
ENDBRANCH   8   7
BRANCH  12  13
ATOM     13  C   UNL     1      -0.598   1.309  24.831  0.00  0.00    +0.091 C 
BRANCH  13  14
ATOM     14  C   UNL     1      -0.593   1.942  25.360  0.00  0.00    +0.242 C 
ATOM     15  O   UNL     1      -0.557   1.800  26.172  0.00  0.00    -0.273 OA
ATOM     16  N   UNL     1      -0.625   2.716  25.078  0.00  0.00    -0.199 NA
BRANCH  16  17
ATOM     17  C   UNL     1      -0.621   3.348  25.607  0.00  0.00    +0.160 C 
BRANCH  17  18
ATOM     18  C   UNL     1      -0.926   4.080  25.379  0.00  0.00    +0.081 A 
ATOM     19  N   UNL     1      -1.680   4.309  25.624  0.00  0.00    -0.246 NA
ATOM     20  C   UNL     1      -1.984   5.041  25.395  0.00  0.00    +0.099 A 
ATOM     21  C   UNL     1      -1.534   5.544  24.922  0.00  0.00    +0.021 A 
ATOM     22  C   UNL     1      -0.780   5.317  24.676  0.00  0.00    +0.003 A 
ATOM     23  C   UNL     1      -0.476   4.584  24.905  0.00  0.00    +0.017 A 
ENDBRANCH  17  18
ENDBRANCH  16  17
ENDBRANCH  13  14
ENDBRANCH  12  13
TORSDOF 9
ENDMDL
