MODEL 1
REMARK VINA RESULT:     -13.2      0.000      0.000
REMARK  Name = 
REMARK  5 active torsions:
REMARK  status: ('A' for Active; 'I' for Inactive)
REMARK    1  A    between atoms: C_4  and  N_19
REMARK    2  A    between atoms: C_6  and  C_7
REMARK    3  A    between atoms: C_9  and  C_12
REMARK    4  A    between atoms: C_20  and  C_22
REMARK    5  A    between atoms: C_22  and  C_23
REMARK                            x       y       z     vdW  Elec       q    Type
REMARK                         _______ _______ _______ _____ _____    ______ ____
ROOT
ATOM      1  C   UNL     1      -5.891   2.224  25.935  0.00  0.00    +0.090 C 
ATOM      2  N   UNL     1      -5.180   2.499  25.619  0.00  0.00    -0.264 NA
ATOM      3  C   UNL     1      -4.869   3.258  25.712  0.00  0.00    +0.094 C 
ATOM      4  C   UNL     1      -4.153   3.291  25.305  0.00  0.00    +0.113 C 
ATOM      5  C   UNL     1      -4.021   2.553  24.960  0.00  0.00    +0.049 C 
ATOM      6  C   UNL     1      -4.655   2.064  25.154  0.00  0.00    +0.139 C 
ENDROOT
BRANCH   6   7
ATOM      7  C   UNL     1      -4.749   1.277  24.924  0.00  0.00    +0.251 A 
ATOM      8  N   UNL     1      -4.207   0.668  25.049  0.00  0.00    -0.190 NA
ATOM      9  C   UNL     1      -4.525  -0.025  24.731  0.00  0.00    +0.203 A 
ATOM     10  N   UNL     1      -5.263   0.157  24.410  0.00  0.00    -0.056 NA
ATOM     11  O   UNL     1      -5.402   0.961  24.530  0.00  0.00    -0.336 OA
BRANCH   9  12
ATOM     12  C   UNL     1      -4.167  -0.768  24.733  0.00  0.00    +0.039 A 
ATOM     13  C   UNL     1      -3.774  -1.035  25.408  0.00  0.00    +0.003 A 
ATOM     14  C   UNL     1      -3.416  -1.777  25.409  0.00  0.00    -0.004 A 
ATOM     15  C   UNL     1      -3.452  -2.255  24.737  0.00  0.00    -0.022 A 
ATOM     16  C   UNL     1      -3.094  -2.998  24.739  0.00  0.00    +0.031 C 
ATOM     17  C   UNL     1      -3.845  -1.988  24.062  0.00  0.00    -0.004 A 
ATOM     18  C   UNL     1      -4.203  -1.245  24.061  0.00  0.00    +0.003 A 
ENDBRANCH   9  12
ENDBRANCH   6   7
BRANCH   4  19
ATOM     19  N   UNL     1      -3.655   3.947  25.251  0.00  0.00    -0.205 NA
ATOM     20  C   UNL     1      -3.029   4.034  25.782  0.00  0.00    +0.246 C 
ATOM     21  O   UNL     1      -2.901   3.466  26.366  0.00  0.00    -0.273 OA
BRANCH  20  22
ATOM     22  C   UNL     1      -2.532   4.690  25.728  0.00  0.00    +0.113 C 
BRANCH  22  23
ATOM     23  C   UNL     1      -1.773   4.608  25.415  0.00  0.00    -0.013 A 
ATOM     24  C   UNL     1      -1.452   5.208  24.949  0.00  0.00    -0.004 A 
ATOM     25  C   UNL     1      -0.694   5.126  24.636  0.00  0.00    -0.000 A 
ATOM     26  C   UNL     1      -0.255   4.444  24.788  0.00  0.00    -0.000 A 
ATOM     27  C   UNL     1      -0.577   3.843  25.255  0.00  0.00    -0.000 A 
ATOM     28  C   UNL     1      -1.335   3.926  25.568  0.00  0.00    -0.004 A 
ENDBRANCH  22  23
ENDBRANCH  20  22
ENDBRANCH   4  19
TORSDOF 5
ENDMDL
MODEL 2
REMARK VINA RESULT:     -13.2      2.273      6.259
REMARK  Name = 
REMARK  5 active torsions:
REMARK  status: ('A' for Active; 'I' for Inactive)
REMARK    1  A    between atoms: C_4  and  N_19
REMARK    2  A    between atoms: C_6  and  C_7
REMARK    3  A    between atoms: C_9  and  C_12
REMARK    4  A    between atoms: C_20  and  C_22
REMARK    5  A    between atoms: C_22  and  C_23
REMARK                            x       y       z     vdW  Elec       q    Type
REMARK                         _______ _______ _______ _____ _____    ______ ____
ROOT
ATOM      1  C   UNL     1       0.184   0.709  24.010  0.00  0.00    +0.090 C 
ATOM      2  N   UNL     1      -0.406   0.447  24.524  0.00  0.00    -0.264 NA
ATOM      3  C   UNL     1      -0.737  -0.309  24.537  0.00  0.00    +0.094 C 
ATOM      4  C   UNL     1      -1.304  -0.328  25.136  0.00  0.00    +0.113 C 
ATOM      5  C   UNL     1      -1.322   0.415  25.493  0.00  0.00    +0.049 C 
ATOM      6  C   UNL     1      -0.768   0.894  25.115  0.00  0.00    +0.139 C 
ENDROOT
BRANCH   6   7
ATOM      7  C   UNL     1      -0.603   1.682  25.296  0.00  0.00    +0.251 A 
ATOM      8  N   UNL     1      -1.048   2.336  25.063  0.00  0.00    -0.190 NA
ATOM      9  C   UNL     1      -0.685   3.013  25.365  0.00  0.00    +0.203 A 
ATOM     10  N   UNL     1      -0.014   2.776  25.785  0.00  0.00    -0.056 NA
ATOM     11  O   UNL     1       0.036   1.954  25.742  0.00  0.00    -0.336 OA
BRANCH   9  12
ATOM     12  C   UNL     1      -0.945   3.788  25.265  0.00  0.00    +0.039 A 
ATOM     13  C   UNL     1      -1.684   4.016  25.554  0.00  0.00    +0.003 A 
ATOM     14  C   UNL     1      -1.944   4.792  25.453  0.00  0.00    -0.004 A 
ATOM     15  C   UNL     1      -1.466   5.342  25.064  0.00  0.00    -0.022 A 
ATOM     16  C   UNL     1      -1.727   6.117  24.964  0.00  0.00    +0.031 C 
ATOM     17  C   UNL     1      -0.727   5.114  24.776  0.00  0.00    -0.004 A 
ATOM     18  C   UNL     1      -0.467   4.337  24.877  0.00  0.00    +0.003 A 
ENDBRANCH   9  12
ENDBRANCH   6   7
BRANCH   4  19
ATOM     19  N   UNL     1      -1.770  -0.977  25.342  0.00  0.00    -0.205 NA
ATOM     20  C   UNL     1      -2.591  -0.931  25.280  0.00  0.00    +0.246 C 
ATOM     21  O   UNL     1      -2.947  -0.237  25.013  0.00  0.00    -0.273 OA
BRANCH  20  22
ATOM     22  C   UNL     1      -3.057  -1.580  25.486  0.00  0.00    +0.113 C 
BRANCH  22  23
ATOM     23  C   UNL     1      -3.469  -1.993  24.904  0.00  0.00    -0.013 A 
ATOM     24  C   UNL     1      -3.304  -2.790  24.769  0.00  0.00    -0.004 A 
ATOM     25  C   UNL     1      -3.716  -3.204  24.186  0.00  0.00    -0.000 A 
ATOM     26  C   UNL     1      -4.293  -2.821  23.737  0.00  0.00    -0.000 A 
ATOM     27  C   UNL     1      -4.458  -2.023  23.872  0.00  0.00    -0.000 A 
ATOM     28  C   UNL     1      -4.046  -1.611  24.455  0.00  0.00    -0.004 A 
ENDBRANCH  22  23
ENDBRANCH  20  22
ENDBRANCH   4  19
TORSDOF 5
ENDMDL
MODEL 3
REMARK VINA RESULT:     -12.8      2.433      3.358
REMARK  Name = 
REMARK  5 active torsions:
REMARK  status: ('A' for Active; 'I' for Inactive)
REMARK    1  A    between atoms: C_4  and  N_19
REMARK    2  A    between atoms: C_6  and  C_7
REMARK    3  A    between atoms: C_9  and  C_12
REMARK    4  A    between atoms: C_20  and  C_22
REMARK    5  A    between atoms: C_22  and  C_23
REMARK                            x       y       z     vdW  Elec       q    Type
REMARK                         _______ _______ _______ _____ _____    ______ ____
ROOT
ATOM      1  C   UNL     1       0.309  -0.004  23.519  0.00  0.00    +0.090 C 
ATOM      2  N   UNL     1       0.043   0.493  24.121  0.00  0.00    -0.264 NA
ATOM      3  C   UNL     1       0.310   1.260  24.270  0.00  0.00    +0.094 C 
ATOM      4  C   UNL     1      -0.104   1.552  24.920  0.00  0.00    +0.113 C 
ATOM      5  C   UNL     1      -0.627   0.966  25.174  0.00  0.00    +0.049 C 
ATOM      6  C   UNL     1      -0.536   0.312  24.680  0.00  0.00    +0.139 C 
ENDROOT
BRANCH   6   7
ATOM      7  C   UNL     1      -0.951  -0.399  24.735  0.00  0.00    +0.251 A 
ATOM      8  N   UNL     1      -1.709  -0.541  24.443  0.00  0.00    -0.190 NA
ATOM      9  C   UNL     1      -1.908  -1.322  24.619  0.00  0.00    +0.203 A 
ATOM     10  N   UNL     1      -1.272  -1.663  25.020  0.00  0.00    -0.056 NA
ATOM     11  O   UNL     1      -0.681  -1.092  25.091  0.00  0.00    -0.336 OA
BRANCH   9  12
ATOM     12  C   UNL     1      -2.617  -1.697  24.429  0.00  0.00    +0.039 A 
ATOM     13  C   UNL     1      -2.677  -2.518  24.476  0.00  0.00    +0.003 A 
ATOM     14  C   UNL     1      -3.386  -2.892  24.285  0.00  0.00    -0.004 A 
ATOM     15  C   UNL     1      -4.038  -2.445  24.047  0.00  0.00    -0.022 A 
ATOM     16  C   UNL     1      -4.747  -2.820  23.856  0.00  0.00    +0.031 C 
ATOM     17  C   UNL     1      -3.979  -1.623  23.999  0.00  0.00    -0.004 A 
ATOM     18  C   UNL     1      -3.269  -1.250  24.191  0.00  0.00    +0.003 A 
ENDBRANCH   9  12
ENDBRANCH   6   7
BRANCH   4  19
ATOM     19  N   UNL     1      -0.011   2.299  25.259  0.00  0.00    -0.205 NA
ATOM     20  C   UNL     1      -0.403   2.949  24.935  0.00  0.00    +0.246 C 
ATOM     21  O   UNL     1      -0.886   2.854  24.274  0.00  0.00    -0.273 OA
BRANCH  20  22
ATOM     22  C   UNL     1      -0.310   3.696  25.274  0.00  0.00    +0.113 C 
BRANCH  22  23
ATOM     23  C   UNL     1      -0.942   4.226  25.280  0.00  0.00    -0.013 A 
ATOM     24  C   UNL     1      -0.877   4.950  24.887  0.00  0.00    -0.004 A 
ATOM     25  C   UNL     1      -1.508   5.480  24.894  0.00  0.00    -0.000 A 
ATOM     26  C   UNL     1      -2.205   5.289  25.293  0.00  0.00    -0.000 A 
ATOM     27  C   UNL     1      -2.269   4.566  25.686  0.00  0.00    -0.000 A 
ATOM     28  C   UNL     1      -1.638   4.035  25.679  0.00  0.00    -0.004 A 
ENDBRANCH  22  23
ENDBRANCH  20  22
ENDBRANCH   4  19
TORSDOF 5
ENDMDL
MODEL 4
REMARK VINA RESULT:     -12.7      0.760      5.378
REMARK  Name = 
REMARK  5 active torsions:
REMARK  status: ('A' for Active; 'I' for Inactive)
REMARK    1  A    between atoms: C_4  and  N_19
REMARK    2  A    between atoms: C_6  and  C_7
REMARK    3  A    between atoms: C_9  and  C_12
REMARK    4  A    between atoms: C_20  and  C_22
REMARK    5  A    between atoms: C_22  and  C_23
REMARK                            x       y       z     vdW  Elec       q    Type
REMARK                         _______ _______ _______ _____ _____    ______ ____
ROOT
ATOM      1  C   UNL     1      -5.646   2.485  25.735  0.00  0.00    +0.090 C 
ATOM      2  N   UNL     1      -5.143   1.979  25.320  0.00  0.00    -0.264 NA
ATOM      3  C   UNL     1      -5.351   1.251  24.991  0.00  0.00    +0.094 C 
ATOM      4  C   UNL     1      -4.681   0.935  24.630  0.00  0.00    +0.113 C 
ATOM      5  C   UNL     1      -4.059   1.467  24.736  0.00  0.00    +0.049 C 
ATOM      6  C   UNL     1      -4.345   2.112  25.162  0.00  0.00    +0.139 C 
ENDROOT
BRANCH   6   7
ATOM      7  C   UNL     1      -3.909   2.774  25.391  0.00  0.00    +0.251 A 
ATOM      8  N   UNL     1      -3.204   3.031  25.049  0.00  0.00    -0.190 NA
ATOM      9  C   UNL     1      -2.960   3.712  25.448  0.00  0.00    +0.203 A 
ATOM     10  N   UNL     1      -3.516   3.875  26.037  0.00  0.00    -0.056 NA
ATOM     11  O   UNL     1      -4.102   3.295  26.001  0.00  0.00    -0.336 OA
BRANCH   9  12
ATOM     12  C   UNL     1      -2.281   4.151  25.288  0.00  0.00    +0.039 A 
ATOM     13  C   UNL     1      -2.324   4.974  25.236  0.00  0.00    +0.003 A 
ATOM     14  C   UNL     1      -1.645   5.412  25.075  0.00  0.00    -0.004 A 
ATOM     15  C   UNL     1      -0.922   5.030  24.966  0.00  0.00    -0.022 A 
ATOM     16  C   UNL     1      -0.243   5.469  24.805  0.00  0.00    +0.031 C 
ATOM     17  C   UNL     1      -0.879   4.207  25.018  0.00  0.00    -0.004 A 
ATOM     18  C   UNL     1      -1.559   3.769  25.179  0.00  0.00    +0.003 A 
ENDBRANCH   9  12
ENDBRANCH   6   7
BRANCH   4  19
ATOM     19  N   UNL     1      -4.639   0.213  24.233  0.00  0.00    -0.205 NA
ATOM     20  C   UNL     1      -4.335  -0.451  24.616  0.00  0.00    +0.246 C 
ATOM     21  O   UNL     1      -4.073  -0.395  25.396  0.00  0.00    -0.273 OA
BRANCH  20  22
ATOM     22  C   UNL     1      -4.294  -1.174  24.218  0.00  0.00    +0.113 C 
BRANCH  22  23
ATOM     23  C   UNL     1      -3.681  -1.701  24.384  0.00  0.00    -0.013 A 
ATOM     24  C   UNL     1      -2.908  -1.517  24.162  0.00  0.00    -0.004 A 
ATOM     25  C   UNL     1      -2.295  -2.043  24.328  0.00  0.00    -0.000 A 
ATOM     26  C   UNL     1      -2.455  -2.754  24.716  0.00  0.00    -0.000 A 
ATOM     27  C   UNL     1      -3.229  -2.938  24.938  0.00  0.00    -0.000 A 
ATOM     28  C   UNL     1      -3.841  -2.411  24.772  0.00  0.00    -0.004 A 
ENDBRANCH  22  23
ENDBRANCH  20  22
ENDBRANCH   4  19
TORSDOF 5
ENDMDL
