MODEL 1
REMARK VINA RESULT:      -8.2      0.000      0.000
REMARK  Name = 
REMARK  7 active torsions:
REMARK  status: ('A' for Active; 'I' for Inactive)
REMARK    1  A    between atoms: C_2  and  O_17
REMARK    2  A    between atoms: N_3  and  C_4
REMARK    3  A    between atoms: C_7  and  O_8
REMARK    4  A    between atoms: O_8  and  C_9
REMARK    5  A    between atoms: O_17  and  C_18
REMARK    6  A    between atoms: C_22  and  N_26
REMARK    7  A    between atoms: C_29  and  C_33
REMARK                            x       y       z     vdW  Elec       q    Type
REMARK                         _______ _______ _______ _____ _____    ______ ____
ROOT
ATOM     18  C   UNL     1      -0.725  -0.372  24.254  0.00  0.00    +0.229 C 
ATOM     19  C   UNL     1      -0.509   0.144  24.860  0.00  0.00    +0.188 C 
ATOM     20  O   UNL     1      -1.191   0.524  25.126  0.00  0.00    -0.348 OA
ATOM     21  C   UNL     1      -1.828   0.244  24.685  0.00  0.00    +0.168 C 
ATOM     22  C   UNL     1      -2.643   0.304  24.575  0.00  0.00    +0.155 C 
ATOM     23  C   UNL     1      -2.859  -0.211  23.969  0.00  0.00    +0.166 C 
ATOM     24  O   UNL     1      -2.177  -0.591  23.703  0.00  0.00    -0.348 OA
ATOM     25  C   UNL     1      -1.540  -0.310  24.146  0.00  0.00    +0.186 C 
ENDROOT
BRANCH  22  26
ATOM     26  N   UNL     1      -3.154   0.796  24.998  0.00  0.00    -0.200 NA
ATOM     27  C   UNL     1      -3.524   1.430  24.622  0.00  0.00    +0.237 A 
ATOM     28  N   UNL     1      -4.034   1.921  25.044  0.00  0.00    -0.212 NA
ATOM     29  C   UNL     1      -4.403   2.555  24.667  0.00  0.00    +0.086 A 
ATOM     30  C   UNL     1      -4.263   2.698  23.867  0.00  0.00    +0.040 A 
ATOM     31  C   UNL     1      -3.752   2.206  23.444  0.00  0.00    +0.103 A 
ATOM     32  N   UNL     1      -3.383   1.573  23.821  0.00  0.00    -0.211 NA
BRANCH  29  33
ATOM     33  C   UNL     1      -4.913   3.046  25.090  0.00  0.00    +0.018 A 
ATOM     34  C   UNL     1      -5.642   2.758  25.351  0.00  0.00    +0.001 A 
ATOM     35  C   UNL     1      -6.152   3.249  25.773  0.00  0.00    +0.000 A 
ATOM     36  C   UNL     1      -5.935   4.028  25.936  0.00  0.00    +0.000 A 
ATOM     37  C   UNL     1      -5.207   4.316  25.676  0.00  0.00    +0.000 A 
ATOM     38  C   UNL     1      -4.696   3.824  25.253  0.00  0.00    +0.001 A 
ENDBRANCH  29  33
ENDBRANCH  22  26
BRANCH  18  17
ATOM     17  O   UNL     1      -0.214  -0.863  23.831  0.00  0.00    -0.432 OA
BRANCH  17   2
ATOM      1  O   UNL     1       1.151  -0.813  24.251  0.00  0.00    -0.224 OA
ATOM      2  C   UNL     1       0.566  -0.631  23.697  0.00  0.00    +0.425 C 
ATOM      3  N   UNL     1       0.762  -0.217  23.012  0.00  0.00    -0.142 NA
BRANCH   3   4
ATOM      4  C   UNL     1       1.542   0.015  22.878  0.00  0.00    +0.077 A 
ATOM      5  C   UNL     1       1.848   0.676  23.265  0.00  0.00    +0.020 A 
ATOM      6  C   UNL     1       2.629   0.908  23.131  0.00  0.00    +0.039 A 
ATOM      7  C   UNL     1       3.103   0.479  22.610  0.00  0.00    +0.145 A 
ATOM     15  C   UNL     1       2.797  -0.182  22.222  0.00  0.00    +0.039 A 
ATOM     16  C   UNL     1       2.016  -0.414  22.357  0.00  0.00    +0.020 A 
BRANCH   7   8
ATOM      8  O   UNL     1       3.883   0.710  22.475  0.00  0.00    -0.453 OA
BRANCH   8   9
ATOM      9  C   UNL     1       4.482   0.454  22.982  0.00  0.00    +0.145 A 
ATOM     10  C   UNL     1       4.700  -0.341  22.995  0.00  0.00    +0.037 A 
ATOM     11  C   UNL     1       5.299  -0.597  23.502  0.00  0.00    +0.003 A 
ATOM     12  C   UNL     1       5.679  -0.057  23.996  0.00  0.00    +0.000 A 
ATOM     13  C   UNL     1       5.462   0.738  23.983  0.00  0.00    +0.003 A 
ATOM     14  C   UNL     1       4.863   0.994  23.476  0.00  0.00    +0.037 A 
ENDBRANCH   8   9
ENDBRANCH   7   8
ENDBRANCH   3   4
ENDBRANCH  17   2
ENDBRANCH  18  17
TORSDOF 7
ENDMDL
MODEL 2
REMARK VINA RESULT:      -7.5      1.292      7.602
REMARK  Name = 
REMARK  7 active torsions:
REMARK  status: ('A' for Active; 'I' for Inactive)
REMARK    1  A    between atoms: C_2  and  O_17
REMARK    2  A    between atoms: N_3  and  C_4
REMARK    3  A    between atoms: C_7  and  O_8
REMARK    4  A    between atoms: O_8  and  C_9
REMARK    5  A    between atoms: O_17  and  C_18
REMARK    6  A    between atoms: C_22  and  N_26
REMARK    7  A    between atoms: C_29  and  C_33
REMARK                            x       y       z     vdW  Elec       q    Type
REMARK                         _______ _______ _______ _____ _____    ______ ____
ROOT
ATOM     18  C   UNL     1      -1.433  -1.131  24.635  0.00  0.00    +0.229 C 
ATOM     19  C   UNL     1      -1.048  -1.247  25.355  0.00  0.00    +0.188 C 
ATOM     20  O   UNL     1      -0.247  -1.088  25.243  0.00  0.00    -0.348 OA
ATOM     21  C   UNL     1      -0.136  -0.874  24.455  0.00  0.00    +0.168 C 
ATOM     22  C   UNL     1       0.427  -0.643  23.898  0.00  0.00    +0.155 C 
ATOM     23  C   UNL     1       0.042  -0.527  23.178  0.00  0.00    +0.166 C 
ATOM     24  O   UNL     1      -0.759  -0.686  23.290  0.00  0.00    -0.348 OA
ATOM     25  C   UNL     1      -0.870  -0.900  24.079  0.00  0.00    +0.186 C 
ENDROOT
BRANCH  22  26
ATOM     26  N   UNL     1       1.235  -0.545  24.038  0.00  0.00    -0.200 NA
ATOM     27  C   UNL     1       1.738  -0.334  23.419  0.00  0.00    +0.237 A 
ATOM     28  N   UNL     1       2.545  -0.236  23.558  0.00  0.00    -0.212 NA
ATOM     29  C   UNL     1       3.048  -0.024  22.939  0.00  0.00    +0.086 A 
ATOM     30  C   UNL     1       2.744   0.090  22.181  0.00  0.00    +0.040 A 
ATOM     31  C   UNL     1       1.936  -0.008  22.042  0.00  0.00    +0.103 A 
ATOM     32  N   UNL     1       1.434  -0.219  22.661  0.00  0.00    -0.211 NA
BRANCH  29  33
ATOM     33  C   UNL     1       3.855   0.073  23.079  0.00  0.00    +0.018 A 
ATOM     34  C   UNL     1       4.217   0.798  22.915  0.00  0.00    +0.001 A 
ATOM     35  C   UNL     1       5.024   0.895  23.054  0.00  0.00    +0.000 A 
ATOM     36  C   UNL     1       5.470   0.270  23.356  0.00  0.00    +0.000 A 
ATOM     37  C   UNL     1       5.108  -0.453  23.520  0.00  0.00    +0.000 A 
ATOM     38  C   UNL     1       4.300  -0.551  23.381  0.00  0.00    +0.001 A 
ENDBRANCH  29  33
ENDBRANCH  22  26
BRANCH  18  17
ATOM     17  O   UNL     1      -2.241  -1.229  24.495  0.00  0.00    -0.432 OA
BRANCH  17   2
ATOM      1  O   UNL     1      -2.665  -0.134  25.311  0.00  0.00    -0.224 OA
ATOM      2  C   UNL     1      -2.763  -0.607  24.641  0.00  0.00    +0.425 C 
ATOM      3  N   UNL     1      -3.382  -0.457  24.118  0.00  0.00    -0.142 NA
BRANCH   3   4
ATOM      4  C   UNL     1      -3.905   0.165  24.263  0.00  0.00    +0.077 A 
ATOM      5  C   UNL     1      -4.504   0.079  24.823  0.00  0.00    +0.020 A 
ATOM      6  C   UNL     1      -5.026   0.701  24.968  0.00  0.00    +0.039 A 
ATOM      7  C   UNL     1      -4.949   1.409  24.553  0.00  0.00    +0.145 A 
ATOM     15  C   UNL     1      -4.349   1.496  23.993  0.00  0.00    +0.039 A 
ATOM     16  C   UNL     1      -3.827   0.874  23.848  0.00  0.00    +0.020 A 
BRANCH   7   8
ATOM      8  O   UNL     1      -5.471   2.032  24.698  0.00  0.00    -0.453 OA
BRANCH   8   9
ATOM      9  C   UNL     1      -5.215   2.695  25.118  0.00  0.00    +0.145 A 
ATOM     10  C   UNL     1      -4.760   3.271  24.741  0.00  0.00    +0.037 A 
ATOM     11  C   UNL     1      -4.504   3.934  25.161  0.00  0.00    +0.003 A 
ATOM     12  C   UNL     1      -4.704   4.020  25.957  0.00  0.00    +0.000 A 
ATOM     13  C   UNL     1      -5.159   3.444  26.333  0.00  0.00    +0.003 A 
ATOM     14  C   UNL     1      -5.414   2.781  25.913  0.00  0.00    +0.037 A 
ENDBRANCH   8   9
ENDBRANCH   7   8
ENDBRANCH   3   4
ENDBRANCH  17   2
ENDBRANCH  18  17
TORSDOF 7
ENDMDL
MODEL 3
REMARK VINA RESULT:      -7.4      1.383      7.997
REMARK  Name = 
REMARK  7 active torsions:
REMARK  status: ('A' for Active; 'I' for Inactive)
REMARK    1  A    between atoms: C_2  and  O_17
REMARK    2  A    between atoms: N_3  and  C_4
REMARK    3  A    between atoms: C_7  and  O_8
REMARK    4  A    between atoms: O_8  and  C_9
REMARK    5  A    between atoms: O_17  and  C_18
REMARK    6  A    between atoms: C_22  and  N_26
REMARK    7  A    between atoms: C_29  and  C_33
REMARK                            x       y       z     vdW  Elec       q    Type
REMARK                         _______ _______ _______ _____ _____    ______ ____
ROOT
ATOM     18  C   UNL     1      -0.681   0.775  23.231  0.00  0.00    +0.229 C 
ATOM     19  C   UNL     1      -0.474   0.962  24.007  0.00  0.00    +0.188 C 
ATOM     20  O   UNL     1       0.292   0.687  24.139  0.00  0.00    -0.348 OA
ATOM     21  C   UNL     1       0.558   0.330  23.446  0.00  0.00    +0.168 C 
ATOM     22  C   UNL     1       1.196  -0.061  23.098  0.00  0.00    +0.155 C 
ATOM     23  C   UNL     1       0.989  -0.248  22.322  0.00  0.00    +0.166 C 
ATOM     24  O   UNL     1       0.223   0.027  22.189  0.00  0.00    -0.348 OA
ATOM     25  C   UNL     1      -0.043   0.385  22.884  0.00  0.00    +0.186 C 
ENDROOT
BRANCH  22  26
ATOM     26  N   UNL     1       1.915  -0.235  23.463  0.00  0.00    -0.200 NA
ATOM     27  C   UNL     1       2.623   0.013  23.119  0.00  0.00    +0.237 A 
ATOM     28  N   UNL     1       3.342  -0.160  23.484  0.00  0.00    -0.212 NA
ATOM     29  C   UNL     1       4.050   0.088  23.140  0.00  0.00    +0.086 A 
ATOM     30  C   UNL     1       4.039   0.509  22.431  0.00  0.00    +0.040 A 
ATOM     31  C   UNL     1       3.319   0.683  22.066  0.00  0.00    +0.103 A 
ATOM     32  N   UNL     1       2.612   0.434  22.410  0.00  0.00    -0.211 NA
BRANCH  29  33
ATOM     33  C   UNL     1       4.769  -0.086  23.505  0.00  0.00    +0.018 A 
ATOM     34  C   UNL     1       4.917  -0.849  23.785  0.00  0.00    +0.001 A 
ATOM     35  C   UNL     1       5.635  -1.022  24.150  0.00  0.00    +0.000 A 
ATOM     36  C   UNL     1       6.208  -0.434  24.235  0.00  0.00    +0.000 A 
ATOM     37  C   UNL     1       6.060   0.328  23.956  0.00  0.00    +0.000 A 
ATOM     38  C   UNL     1       5.341   0.502  23.591  0.00  0.00    +0.001 A 
ENDBRANCH  29  33
ENDBRANCH  22  26
BRANCH  18  17
ATOM     17  O   UNL     1      -1.401   0.949  22.865  0.00  0.00    -0.432 OA
BRANCH  17   2
ATOM      1  O   UNL     1      -2.394   0.831  23.886  0.00  0.00    -0.224 OA
ATOM      2  C   UNL     1      -2.017   1.279  23.303  0.00  0.00    +0.425 C 
ATOM      3  N   UNL     1      -2.257   2.054  23.160  0.00  0.00    -0.142 NA
BRANCH   3   4
ATOM      4  C   UNL     1      -2.874   2.384  23.598  0.00  0.00    +0.077 A 
ATOM      5  C   UNL     1      -2.737   2.655  24.364  0.00  0.00    +0.020 A 
ATOM      6  C   UNL     1      -3.353   2.985  24.802  0.00  0.00    +0.039 A 
ATOM      7  C   UNL     1      -4.107   3.043  24.473  0.00  0.00    +0.145 A 
ATOM     15  C   UNL     1      -4.245   2.771  23.706  0.00  0.00    +0.039 A 
ATOM     16  C   UNL     1      -3.628   2.442  23.269  0.00  0.00    +0.020 A 
BRANCH   7   8
ATOM      8  O   UNL     1      -4.725   3.372  24.911  0.00  0.00    -0.453 OA
BRANCH   8   9
ATOM      9  C   UNL     1      -5.258   2.881  25.305  0.00  0.00    +0.145 A 
ATOM     10  C   UNL     1      -5.792   2.422  24.876  0.00  0.00    +0.037 A 
ATOM     11  C   UNL     1      -6.325   1.932  25.270  0.00  0.00    +0.003 A 
ATOM     12  C   UNL     1      -6.324   1.900  26.095  0.00  0.00    +0.000 A 
ATOM     13  C   UNL     1      -5.790   2.359  26.524  0.00  0.00    +0.003 A 
ATOM     14  C   UNL     1      -5.256   2.850  26.130  0.00  0.00    +0.037 A 
ENDBRANCH   8   9
ENDBRANCH   7   8
ENDBRANCH   3   4
ENDBRANCH  17   2
ENDBRANCH  18  17
TORSDOF 7
ENDMDL
MODEL 4
REMARK VINA RESULT:      -6.9      1.998      7.381
REMARK  Name = 
REMARK  7 active torsions:
REMARK  status: ('A' for Active; 'I' for Inactive)
REMARK    1  A    between atoms: C_2  and  O_17
REMARK    2  A    between atoms: N_3  and  C_4
REMARK    3  A    between atoms: C_7  and  O_8
REMARK    4  A    between atoms: O_8  and  C_9
REMARK    5  A    between atoms: O_17  and  C_18
REMARK    6  A    between atoms: C_22  and  N_26
REMARK    7  A    between atoms: C_29  and  C_33
REMARK                            x       y       z     vdW  Elec       q    Type
REMARK                         _______ _______ _______ _____ _____    ______ ____
ROOT
ATOM     18  C   UNL     1      -0.791   2.273  24.957  0.00  0.00    +0.229 C 
ATOM     19  C   UNL     1      -0.306   2.361  25.618  0.00  0.00    +0.188 C 
ATOM     20  O   UNL     1       0.471   2.212  25.385  0.00  0.00    -0.348 OA
ATOM     21  C   UNL     1       0.467   2.032  24.581  0.00  0.00    +0.168 C 
ATOM     22  C   UNL     1       0.943   1.829  23.939  0.00  0.00    +0.155 C 
ATOM     23  C   UNL     1       0.458   1.741  23.278  0.00  0.00    +0.166 C 
ATOM     24  O   UNL     1      -0.319   1.890  23.511  0.00  0.00    -0.348 OA
ATOM     25  C   UNL     1      -0.314   2.070  24.316  0.00  0.00    +0.186 C 
ENDROOT
BRANCH  22  26
ATOM     26  N   UNL     1       1.763   1.731  23.956  0.00  0.00    -0.200 NA
ATOM     27  C   UNL     1       2.111   1.094  23.564  0.00  0.00    +0.237 A 
ATOM     28  N   UNL     1       2.929   0.995  23.581  0.00  0.00    -0.212 NA
ATOM     29  C   UNL     1       3.277   0.358  23.188  0.00  0.00    +0.086 A 
ATOM     30  C   UNL     1       2.805  -0.180  22.778  0.00  0.00    +0.040 A 
ATOM     31  C   UNL     1       1.986  -0.082  22.761  0.00  0.00    +0.103 A 
ATOM     32  N   UNL     1       1.639   0.555  23.154  0.00  0.00    -0.211 NA
BRANCH  29  33
ATOM     33  C   UNL     1       4.095   0.260  23.205  0.00  0.00    +0.018 A 
ATOM     34  C   UNL     1       4.424  -0.404  23.571  0.00  0.00    +0.001 A 
ATOM     35  C   UNL     1       5.242  -0.502  23.588  0.00  0.00    +0.000 A 
ATOM     36  C   UNL     1       5.733   0.062  23.239  0.00  0.00    +0.000 A 
ATOM     37  C   UNL     1       5.405   0.725  22.874  0.00  0.00    +0.000 A 
ATOM     38  C   UNL     1       4.586   0.823  22.857  0.00  0.00    +0.001 A 
ENDBRANCH  29  33
ENDBRANCH  22  26
BRANCH  18  17
ATOM     17  O   UNL     1      -1.610   2.371  24.940  0.00  0.00    -0.432 OA
BRANCH  17   2
ATOM      1  O   UNL     1      -1.945   1.063  25.408  0.00  0.00    -0.224 OA
ATOM      2  C   UNL     1      -2.105   1.711  24.922  0.00  0.00    +0.425 C 
ATOM      3  N   UNL     1      -2.759   1.698  24.420  0.00  0.00    -0.142 NA
BRANCH   3   4
ATOM      4  C   UNL     1      -3.254   1.038  24.403  0.00  0.00    +0.077 A 
ATOM      5  C   UNL     1      -3.735   0.865  25.050  0.00  0.00    +0.020 A 
ATOM      6  C   UNL     1      -4.229   0.205  25.033  0.00  0.00    +0.039 A 
ATOM      7  C   UNL     1      -4.243  -0.282  24.367  0.00  0.00    +0.145 A 
ATOM     15  C   UNL     1      -3.761  -0.110  23.719  0.00  0.00    +0.039 A 
ATOM     16  C   UNL     1      -3.267   0.551  23.738  0.00  0.00    +0.020 A 
BRANCH   7   8
ATOM      8  O   UNL     1      -4.737  -0.943  24.349  0.00  0.00    -0.453 OA
BRANCH   8   9
ATOM      9  C   UNL     1      -4.411  -1.701  24.327  0.00  0.00    +0.145 A 
ATOM     10  C   UNL     1      -3.974  -1.980  24.969  0.00  0.00    +0.037 A 
ATOM     11  C   UNL     1      -3.649  -2.738  24.947  0.00  0.00    +0.003 A 
ATOM     12  C   UNL     1      -3.760  -3.216  24.284  0.00  0.00    +0.000 A 
ATOM     13  C   UNL     1      -4.197  -2.936  23.643  0.00  0.00    +0.003 A 
ATOM     14  C   UNL     1      -4.523  -2.178  23.664  0.00  0.00    +0.037 A 
ENDBRANCH   8   9
ENDBRANCH   7   8
ENDBRANCH   3   4
ENDBRANCH  17   2
ENDBRANCH  18  17
TORSDOF 7
ENDMDL
