MODEL 1
REMARK VINA RESULT:     -12.1      0.000      0.000
REMARK  Name = 
REMARK  6 active torsions:
REMARK  status: ('A' for Active; 'I' for Inactive)
REMARK    1  A    between atoms: C_2  and  C_5
REMARK    2  A    between atoms: N_7  and  C_8
REMARK    3  A    between atoms: C_8  and  C_9
REMARK    4  A    between atoms: C_16  and  C_17
REMARK    5  A    between atoms: N_19  and  C_20
REMARK    6  A    between atoms: C_20  and  C_21
REMARK                            x       y       z     vdW  Elec       q    Type
REMARK                         _______ _______ _______ _____ _____    ______ ____
ROOT
ATOM      9  C   UNL     1      -1.188  -0.539  25.215  0.00  0.00    +0.082 C 
ATOM     10  C   UNL     1      -0.836  -0.205  24.606  0.00  0.00    +0.019 C 
ATOM     11  C   UNL     1      -0.520   0.540  24.594  0.00  0.00    +0.013 C 
ATOM     12  C   UNL     1      -0.160   0.737  23.796  0.00  0.00    +0.018 C 
ATOM     13  C   UNL     1      -0.469   0.363  24.234  0.00  0.00    +0.072 C 
ATOM     14  N   UNL     1      -0.863   0.220  25.195  0.00  0.00    -0.272 NA
ATOM     15  C   UNL     1      -0.808   0.877  25.826  0.00  0.00    +0.081 C 
ATOM     16  C   UNL     1      -0.470   1.168  25.205  0.00  0.00    +0.094 C 
ENDROOT
BRANCH  16  17
ATOM     17  C   UNL     1      -0.130   1.916  25.127  0.00  0.00    +0.243 C 
ATOM     18  O   UNL     1       0.683   1.987  25.001  0.00  0.00    -0.273 OA
ATOM     19  N   UNL     1      -0.601   2.590  25.174  0.00  0.00    -0.201 NA
BRANCH  19  20
ATOM     20  C   UNL     1      -0.261   3.338  25.095  0.00  0.00    +0.141 C 
BRANCH  20  21
ATOM     21  C   UNL     1      -0.737   4.011  25.114  0.00  0.00    -0.000 A 
ATOM     22  C   UNL     1      -0.469   4.715  24.778  0.00  0.00    -0.000 A 
ATOM     23  C   UNL     1      -0.944   5.389  24.796  0.00  0.00    +0.029 A 
ATOM     24  C   UNL     1      -1.688   5.359  25.151  0.00  0.00    +0.140 A 
ATOM     25  F   UNL     1      -2.165   6.033  25.169  0.00  0.00    -0.204 F 
ATOM     26  C   UNL     1      -1.957   4.655  25.487  0.00  0.00    +0.029 A 
ATOM     27  C   UNL     1      -1.481   3.981  25.468  0.00  0.00    -0.000 A 
ENDBRANCH  20  21
ENDBRANCH  19  20
ENDBRANCH  16  17
BRANCH   9   8
ATOM      8  C   UNL     1      -1.578  -1.162  25.588  0.00  0.00    +0.145 C 
BRANCH   8   7
ATOM      5  C   UNL     1      -3.431  -1.831  24.767  0.00  0.00    +0.100 A 
ATOM      6  C   UNL     1      -2.606  -1.805  24.758  0.00  0.00    +0.113 A 
ATOM      7  N   UNL     1      -2.360  -1.336  25.390  0.00  0.00    -0.229 N 
ATOM     28  N   UNL     1      -3.032  -1.073  25.790  0.00  0.00    -0.064 NA
ATOM     29  N   UNL     1      -3.694  -1.379  25.405  0.00  0.00    -0.133 NA
BRANCH   5   2
ATOM      1  C   UNL     1      -4.387  -2.646  23.698  0.00  0.00    +0.006 C 
ATOM      2  C   UNL     1      -3.910  -2.239  24.232  0.00  0.00    +0.039 C 
ATOM      3  C   UNL     1      -4.250  -1.526  23.993  0.00  0.00    +0.006 C 
ATOM      4  C   UNL     1      -3.570  -2.951  24.471  0.00  0.00    +0.006 C 
ENDBRANCH   5   2
ENDBRANCH   8   7
ENDBRANCH   9   8
TORSDOF 6
ENDMDL
MODEL 2
REMARK VINA RESULT:     -12.0      3.039      6.223
REMARK  Name = 
REMARK  6 active torsions:
REMARK  status: ('A' for Active; 'I' for Inactive)
REMARK    1  A    between atoms: C_2  and  C_5
REMARK    2  A    between atoms: N_7  and  C_8
REMARK    3  A    between atoms: C_8  and  C_9
REMARK    4  A    between atoms: C_16  and  C_17
REMARK    5  A    between atoms: N_19  and  C_20
REMARK    6  A    between atoms: C_20  and  C_21
REMARK                            x       y       z     vdW  Elec       q    Type
REMARK                         _______ _______ _______ _____ _____    ______ ____
ROOT
ATOM      9  C   UNL     1      -4.365   3.118  24.848  0.00  0.00    +0.082 C 
ATOM     10  C   UNL     1      -4.865   2.682  25.255  0.00  0.00    +0.019 C 
ATOM     11  C   UNL     1      -4.981   1.886  25.160  0.00  0.00    +0.013 C 
ATOM     12  C   UNL     1      -5.601   1.570  25.725  0.00  0.00    +0.018 C 
ATOM     13  C   UNL     1      -5.223   2.027  25.452  0.00  0.00    +0.072 C 
ATOM     14  N   UNL     1      -4.488   2.307  24.758  0.00  0.00    -0.272 NA
ATOM     15  C   UNL     1      -4.114   1.691  24.199  0.00  0.00    +0.081 C 
ATOM     16  C   UNL     1      -4.616   1.299  24.619  0.00  0.00    +0.094 C 
ENDROOT
BRANCH  16  17
ATOM     17  C   UNL     1      -4.782   0.492  24.574  0.00  0.00    +0.243 C 
ATOM     18  O   UNL     1      -5.559   0.236  24.463  0.00  0.00    -0.273 OA
ATOM     19  N   UNL     1      -4.172  -0.058  24.640  0.00  0.00    -0.201 NA
BRANCH  19  20
ATOM     20  C   UNL     1      -4.337  -0.866  24.594  0.00  0.00    +0.141 C 
BRANCH  20  21
ATOM     21  C   UNL     1      -3.721  -1.415  24.611  0.00  0.00    -0.000 A 
ATOM     22  C   UNL     1      -3.786  -2.119  24.187  0.00  0.00    -0.000 A 
ATOM     23  C   UNL     1      -3.170  -2.669  24.203  0.00  0.00    +0.029 A 
ATOM     24  C   UNL     1      -2.490  -2.513  24.642  0.00  0.00    +0.140 A 
ATOM     25  F   UNL     1      -1.874  -3.061  24.658  0.00  0.00    -0.204 F 
ATOM     26  C   UNL     1      -2.425  -1.807  25.066  0.00  0.00    +0.029 A 
ATOM     27  C   UNL     1      -3.041  -1.259  25.050  0.00  0.00    -0.000 A 
ENDBRANCH  20  21
ENDBRANCH  19  20
ENDBRANCH  16  17
BRANCH   9   8
ATOM      8  C   UNL     1      -3.998   3.832  24.657  0.00  0.00    +0.145 C 
BRANCH   8   7
ATOM      5  C   UNL     1      -2.013   4.346  25.251  0.00  0.00    +0.100 A 
ATOM      6  C   UNL     1      -2.557   4.118  24.673  0.00  0.00    +0.113 A 
ATOM      7  N   UNL     1      -3.296   4.048  25.032  0.00  0.00    -0.229 N 
ATOM     28  N   UNL     1      -3.210   4.233  25.831  0.00  0.00    -0.064 NA
ATOM     29  N   UNL     1      -2.417   4.417  25.967  0.00  0.00    -0.133 NA
BRANCH   5   2
ATOM      1  C   UNL     1      -0.402   4.613  25.016  0.00  0.00    +0.006 C 
ATOM      2  C   UNL     1      -1.207   4.479  25.133  0.00  0.00    +0.039 C 
ATOM      3  C   UNL     1      -1.056   3.678  25.261  0.00  0.00    +0.006 C 
ATOM      4  C   UNL     1      -1.358   5.280  25.005  0.00  0.00    +0.006 C 
ENDBRANCH   5   2
ENDBRANCH   8   7
ENDBRANCH   9   8
TORSDOF 6
ENDMDL
MODEL 3
REMARK VINA RESULT:     -11.9      1.969      5.593
REMARK  Name = 
REMARK  6 active torsions:
REMARK  status: ('A' for Active; 'I' for Inactive)
REMARK    1  A    between atoms: C_2  and  C_5
REMARK    2  A    between atoms: N_7  and  C_8
REMARK    3  A    between atoms: C_8  and  C_9
REMARK    4  A    between atoms: C_16  and  C_17
REMARK    5  A    between atoms: N_19  and  C_20
REMARK    6  A    between atoms: C_20  and  C_21
REMARK                            x       y       z     vdW  Elec       q    Type
REMARK                         _______ _______ _______ _____ _____    ______ ____
ROOT
ATOM      9  C   UNL     1      -0.318   1.696  25.397  0.00  0.00    +0.082 C 
ATOM     10  C   UNL     1      -0.188   1.278  24.754  0.00  0.00    +0.019 C 
ATOM     11  C   UNL     1      -0.416   0.510  24.636  0.00  0.00    +0.013 C 
ATOM     12  C   UNL     1      -0.171   0.209  23.828  0.00  0.00    +0.018 C 
ATOM     13  C   UNL     1      -0.222   0.648  24.309  0.00  0.00    +0.072 C 
ATOM     14  N   UNL     1      -0.547   0.914  25.270  0.00  0.00    -0.272 NA
ATOM     15  C   UNL     1      -0.996   0.316  25.794  0.00  0.00    +0.081 C 
ATOM     16  C   UNL     1      -0.848  -0.060  25.146  0.00  0.00    +0.094 C 
ENDROOT
BRANCH  16  17
ATOM     17  C   UNL     1      -1.051  -0.839  24.963  0.00  0.00    +0.243 C 
ATOM     18  O   UNL     1      -0.466  -1.420  24.928  0.00  0.00    -0.273 OA
ATOM     19  N   UNL     1      -1.837  -1.035  24.815  0.00  0.00    -0.201 NA
BRANCH  19  20
ATOM     20  C   UNL     1      -2.041  -1.814  24.631  0.00  0.00    +0.141 C 
BRANCH  20  21
ATOM     21  C   UNL     1      -2.813  -1.996  24.407  0.00  0.00    -0.000 A 
ATOM     22  C   UNL     1      -3.308  -1.405  24.113  0.00  0.00    -0.000 A 
ATOM     23  C   UNL     1      -4.081  -1.587  23.888  0.00  0.00    +0.029 A 
ATOM     24  C   UNL     1      -4.359  -2.360  23.958  0.00  0.00    +0.140 A 
ATOM     25  F   UNL     1      -5.132  -2.543  23.734  0.00  0.00    -0.204 F 
ATOM     26  C   UNL     1      -3.864  -2.952  24.252  0.00  0.00    +0.029 A 
ATOM     27  C   UNL     1      -3.092  -2.769  24.477  0.00  0.00    -0.000 A 
ENDBRANCH  20  21
ENDBRANCH  19  20
ENDBRANCH  16  17
BRANCH   9   8
ATOM      8  C   UNL     1      -0.268   2.383  25.851  0.00  0.00    +0.145 C 
BRANCH   8   7
ATOM      5  C   UNL     1      -1.223   4.205  25.281  0.00  0.00    +0.100 A 
ATOM      6  C   UNL     1      -1.202   3.509  25.726  0.00  0.00    +0.113 A 
ATOM      7  N   UNL     1      -0.510   3.105  25.535  0.00  0.00    -0.229 N 
ATOM     28  N   UNL     1      -0.101   3.550  24.972  0.00  0.00    -0.064 NA
ATOM     29  N   UNL     1      -0.542   4.229  24.816  0.00  0.00    -0.133 NA
BRANCH   5   2
ATOM      1  C   UNL     1      -2.415   5.344  25.317  0.00  0.00    +0.006 C 
ATOM      2  C   UNL     1      -1.819   4.775  25.299  0.00  0.00    +0.039 C 
ATOM      3  C   UNL     1      -1.297   5.331  24.984  0.00  0.00    +0.006 C 
ATOM      4  C   UNL     1      -2.341   4.219  25.613  0.00  0.00    +0.006 C 
ENDBRANCH   5   2
ENDBRANCH   8   7
ENDBRANCH   9   8
TORSDOF 6
ENDMDL
MODEL 4
REMARK VINA RESULT:     -11.5      2.140      2.962
REMARK  Name = 
REMARK  6 active torsions:
REMARK  status: ('A' for Active; 'I' for Inactive)
REMARK    1  A    between atoms: C_2  and  C_5
REMARK    2  A    between atoms: N_7  and  C_8
REMARK    3  A    between atoms: C_8  and  C_9
REMARK    4  A    between atoms: C_16  and  C_17
REMARK    5  A    between atoms: N_19  and  C_20
REMARK    6  A    between atoms: C_20  and  C_21
REMARK                            x       y       z     vdW  Elec       q    Type
REMARK                         _______ _______ _______ _____ _____    ______ ____
ROOT
ATOM      9  C   UNL     1      -4.379   0.111  24.376  0.00  0.00    +0.082 C 
ATOM     10  C   UNL     1      -4.731   0.577  24.890  0.00  0.00    +0.019 C 
ATOM     11  C   UNL     1      -4.604   1.373  24.969  0.00  0.00    +0.013 C 
ATOM     12  C   UNL     1      -5.108   1.729  25.620  0.00  0.00    +0.018 C 
ATOM     13  C   UNL     1      -4.880   1.250  25.238  0.00  0.00    +0.072 C 
ATOM     14  N   UNL     1      -4.255   0.923  24.463  0.00  0.00    -0.272 NA
ATOM     15  C   UNL     1      -3.709   1.507  24.024  0.00  0.00    +0.081 C 
ATOM     16  C   UNL     1      -4.076   1.930  24.543  0.00  0.00    +0.094 C 
ENDROOT
BRANCH  16  17
ATOM     17  C   UNL     1      -3.994   2.740  24.675  0.00  0.00    +0.243 C 
ATOM     18  O   UNL     1      -4.652   3.235  24.623  0.00  0.00    -0.273 OA
ATOM     19  N   UNL     1      -3.254   3.054  24.860  0.00  0.00    -0.201 NA
BRANCH  19  20
ATOM     20  C   UNL     1      -3.172   3.865  24.992  0.00  0.00    +0.141 C 
BRANCH  20  21
ATOM     21  C   UNL     1      -2.420   4.203  25.024  0.00  0.00    -0.000 A 
ATOM     22  C   UNL     1      -2.336   5.023  25.023  0.00  0.00    -0.000 A 
ATOM     23  C   UNL     1      -1.585   5.362  25.055  0.00  0.00    +0.029 A 
ATOM     24  C   UNL     1      -0.917   4.880  25.088  0.00  0.00    +0.140 A 
ATOM     25  F   UNL     1      -0.165   5.218  25.120  0.00  0.00    -0.204 F 
ATOM     26  C   UNL     1      -1.000   4.059  25.089  0.00  0.00    +0.029 A 
ATOM     27  C   UNL     1      -1.752   3.721  25.057  0.00  0.00    -0.000 A 
ENDBRANCH  20  21
ENDBRANCH  19  20
ENDBRANCH  16  17
BRANCH   9   8
ATOM      8  C   UNL     1      -4.239  -0.620  24.021  0.00  0.00    +0.145 C 
BRANCH   8   7
ATOM      5  C   UNL     1      -2.681  -1.902  24.717  0.00  0.00    +0.100 A 
ATOM      6  C   UNL     1      -2.955  -1.307  24.215  0.00  0.00    +0.113 A 
ATOM      7  N   UNL     1      -3.749  -1.171  24.391  0.00  0.00    -0.229 N 
ATOM     28  N   UNL     1      -3.967  -1.682  25.001  0.00  0.00    -0.064 NA
ATOM     29  N   UNL     1      -3.306  -2.134  25.202  0.00  0.00    -0.133 NA
BRANCH   5   2
ATOM      1  C   UNL     1      -1.152  -2.520  24.745  0.00  0.00    +0.006 C 
ATOM      2  C   UNL     1      -1.916  -2.212  24.731  0.00  0.00    +0.039 C 
ATOM      3  C   UNL     1      -2.176  -2.873  24.312  0.00  0.00    +0.006 C 
ATOM      4  C   UNL     1      -1.656  -1.550  25.150  0.00  0.00    +0.006 C 
ENDBRANCH   5   2
ENDBRANCH   8   7
ENDBRANCH   9   8
TORSDOF 6
ENDMDL
MODEL 5
REMARK VINA RESULT:     -10.9      1.745      2.281
REMARK  Name = 
REMARK  6 active torsions:
REMARK  status: ('A' for Active; 'I' for Inactive)
REMARK    1  A    between atoms: C_2  and  C_5
REMARK    2  A    between atoms: N_7  and  C_8
REMARK    3  A    between atoms: C_8  and  C_9
REMARK    4  A    between atoms: C_16  and  C_17
REMARK    5  A    between atoms: N_19  and  C_20
REMARK    6  A    between atoms: C_20  and  C_21
REMARK                            x       y       z     vdW  Elec       q    Type
REMARK                         _______ _______ _______ _____ _____    ______ ____
ROOT
ATOM      9  C   UNL     1      -0.597   0.117  24.594  0.00  0.00    +0.082 C 
ATOM     10  C   UNL     1      -0.468   0.676  25.120  0.00  0.00    +0.019 C 
ATOM     11  C   UNL     1      -0.780   1.423  25.101  0.00  0.00    +0.013 C 
ATOM     12  C   UNL     1      -0.508   1.916  25.799  0.00  0.00    +0.018 C 
ATOM     13  C   UNL     1      -0.544   1.381  25.427  0.00  0.00    +0.072 C 
ATOM     14  N   UNL     1      -0.911   0.881  24.582  0.00  0.00    -0.272 NA
ATOM     15  C   UNL     1      -1.472   1.300  23.997  0.00  0.00    +0.081 C 
ATOM     16  C   UNL     1      -1.319   1.821  24.535  0.00  0.00    +0.094 C 
ENDROOT
BRANCH  16  17
ATOM     17  C   UNL     1      -1.603   2.595  24.574  0.00  0.00    +0.243 C 
ATOM     18  O   UNL     1      -1.096   3.227  24.419  0.00  0.00    -0.273 OA
ATOM     19  N   UNL     1      -2.391   2.736  24.769  0.00  0.00    -0.201 NA
BRANCH  19  20
ATOM     20  C   UNL     1      -2.674   3.510  24.809  0.00  0.00    +0.141 C 
BRANCH  20  21
ATOM     21  C   UNL     1      -3.459   3.652  25.022  0.00  0.00    -0.000 A 
ATOM     22  C   UNL     1      -3.653   3.793  25.811  0.00  0.00    -0.000 A 
ATOM     23  C   UNL     1      -4.437   3.935  26.024  0.00  0.00    +0.029 A 
ATOM     24  C   UNL     1      -5.028   3.935  25.448  0.00  0.00    +0.140 A 
ATOM     25  F   UNL     1      -5.812   4.076  25.661  0.00  0.00    -0.204 F 
ATOM     26  C   UNL     1      -4.833   3.793  24.658  0.00  0.00    +0.029 A 
ATOM     27  C   UNL     1      -4.049   3.652  24.446  0.00  0.00    -0.000 A 
ENDBRANCH  20  21
ENDBRANCH  19  20
ENDBRANCH  16  17
BRANCH   9   8
ATOM      8  C   UNL     1      -0.499  -0.642  24.289  0.00  0.00    +0.145 C 
BRANCH   8   7
ATOM      5  C   UNL     1      -1.970  -2.127  24.724  0.00  0.00    +0.100 A 
ATOM      6  C   UNL     1      -1.707  -1.478  24.286  0.00  0.00    +0.113 A 
ATOM      7  N   UNL     1      -0.964  -1.263  24.569  0.00  0.00    -0.229 N 
ATOM     28  N   UNL     1      -0.765  -1.779  25.182  0.00  0.00    -0.064 NA
ATOM     29  N   UNL     1      -1.388  -2.312  25.278  0.00  0.00    -0.133 NA
BRANCH   5   2
ATOM      1  C   UNL     1      -3.407  -2.913  24.527  0.00  0.00    +0.006 C 
ATOM      2  C   UNL     1      -2.689  -2.520  24.625  0.00  0.00    +0.039 C 
ATOM      3  C   UNL     1      -2.339  -3.018  24.067  0.00  0.00    +0.006 C 
ATOM      4  C   UNL     1      -3.038  -2.022  25.182  0.00  0.00    +0.006 C 
ENDBRANCH   5   2
ENDBRANCH   8   7
ENDBRANCH   9   8
TORSDOF 6
ENDMDL
MODEL 6
REMARK VINA RESULT:     -10.7      3.286      6.076
REMARK  Name = 
REMARK  6 active torsions:
REMARK  status: ('A' for Active; 'I' for Inactive)
REMARK    1  A    between atoms: C_2  and  C_5
REMARK    2  A    between atoms: N_7  and  C_8
REMARK    3  A    between atoms: C_8  and  C_9
REMARK    4  A    between atoms: C_16  and  C_17
REMARK    5  A    between atoms: N_19  and  C_20
REMARK    6  A    between atoms: C_20  and  C_21
REMARK                            x       y       z     vdW  Elec       q    Type
REMARK                         _______ _______ _______ _____ _____    ______ ____
ROOT
ATOM      9  C   UNL     1       1.216   0.054  23.018  0.00  0.00    +0.082 C 
ATOM     10  C   UNL     1       0.750   0.583  23.347  0.00  0.00    +0.019 C 
ATOM     11  C   UNL     1       0.122   0.421  23.832  0.00  0.00    +0.013 C 
ATOM     12  C   UNL     1      -0.287   1.170  24.108  0.00  0.00    +0.018 C 
ATOM     13  C   UNL     1       0.160   0.821  23.785  0.00  0.00    +0.072 C 
ATOM     14  N   UNL     1       0.575  -0.103  23.513  0.00  0.00    -0.272 NA
ATOM     15  C   UNL     1       0.218  -0.884  23.821  0.00  0.00    +0.081 C 
ATOM     16  C   UNL     1      -0.216  -0.334  24.125  0.00  0.00    +0.094 C 
ENDROOT
BRANCH  16  17
ATOM     17  C   UNL     1      -0.866  -0.429  24.624  0.00  0.00    +0.243 C 
ATOM     18  O   UNL     1      -0.849  -0.117  25.388  0.00  0.00    -0.273 OA
ATOM     19  N   UNL     1      -1.532  -0.837  24.360  0.00  0.00    -0.201 NA
BRANCH  19  20
ATOM     20  C   UNL     1      -2.183  -0.933  24.859  0.00  0.00    +0.141 C 
BRANCH  20  21
ATOM     21  C   UNL     1      -2.855  -1.326  24.588  0.00  0.00    -0.000 A 
ATOM     22  C   UNL     1      -2.908  -2.146  24.657  0.00  0.00    -0.000 A 
ATOM     23  C   UNL     1      -3.581  -2.541  24.387  0.00  0.00    +0.029 A 
ATOM     24  C   UNL     1      -4.200  -2.115  24.048  0.00  0.00    +0.140 A 
ATOM     25  F   UNL     1      -4.873  -2.509  23.777  0.00  0.00    -0.204 F 
ATOM     26  C   UNL     1      -4.147  -1.294  23.979  0.00  0.00    +0.029 A 
ATOM     27  C   UNL     1      -3.475  -0.900  24.249  0.00  0.00    -0.000 A 
ENDBRANCH  20  21
ENDBRANCH  19  20
ENDBRANCH  16  17
BRANCH   9   8
ATOM      8  C   UNL     1       1.852  -0.173  22.545  0.00  0.00    +0.145 C 
BRANCH   8   7
ATOM      5  C   UNL     1       3.883   0.219  23.075  0.00  0.00    +0.100 A 
ATOM      6  C   UNL     1       3.237  -0.293  23.022  0.00  0.00    +0.113 A 
ATOM      7  N   UNL     1       2.606   0.126  22.696  0.00  0.00    -0.229 N 
ATOM     28  N   UNL     1       2.861   0.896  22.547  0.00  0.00    -0.064 NA
ATOM     29  N   UNL     1       3.650   0.954  22.781  0.00  0.00    -0.133 NA
BRANCH   5   2
ATOM      1  C   UNL     1       5.376  -0.160  23.664  0.00  0.00    +0.006 C 
ATOM      2  C   UNL     1       4.630   0.029  23.370  0.00  0.00    +0.039 C 
ATOM      3  C   UNL     1       4.369  -0.736  23.536  0.00  0.00    +0.006 C 
ATOM      4  C   UNL     1       4.890   0.794  23.203  0.00  0.00    +0.006 C 
ENDBRANCH   5   2
ENDBRANCH   8   7
ENDBRANCH   9   8
TORSDOF 6
ENDMDL
