MODEL 1
REMARK VINA RESULT:      -9.6      0.000      0.000
REMARK  Name = 
REMARK  4 active torsions:
REMARK  status: ('A' for Active; 'I' for Inactive)
REMARK    1  A    between atoms: C_3  and  C_4
REMARK    2  A    between atoms: C_4  and  N_5
REMARK    3  A    between atoms: C_16  and  N_17
REMARK    4  A    between atoms: N_17  and  C_18
REMARK                            x       y       z     vdW  Elec       q    Type
REMARK                         _______ _______ _______ _____ _____    ______ ____
ROOT
ATOM      1  O   UNL     1      -4.854   1.085  25.363  0.00  0.00    -0.219 OA
ATOM      2  C   UNL     1      -4.267   0.912  24.810  0.00  0.00    +0.199 C 
ATOM      3  C   UNL     1      -3.732   1.450  24.487  0.00  0.00    +0.169 C 
ATOM     14  O   UNL     1      -3.245   1.042  23.960  0.00  0.00    -0.350 OA
ATOM     15  C   UNL     1      -3.479   0.250  23.959  0.00  0.00    +0.162 C 
ATOM     16  C   UNL     1      -4.110   0.170  24.484  0.00  0.00    +0.135 C 
ENDROOT
BRANCH   3   4
ATOM      4  C   UNL     1      -3.691   2.257  24.658  0.00  0.00    +0.149 C 
BRANCH   4   5
ATOM      5  N   UNL     1      -2.958   2.625  24.737  0.00  0.00    -0.186 NA
ATOM      6  C   UNL     1      -2.917   3.436  24.879  0.00  0.00    +0.323 C 
ATOM      7  O   UNL     1      -3.610   3.880  24.941  0.00  0.00    -0.251 OA
ATOM      8  N   UNL     1      -2.183   3.806  24.958  0.00  0.00    -0.258 N 
ATOM      9  C   UNL     1      -2.142   4.617  25.099  0.00  0.00    +0.127 C 
ATOM     10  C   UNL     1      -1.408   4.985  25.178  0.00  0.00    +0.164 C 
ATOM     11  O   UNL     1      -0.715   4.542  25.116  0.00  0.00    -0.350 OA
ATOM     12  C   UNL     1      -0.756   3.730  24.974  0.00  0.00    +0.164 C 
ATOM     13  C   UNL     1      -1.490   3.362  24.895  0.00  0.00    +0.127 C 
ENDBRANCH   4   5
ENDBRANCH   3   4
BRANCH  16  17
ATOM     17  N   UNL     1      -4.514  -0.528  24.654  0.00  0.00    -0.215 NA
BRANCH  17  18
ATOM     18  C   UNL     1      -4.126  -1.254  24.597  0.00  0.00    +0.078 C 
ATOM     19  C   UNL     1      -3.643  -1.514  25.213  0.00  0.00    +0.050 C 
ATOM     20  C   UNL     1      -3.255  -2.239  25.157  0.00  0.00    +0.144 C 
ATOM     21  O   UNL     1      -3.350  -2.706  24.483  0.00  0.00    -0.354 OA
ATOM     22  C   UNL     1      -3.833  -2.447  23.866  0.00  0.00    +0.144 C 
ATOM     23  C   UNL     1      -4.221  -1.721  23.924  0.00  0.00    +0.050 C 
ENDBRANCH  17  18
ENDBRANCH  16  17
TORSDOF 4
ENDMDL
MODEL 2
REMARK VINA RESULT:      -8.8      1.624      5.536
REMARK  Name = 
REMARK  4 active torsions:
REMARK  status: ('A' for Active; 'I' for Inactive)
REMARK    1  A    between atoms: C_3  and  C_4
REMARK    2  A    between atoms: C_4  and  N_5
REMARK    3  A    between atoms: C_16  and  N_17
REMARK    4  A    between atoms: N_17  and  C_18
REMARK                            x       y       z     vdW  Elec       q    Type
REMARK                         _______ _______ _______ _____ _____    ______ ____
ROOT
ATOM      1  O   UNL     1      -0.634   1.072  26.076  0.00  0.00    -0.219 OA
ATOM      2  C   UNL     1      -0.968   1.327  25.366  0.00  0.00    +0.199 C 
ATOM      3  C   UNL     1      -1.311   0.845  24.791  0.00  0.00    +0.169 C 
ATOM     14  O   UNL     1      -1.573   1.328  24.176  0.00  0.00    -0.350 OA
ATOM     15  C   UNL     1      -1.392   2.109  24.370  0.00  0.00    +0.162 C 
ATOM     16  C   UNL     1      -1.018   2.108  25.106  0.00  0.00    +0.135 C 
ENDROOT
BRANCH   3   4
ATOM      4  C   UNL     1      -1.380   0.023  24.826  0.00  0.00    +0.149 C 
BRANCH   4   5
ATOM      5  N   UNL     1      -2.095  -0.340  24.629  0.00  0.00    -0.186 NA
ATOM      6  C   UNL     1      -2.157  -1.161  24.643  0.00  0.00    +0.323 C 
ATOM      7  O   UNL     1      -1.506  -1.622  24.853  0.00  0.00    -0.251 OA
ATOM      8  N   UNL     1      -2.872  -1.525  24.446  0.00  0.00    -0.258 N 
ATOM      9  C   UNL     1      -2.935  -2.347  24.459  0.00  0.00    +0.127 C 
ATOM     10  C   UNL     1      -3.649  -2.709  24.262  0.00  0.00    +0.164 C 
ATOM     11  O   UNL     1      -4.301  -2.250  24.052  0.00  0.00    -0.350 OA
ATOM     12  C   UNL     1      -4.238  -1.427  24.039  0.00  0.00    +0.164 C 
ATOM     13  C   UNL     1      -3.524  -1.064  24.235  0.00  0.00    +0.127 C 
ENDBRANCH   4   5
ENDBRANCH   3   4
BRANCH  16  17
ATOM     17  N   UNL     1      -0.742   2.772  25.510  0.00  0.00    -0.215 NA
BRANCH  17  18
ATOM     18  C   UNL     1      -1.144   3.490  25.448  0.00  0.00    +0.078 C 
ATOM     19  C   UNL     1      -1.877   3.585  25.813  0.00  0.00    +0.050 C 
ATOM     20  C   UNL     1      -2.279   4.303  25.751  0.00  0.00    +0.144 C 
ATOM     21  O   UNL     1      -1.947   4.926  25.324  0.00  0.00    -0.354 OA
ATOM     22  C   UNL     1      -1.213   4.831  24.959  0.00  0.00    +0.144 C 
ATOM     23  C   UNL     1      -0.812   4.113  25.021  0.00  0.00    +0.050 C 
ENDBRANCH  17  18
ENDBRANCH  16  17
TORSDOF 4
ENDMDL
MODEL 3
REMARK VINA RESULT:      -8.4      1.039      5.148
REMARK  Name = 
REMARK  4 active torsions:
REMARK  status: ('A' for Active; 'I' for Inactive)
REMARK    1  A    between atoms: C_3  and  C_4
REMARK    2  A    between atoms: C_4  and  N_5
REMARK    3  A    between atoms: C_16  and  N_17
REMARK    4  A    between atoms: N_17  and  C_18
REMARK                            x       y       z     vdW  Elec       q    Type
REMARK                         _______ _______ _______ _____ _____    ______ ____
ROOT
ATOM      1  O   UNL     1      -4.911   1.923  24.707  0.00  0.00    -0.219 OA
ATOM      2  C   UNL     1      -4.136   1.875  24.427  0.00  0.00    +0.199 C 
ATOM      3  C   UNL     1      -3.750   1.188  24.182  0.00  0.00    +0.169 C 
ATOM     14  O   UNL     1      -2.987   1.395  23.946  0.00  0.00    -0.350 OA
ATOM     15  C   UNL     1      -2.901   2.209  24.045  0.00  0.00    +0.162 C 
ATOM     16  C   UNL     1      -3.612   2.507  24.342  0.00  0.00    +0.135 C 
ENDROOT
BRANCH   3   4
ATOM      4  C   UNL     1      -4.071   0.428  24.175  0.00  0.00    +0.149 C 
BRANCH   4   5
ATOM      5  N   UNL     1      -3.585  -0.226  24.298  0.00  0.00    -0.186 NA
ATOM      6  C   UNL     1      -3.900  -0.987  24.260  0.00  0.00    +0.323 C 
ATOM      7  O   UNL     1      -4.702  -1.095  24.099  0.00  0.00    -0.251 OA
ATOM      8  N   UNL     1      -3.413  -1.643  24.383  0.00  0.00    -0.258 N 
ATOM      9  C   UNL     1      -3.728  -2.404  24.345  0.00  0.00    +0.127 C 
ATOM     10  C   UNL     1      -3.241  -3.058  24.468  0.00  0.00    +0.164 C 
ATOM     11  O   UNL     1      -2.439  -2.952  24.629  0.00  0.00    -0.350 OA
ATOM     12  C   UNL     1      -2.124  -2.190  24.667  0.00  0.00    +0.164 C 
ATOM     13  C   UNL     1      -2.611  -1.535  24.544  0.00  0.00    +0.127 C 
ENDBRANCH   4   5
ENDBRANCH   3   4
BRANCH  16  17
ATOM     17  N   UNL     1      -3.769   3.295  24.522  0.00  0.00    -0.215 NA
BRANCH  17  18
ATOM     18  C   UNL     1      -3.249   3.723  24.998  0.00  0.00    +0.078 C 
ATOM     19  C   UNL     1      -2.587   4.085  24.665  0.00  0.00    +0.050 C 
ATOM     20  C   UNL     1      -2.066   4.512  25.142  0.00  0.00    +0.144 C 
ATOM     21  O   UNL     1      -2.208   4.577  25.952  0.00  0.00    -0.354 OA
ATOM     22  C   UNL     1      -2.870   4.214  26.286  0.00  0.00    +0.144 C 
ATOM     23  C   UNL     1      -3.390   3.787  25.808  0.00  0.00    +0.050 C 
ENDBRANCH  17  18
ENDBRANCH  16  17
TORSDOF 4
ENDMDL
MODEL 4
REMARK VINA RESULT:      -8.4      1.444      1.924
REMARK  Name = 
REMARK  4 active torsions:
REMARK  status: ('A' for Active; 'I' for Inactive)
REMARK    1  A    between atoms: C_3  and  C_4
REMARK    2  A    between atoms: C_4  and  N_5
REMARK    3  A    between atoms: C_16  and  N_17
REMARK    4  A    between atoms: N_17  and  C_18
REMARK                            x       y       z     vdW  Elec       q    Type
REMARK                         _______ _______ _______ _____ _____    ______ ____
ROOT
ATOM      1  O   UNL     1      -0.969   0.020  25.769  0.00  0.00    -0.219 OA
ATOM      2  C   UNL     1      -1.609   0.181  25.274  0.00  0.00    +0.199 C 
ATOM      3  C   UNL     1      -1.708   0.858  24.813  0.00  0.00    +0.169 C 
ATOM     14  O   UNL     1      -2.423   0.789  24.407  0.00  0.00    -0.350 OA
ATOM     15  C   UNL     1      -2.766   0.068  24.617  0.00  0.00    +0.162 C 
ATOM     16  C   UNL     1      -2.263  -0.307  25.153  0.00  0.00    +0.135 C 
ENDROOT
BRANCH   3   4
ATOM      4  C   UNL     1      -1.184   1.494  24.767  0.00  0.00    +0.149 C 
BRANCH   4   5
ATOM      5  N   UNL     1      -1.443   2.257  24.943  0.00  0.00    -0.186 NA
ATOM      6  C   UNL     1      -0.953   2.903  24.797  0.00  0.00    +0.323 C 
ATOM      7  O   UNL     1      -0.203   2.788  24.473  0.00  0.00    -0.251 OA
ATOM      8  N   UNL     1      -1.213   3.667  24.973  0.00  0.00    -0.258 N 
ATOM      9  C   UNL     1      -0.723   4.313  24.826  0.00  0.00    +0.127 C 
ATOM     10  C   UNL     1      -0.982   5.076  25.003  0.00  0.00    +0.164 C 
ATOM     11  O   UNL     1      -1.732   5.192  25.326  0.00  0.00    -0.350 OA
ATOM     12  C   UNL     1      -2.223   4.545  25.473  0.00  0.00    +0.164 C 
ATOM     13  C   UNL     1      -1.963   3.782  25.296  0.00  0.00    +0.127 C 
ENDBRANCH   4   5
ENDBRANCH   3   4
BRANCH  16  17
ATOM     17  N   UNL     1      -2.392  -1.042  25.505  0.00  0.00    -0.215 NA
BRANCH  17  18
ATOM     18  C   UNL     1      -2.725  -1.657  25.068  0.00  0.00    +0.078 C 
ATOM     19  C   UNL     1      -3.545  -1.734  25.022  0.00  0.00    +0.050 C 
ATOM     20  C   UNL     1      -3.879  -2.349  24.585  0.00  0.00    +0.144 C 
ATOM     21  O   UNL     1      -3.392  -2.888  24.194  0.00  0.00    -0.354 OA
ATOM     22  C   UNL     1      -2.571  -2.811  24.239  0.00  0.00    +0.144 C 
ATOM     23  C   UNL     1      -2.238  -2.195  24.676  0.00  0.00    +0.050 C 
ENDBRANCH  17  18
ENDBRANCH  16  17
TORSDOF 4
ENDMDL
MODEL 5
REMARK VINA RESULT:      -8.0      2.330      4.483
REMARK  Name = 
REMARK  4 active torsions:
REMARK  status: ('A' for Active; 'I' for Inactive)
REMARK    1  A    between atoms: C_3  and  C_4
REMARK    2  A    between atoms: C_4  and  N_5
REMARK    3  A    between atoms: C_16  and  N_17
REMARK    4  A    between atoms: N_17  and  C_18
REMARK                            x       y       z     vdW  Elec       q    Type
REMARK                         _______ _______ _______ _____ _____    ______ ____
ROOT
ATOM      1  O   UNL     1      -3.171   1.962  23.140  0.00  0.00    -0.219 OA
ATOM      2  C   UNL     1      -2.919   2.279  23.859  0.00  0.00    +0.199 C 
ATOM      3  C   UNL     1      -2.204   2.117  24.237  0.00  0.00    +0.169 C 
ATOM     14  O   UNL     1      -2.181   2.552  24.938  0.00  0.00    -0.350 OA
ATOM     15  C   UNL     1      -2.882   2.983  24.993  0.00  0.00    +0.162 C 
ATOM     16  C   UNL     1      -3.339   2.815  24.326  0.00  0.00    +0.135 C 
ENDROOT
BRANCH   3   4
ATOM      4  C   UNL     1      -1.615   1.609  23.961  0.00  0.00    +0.149 C 
BRANCH   4   5
ATOM      5  N   UNL     1      -1.470   0.896  24.351  0.00  0.00    -0.186 NA
ATOM      6  C   UNL     1      -0.844   0.416  24.113  0.00  0.00    +0.323 C 
ATOM      7  O   UNL     1      -0.361   0.649  23.485  0.00  0.00    -0.251 OA
ATOM      8  N   UNL     1      -0.698  -0.297  24.502  0.00  0.00    -0.258 N 
ATOM      9  C   UNL     1      -0.071  -0.777  24.264  0.00  0.00    +0.127 C 
ATOM     10  C   UNL     1       0.073  -1.490  24.653  0.00  0.00    +0.164 C 
ATOM     11  O   UNL     1      -0.409  -1.723  25.281  0.00  0.00    -0.350 OA
ATOM     12  C   UNL     1      -1.036  -1.242  25.519  0.00  0.00    +0.164 C 
ATOM     13  C   UNL     1      -1.181  -0.530  25.130  0.00  0.00    +0.127 C 
ENDBRANCH   4   5
ENDBRANCH   3   4
BRANCH  16  17
ATOM     17  N   UNL     1      -4.083   3.127  24.157  0.00  0.00    -0.215 NA
BRANCH  17  18
ATOM     18  C   UNL     1      -4.670   3.134  24.737  0.00  0.00    +0.078 C 
ATOM     19  C   UNL     1      -5.142   2.468  24.855  0.00  0.00    +0.050 C 
ATOM     20  C   UNL     1      -5.728   2.475  25.435  0.00  0.00    +0.144 C 
ATOM     21  O   UNL     1      -5.843   3.149  25.897  0.00  0.00    -0.354 OA
ATOM     22  C   UNL     1      -5.371   3.815  25.779  0.00  0.00    +0.144 C 
ATOM     23  C   UNL     1      -4.784   3.807  25.199  0.00  0.00    +0.050 C 
ENDBRANCH  17  18
ENDBRANCH  16  17
TORSDOF 4
ENDMDL
MODEL 6
REMARK VINA RESULT:      -7.8     15.882     18.690
REMARK  Name = 
REMARK  4 active torsions:
REMARK  status: ('A' for Active; 'I' for Inactive)
REMARK    1  A    between atoms: C_3  and  C_4
REMARK    2  A    between atoms: C_4  and  N_5
REMARK    3  A    between atoms: C_16  and  N_17
REMARK    4  A    between atoms: N_17  and  C_18
REMARK                            x       y       z     vdW  Elec       q    Type
REMARK                         _______ _______ _______ _____ _____    ______ ____
ROOT
ATOM      1  O   UNL     1      12.196   6.799  18.992  0.00  0.00    -0.219 OA
ATOM      2  C   UNL     1      12.530   7.389  19.462  0.00  0.00    +0.199 C 
ATOM      3  C   UNL     1      13.332   7.575  19.509  0.00  0.00    +0.169 C 
ATOM     14  O   UNL     1      13.418   8.198  20.043  0.00  0.00    -0.350 OA
ATOM     15  C   UNL     1      12.670   8.396  20.327  0.00  0.00    +0.162 C 
ATOM     16  C   UNL     1      12.120   7.896  19.967  0.00  0.00    +0.135 C 
ENDROOT
BRANCH   3   4
ATOM      4  C   UNL     1      13.941   7.204  19.094  0.00  0.00    +0.149 C 
BRANCH   4   5
ATOM      5  N   UNL     1      14.648   7.019  19.477  0.00  0.00    -0.186 NA
ATOM      6  C   UNL     1      15.284   6.719  19.046  0.00  0.00    +0.323 C 
ATOM      7  O   UNL     1      15.213   6.603  18.232  0.00  0.00    -0.251 OA
ATOM      8  N   UNL     1      15.992   6.534  19.429  0.00  0.00    -0.258 N 
ATOM      9  C   UNL     1      16.627   6.233  18.998  0.00  0.00    +0.127 C 
ATOM     10  C   UNL     1      17.334   6.049  19.381  0.00  0.00    +0.164 C 
ATOM     11  O   UNL     1      17.405   6.164  20.194  0.00  0.00    -0.350 OA
ATOM     12  C   UNL     1      16.769   6.465  20.626  0.00  0.00    +0.164 C 
ATOM     13  C   UNL     1      16.062   6.649  20.243  0.00  0.00    +0.127 C 
ENDBRANCH   4   5
ENDBRANCH   3   4
BRANCH  16  17
ATOM     17  N   UNL     1      11.305   7.903  20.092  0.00  0.00    -0.215 NA
BRANCH  17  18
ATOM     18  C   UNL     1      11.004   7.965  20.857  0.00  0.00    +0.078 C 
ATOM     19  C   UNL     1      10.871   8.708  21.189  0.00  0.00    +0.050 C 
ATOM     20  C   UNL     1      10.570   8.771  21.955  0.00  0.00    +0.144 C 
ATOM     21  O   UNL     1      10.403   8.090  22.389  0.00  0.00    -0.354 OA
ATOM     22  C   UNL     1      10.536   7.346  22.057  0.00  0.00    +0.144 C 
ATOM     23  C   UNL     1      10.837   7.284  21.291  0.00  0.00    +0.050 C 
ENDBRANCH  17  18
ENDBRANCH  16  17
TORSDOF 4
ENDMDL
MODEL 7
REMARK VINA RESULT:      -7.7      2.511      3.753
REMARK  Name = 
REMARK  4 active torsions:
REMARK  status: ('A' for Active; 'I' for Inactive)
REMARK    1  A    between atoms: C_3  and  C_4
REMARK    2  A    between atoms: C_4  and  N_5
REMARK    3  A    between atoms: C_16  and  N_17
REMARK    4  A    between atoms: N_17  and  C_18
REMARK                            x       y       z     vdW  Elec       q    Type
REMARK                         _______ _______ _______ _____ _____    ______ ____
ROOT
ATOM      1  O   UNL     1      -1.067   2.316  25.753  0.00  0.00    -0.219 OA
ATOM      2  C   UNL     1      -1.278   2.223  24.961  0.00  0.00    +0.199 C 
ATOM      3  C   UNL     1      -1.961   2.514  24.603  0.00  0.00    +0.169 C 
ATOM     14  O   UNL     1      -1.947   2.293  23.808  0.00  0.00    -0.350 OA
ATOM     15  C   UNL     1      -1.255   1.864  23.675  0.00  0.00    +0.162 C 
ATOM     16  C   UNL     1      -0.841   1.820  24.388  0.00  0.00    +0.135 C 
ENDROOT
BRANCH   3   4
ATOM      4  C   UNL     1      -2.554   2.951  24.975  0.00  0.00    +0.149 C 
BRANCH   4   5
ATOM      5  N   UNL     1      -3.331   2.675  24.976  0.00  0.00    -0.186 NA
ATOM      6  C   UNL     1      -3.927   3.120  25.331  0.00  0.00    +0.323 C 
ATOM      7  O   UNL     1      -3.746   3.843  25.686  0.00  0.00    -0.251 OA
ATOM      8  N   UNL     1      -4.705   2.844  25.333  0.00  0.00    -0.258 N 
ATOM      9  C   UNL     1      -5.301   3.289  25.688  0.00  0.00    +0.127 C 
ATOM     10  C   UNL     1      -6.078   3.012  25.689  0.00  0.00    +0.164 C 
ATOM     11  O   UNL     1      -6.259   2.290  25.335  0.00  0.00    -0.350 OA
ATOM     12  C   UNL     1      -5.662   1.844  24.980  0.00  0.00    +0.164 C 
ATOM     13  C   UNL     1      -4.885   2.121  24.978  0.00  0.00    +0.127 C 
ENDBRANCH   4   5
ENDBRANCH   3   4
BRANCH  16  17
ATOM     17  N   UNL     1      -0.119   1.441  24.506  0.00  0.00    -0.215 NA
BRANCH  17  18
ATOM     18  C   UNL     1       0.018   0.699  24.173  0.00  0.00    +0.078 C 
ATOM     19  C   UNL     1      -0.302   0.025  24.521  0.00  0.00    +0.050 C 
ATOM     20  C   UNL     1      -0.165  -0.718  24.188  0.00  0.00    +0.144 C 
ATOM     21  O   UNL     1       0.293  -0.785  23.505  0.00  0.00    -0.354 OA
ATOM     22  C   UNL     1       0.614  -0.110  23.156  0.00  0.00    +0.144 C 
ATOM     23  C   UNL     1       0.476   0.632  23.490  0.00  0.00    +0.050 C 
ENDBRANCH  17  18
ENDBRANCH  16  17
TORSDOF 4
ENDMDL
MODEL 8
REMARK VINA RESULT:      -7.3     15.804     18.662
REMARK  Name = 
REMARK  4 active torsions:
REMARK  status: ('A' for Active; 'I' for Inactive)
REMARK    1  A    between atoms: C_3  and  C_4
REMARK    2  A    between atoms: C_4  and  N_5
REMARK    3  A    between atoms: C_16  and  N_17
REMARK    4  A    between atoms: N_17  and  C_18
REMARK                            x       y       z     vdW  Elec       q    Type
REMARK                         _______ _______ _______ _____ _____    ______ ____
ROOT
ATOM      1  O   UNL     1      13.598   7.381  18.775  0.00  0.00    -0.219 OA
ATOM      2  C   UNL     1      13.922   7.114  19.486  0.00  0.00    +0.199 C 
ATOM      3  C   UNL     1      13.498   6.867  20.149  0.00  0.00    +0.169 C 
ATOM     14  O   UNL     1      14.041   6.648  20.731  0.00  0.00    -0.350 OA
ATOM     15  C   UNL     1      14.800   6.759  20.427  0.00  0.00    +0.162 C 
ATOM     16  C   UNL     1      14.726   7.047  19.657  0.00  0.00    +0.135 C 
ENDROOT
BRANCH   3   4
ATOM      4  C   UNL     1      12.676   6.844  20.219  0.00  0.00    +0.149 C 
BRANCH   4   5
ATOM      5  N   UNL     1      12.300   7.275  20.813  0.00  0.00    -0.186 NA
ATOM      6  C   UNL     1      11.530   7.084  21.036  0.00  0.00    +0.323 C 
ATOM      7  O   UNL     1      11.135   6.461  20.666  0.00  0.00    -0.251 OA
ATOM      8  N   UNL     1      11.153   7.515  21.631  0.00  0.00    -0.258 N 
ATOM      9  C   UNL     1      10.383   7.324  21.855  0.00  0.00    +0.127 C 
ATOM     10  C   UNL     1      10.007   7.755  22.449  0.00  0.00    +0.164 C 
ATOM     11  O   UNL     1      10.401   8.378  22.819  0.00  0.00    -0.350 OA
ATOM     12  C   UNL     1      11.172   8.569  22.595  0.00  0.00    +0.164 C 
ATOM     13  C   UNL     1      11.548   8.138  22.001  0.00  0.00    +0.127 C 
ENDBRANCH   4   5
ENDBRANCH   3   4
BRANCH  16  17
ATOM     17  N   UNL     1      15.348   7.235  19.149  0.00  0.00    -0.215 NA
BRANCH  17  18
ATOM     18  C   UNL     1      16.033   6.777  19.147  0.00  0.00    +0.078 C 
ATOM     19  C   UNL     1      16.123   6.170  18.596  0.00  0.00    +0.050 C 
ATOM     20  C   UNL     1      16.808   5.711  18.594  0.00  0.00    +0.144 C 
ATOM     21  O   UNL     1      17.405   5.859  19.143  0.00  0.00    -0.354 OA
ATOM     22  C   UNL     1      17.316   6.467  19.695  0.00  0.00    +0.144 C 
ATOM     23  C   UNL     1      16.630   6.925  19.696  0.00  0.00    +0.050 C 
ENDBRANCH  17  18
ENDBRANCH  16  17
TORSDOF 4
ENDMDL
MODEL 9
REMARK VINA RESULT:      -7.3     17.886     19.319
REMARK  Name = 
REMARK  4 active torsions:
REMARK  status: ('A' for Active; 'I' for Inactive)
REMARK    1  A    between atoms: C_3  and  C_4
REMARK    2  A    between atoms: C_4  and  N_5
REMARK    3  A    between atoms: C_16  and  N_17
REMARK    4  A    between atoms: N_17  and  C_18
REMARK                            x       y       z     vdW  Elec       q    Type
REMARK                         _______ _______ _______ _____ _____    ______ ____
ROOT
ATOM      1  O   UNL     1      13.069   6.462  19.753  0.00  0.00    -0.219 OA
ATOM      2  C   UNL     1      13.537   7.132  19.642  0.00  0.00    +0.199 C 
ATOM      3  C   UNL     1      13.300   7.835  19.283  0.00  0.00    +0.169 C 
ATOM     14  O   UNL     1      13.942   8.354  19.289  0.00  0.00    -0.350 OA
ATOM     15  C   UNL     1      14.576   7.971  19.652  0.00  0.00    +0.162 C 
ATOM     16  C   UNL     1      14.326   7.215  19.870  0.00  0.00    +0.135 C 
ENDROOT
BRANCH   3   4
ATOM      4  C   UNL     1      12.552   7.993  18.972  0.00  0.00    +0.149 C 
BRANCH   4   5
ATOM      5  N   UNL     1      12.474   8.235  18.187  0.00  0.00    -0.186 NA
ATOM      6  C   UNL     1      11.725   8.367  17.869  0.00  0.00    +0.323 C 
ATOM      7  O   UNL     1      11.053   8.257  18.336  0.00  0.00    -0.251 OA
ATOM      8  N   UNL     1      11.646   8.609  17.084  0.00  0.00    -0.258 N 
ATOM      9  C   UNL     1      10.897   8.741  16.766  0.00  0.00    +0.127 C 
ATOM     10  C   UNL     1      10.819   8.983  15.981  0.00  0.00    +0.164 C 
ATOM     11  O   UNL     1      11.490   9.093  15.515  0.00  0.00    -0.350 OA
ATOM     12  C   UNL     1      12.240   8.961  15.833  0.00  0.00    +0.164 C 
ATOM     13  C   UNL     1      12.318   8.719  16.618  0.00  0.00    +0.127 C 
ENDBRANCH   4   5
ENDBRANCH   3   4
BRANCH  16  17
ATOM     17  N   UNL     1      14.784   6.644  20.249  0.00  0.00    -0.215 NA
BRANCH  17  18
ATOM     18  C   UNL     1      15.602   6.635  20.146  0.00  0.00    +0.078 C 
ATOM     19  C   UNL     1      15.930   6.287  19.474  0.00  0.00    +0.050 C 
ATOM     20  C   UNL     1      16.748   6.278  19.370  0.00  0.00    +0.144 C 
ATOM     21  O   UNL     1      17.239   6.617  19.940  0.00  0.00    -0.354 OA
ATOM     22  C   UNL     1      16.912   6.965  20.613  0.00  0.00    +0.144 C 
ATOM     23  C   UNL     1      16.093   6.974  20.715  0.00  0.00    +0.050 C 
ENDBRANCH  17  18
ENDBRANCH  16  17
TORSDOF 4
ENDMDL
MODEL 10
REMARK VINA RESULT:      -6.6     16.324     19.287
REMARK  Name = 
REMARK  4 active torsions:
REMARK  status: ('A' for Active; 'I' for Inactive)
REMARK    1  A    between atoms: C_3  and  C_4
REMARK    2  A    between atoms: C_4  and  N_5
REMARK    3  A    between atoms: C_16  and  N_17
REMARK    4  A    between atoms: N_17  and  C_18
REMARK                            x       y       z     vdW  Elec       q    Type
REMARK                         _______ _______ _______ _____ _____    ______ ____
ROOT
ATOM      1  O   UNL     1      14.601   8.989  22.128  0.00  0.00    -0.219 OA
ATOM      2  C   UNL     1      14.131   8.356  21.885  0.00  0.00    +0.199 C 
ATOM      3  C   UNL     1      14.402   7.639  21.582  0.00  0.00    +0.169 C 
ATOM     14  O   UNL     1      13.745   7.168  21.413  0.00  0.00    -0.350 OA
ATOM     15  C   UNL     1      13.068   7.595  21.612  0.00  0.00    +0.162 C 
ATOM     16  C   UNL     1      13.306   8.329  21.904  0.00  0.00    +0.135 C 
ENDROOT
BRANCH   3   4
ATOM      4  C   UNL     1      15.192   7.428  21.468  0.00  0.00    +0.149 C 
BRANCH   4   5
ATOM      5  N   UNL     1      15.430   7.091  20.753  0.00  0.00    -0.186 NA
ATOM      6  C   UNL     1      16.179   6.755  20.686  0.00  0.00    +0.323 C 
ATOM      7  O   UNL     1      16.692   6.756  21.332  0.00  0.00    -0.251 OA
ATOM      8  N   UNL     1      16.418   6.417  19.971  0.00  0.00    -0.258 N 
ATOM      9  C   UNL     1      17.168   6.081  19.903  0.00  0.00    +0.127 C 
ATOM     10  C   UNL     1      17.405   5.744  19.189  0.00  0.00    +0.164 C 
ATOM     11  O   UNL     1      16.893   5.743  18.542  0.00  0.00    -0.350 OA
ATOM     12  C   UNL     1      16.143   6.080  18.610  0.00  0.00    +0.164 C 
ATOM     13  C   UNL     1      15.905   6.417  19.325  0.00  0.00    +0.127 C 
ENDBRANCH   4   5
ENDBRANCH   3   4
BRANCH  16  17
ATOM     17  N   UNL     1      12.807   8.930  22.168  0.00  0.00    -0.215 NA
BRANCH  17  18
ATOM     18  C   UNL     1      11.996   8.888  22.022  0.00  0.00    +0.078 C 
ATOM     19  C   UNL     1      11.702   9.062  21.272  0.00  0.00    +0.050 C 
ATOM     20  C   UNL     1      10.891   9.020  21.126  0.00  0.00    +0.144 C 
ATOM     21  O   UNL     1      10.374   8.804  21.731  0.00  0.00    -0.354 OA
ATOM     22  C   UNL     1      10.668   8.630  22.483  0.00  0.00    +0.144 C 
ATOM     23  C   UNL     1      11.479   8.673  22.628  0.00  0.00    +0.050 C 
ENDBRANCH  17  18
ENDBRANCH  16  17
TORSDOF 4
ENDMDL
