MODEL 1
REMARK VINA RESULT:      -8.5      0.000      0.000
REMARK  Name = 
REMARK  8 active torsions:
REMARK  status: ('A' for Active; 'I' for Inactive)
REMARK    1  A    between atoms: O_2  and  C_3
REMARK    2  A    between atoms: C_6  and  C_7
REMARK    3  A    between atoms: C_7  and  N_8
REMARK    4  A    between atoms: C_9  and  C_11
REMARK    5  A    between atoms: C_11  and  C_12
REMARK    6  A    between atoms: C_12  and  C_13
REMARK    7  A    between atoms: N_22  and  C_23
REMARK    8  A    between atoms: C_23  and  C_24
REMARK                            x       y       z     vdW  Elec       q    Type
REMARK                         _______ _______ _______ _____ _____    ______ ____
ROOT
ATOM     13  C   UNL     1      -1.102   0.878  23.942  0.00  0.00    +0.080 C 
ATOM     14  C   UNL     1      -1.032   1.663  23.698  0.00  0.00    +0.131 C 
ATOM     15  N   UNL     1      -1.586   2.272  23.758  0.00  0.00    -0.203 NA
ATOM     16  C   UNL     1      -2.347   2.245  24.076  0.00  0.00    +0.257 C 
ATOM     17  O   UNL     1      -2.769   2.953  24.055  0.00  0.00    -0.272 OA
ATOM     18  C   UNL     1      -2.740   1.604  24.414  0.00  0.00    +0.152 C 
ATOM     19  C   UNL     1      -2.472   0.830  24.516  0.00  0.00    +0.083 C 
ATOM     20  C   UNL     1      -3.072   0.398  24.881  0.00  0.00    +0.035 C 
ATOM     21  C   UNL     1      -3.712   0.903  25.004  0.00  0.00    +0.074 C 
ATOM     22  N   UNL     1      -3.507   1.649  24.715  0.00  0.00    -0.259 NA
ATOM     29  N   UNL     1      -1.743   0.508  24.306  0.00  0.00    -0.271 NA
ATOM     30  C   UNL     1      -1.641  -0.292  24.484  0.00  0.00    +0.090 C 
ENDROOT
BRANCH  13  12
ATOM     12  C   UNL     1      -0.443   0.400  23.803  0.00  0.00    +0.027 C 
BRANCH  12  11
ATOM     11  C   UNL     1       0.247   0.729  23.494  0.00  0.00    +0.088 C 
BRANCH  11   9
ATOM      8  N   UNL     1       1.598   0.462  23.111  0.00  0.00    -0.201 NA
ATOM      9  C   UNL     1       0.801   0.247  23.118  0.00  0.00    +0.242 C 
ATOM     10  O   UNL     1       0.558  -0.450  22.749  0.00  0.00    -0.273 OA
BRANCH   8   7
ATOM      7  C   UNL     1       2.151  -0.020  22.734  0.00  0.00    +0.141 C 
BRANCH   7   6
ATOM      3  C   UNL     1       4.570   0.356  23.100  0.00  0.00    +0.139 A 
ATOM      4  C   UNL     1       4.223  -0.357  23.331  0.00  0.00    +0.037 A 
ATOM      5  C   UNL     1       3.418  -0.482  23.209  0.00  0.00    +0.001 A 
ATOM      6  C   UNL     1       2.958   0.105  22.856  0.00  0.00    -0.000 A 
ATOM     31  C   UNL     1       3.303   0.818  22.626  0.00  0.00    +0.001 A 
ATOM     32  C   UNL     1       4.110   0.943  22.748  0.00  0.00    +0.037 A 
BRANCH   3   2
ATOM      1  C   UNL     1       5.756   0.132  23.866  0.00  0.00    +0.252 C 
ATOM      2  O   UNL     1       5.376   0.481  23.222  0.00  0.00    -0.471 OA
ENDBRANCH   3   2
ENDBRANCH   7   6
ENDBRANCH   8   7
ENDBRANCH  11   9
ENDBRANCH  12  11
ENDBRANCH  13  12
BRANCH  22  23
ATOM     23  C   UNL     1      -3.985   2.322  24.726  0.00  0.00    +0.139 C 
BRANCH  23  24
ATOM     24  C   UNL     1      -4.754   2.277  25.023  0.00  0.00    +0.155 A 
ATOM     25  N   UNL     1      -5.415   1.998  24.617  0.00  0.00    -0.226 NA
ATOM     26  C   UNL     1      -6.066   2.052  25.122  0.00  0.00    +0.121 A 
ATOM     27  C   UNL     1      -5.805   2.366  25.840  0.00  0.00    +0.121 A 
ATOM     28  N   UNL     1      -4.995   2.504  25.779  0.00  0.00    -0.226 NA
ENDBRANCH  23  24
ENDBRANCH  22  23
TORSDOF 8
ENDMDL
MODEL 2
REMARK VINA RESULT:      -7.1      1.548      7.084
REMARK  Name = 
REMARK  8 active torsions:
REMARK  status: ('A' for Active; 'I' for Inactive)
REMARK    1  A    between atoms: O_2  and  C_3
REMARK    2  A    between atoms: C_6  and  C_7
REMARK    3  A    between atoms: C_7  and  N_8
REMARK    4  A    between atoms: C_9  and  C_11
REMARK    5  A    between atoms: C_11  and  C_12
REMARK    6  A    between atoms: C_12  and  C_13
REMARK    7  A    between atoms: N_22  and  C_23
REMARK    8  A    between atoms: C_23  and  C_24
REMARK                            x       y       z     vdW  Elec       q    Type
REMARK                         _______ _______ _______ _____ _____    ______ ____
ROOT
ATOM     13  C   UNL     1      -0.592   0.323  24.129  0.00  0.00    +0.080 C 
ATOM     14  C   UNL     1      -0.453   1.082  24.417  0.00  0.00    +0.131 C 
ATOM     15  N   UNL     1       0.222   1.550  24.331  0.00  0.00    -0.203 NA
ATOM     16  C   UNL     1       0.923   1.372  23.933  0.00  0.00    +0.257 C 
ATOM     17  O   UNL     1       1.501   1.960  23.946  0.00  0.00    -0.272 OA
ATOM     18  C   UNL     1       1.122   0.683  23.525  0.00  0.00    +0.152 C 
ATOM     19  C   UNL     1       0.670   0.002  23.413  0.00  0.00    +0.083 C 
ATOM     20  C   UNL     1       1.116  -0.530  22.967  0.00  0.00    +0.035 C 
ATOM     21  C   UNL     1       1.844  -0.177  22.803  0.00  0.00    +0.074 C 
ATOM     22  N   UNL     1       1.848   0.572  23.148  0.00  0.00    -0.259 NA
ATOM     29  N   UNL     1      -0.093  -0.158  23.682  0.00  0.00    -0.271 NA
ATOM     30  C   UNL     1      -0.396  -0.898  23.476  0.00  0.00    +0.090 C 
ENDROOT
BRANCH  13  12
ATOM     12  C   UNL     1      -1.330   0.000  24.312  0.00  0.00    +0.027 C 
BRANCH  12  11
ATOM     11  C   UNL     1      -1.804   0.355  24.887  0.00  0.00    +0.088 C 
BRANCH  11   9
ATOM      8  N   UNL     1      -3.134   0.876  24.894  0.00  0.00    -0.201 NA
ATOM      9  C   UNL     1      -2.619   0.231  24.882  0.00  0.00    +0.242 C 
ATOM     10  O   UNL     1      -2.920  -0.537  24.866  0.00  0.00    -0.273 OA
BRANCH   8   7
ATOM      7  C   UNL     1      -3.950   0.752  24.889  0.00  0.00    +0.141 C 
BRANCH   7   6
ATOM      3  C   UNL     1      -5.491   2.654  25.255  0.00  0.00    +0.139 A 
ATOM      4  C   UNL     1      -4.779   2.771  24.855  0.00  0.00    +0.037 A 
ATOM      5  C   UNL     1      -4.265   2.138  24.734  0.00  0.00    +0.001 A 
ATOM      6  C   UNL     1      -4.464   1.387  25.011  0.00  0.00    -0.000 A 
ATOM     31  C   UNL     1      -5.176   1.269  25.410  0.00  0.00    +0.001 A 
ATOM     32  C   UNL     1      -5.690   1.903  25.532  0.00  0.00    +0.037 A 
BRANCH   3   2
ATOM      1  C   UNL     1      -5.708   4.023  25.606  0.00  0.00    +0.252 C 
ATOM      2  O   UNL     1      -6.005   3.288  25.377  0.00  0.00    -0.471 OA
ENDBRANCH   3   2
ENDBRANCH   7   6
ENDBRANCH   8   7
ENDBRANCH  11   9
ENDBRANCH  12  11
ENDBRANCH  13  12
BRANCH  22  23
ATOM     23  C   UNL     1       2.468   1.115  23.120  0.00  0.00    +0.139 C 
BRANCH  23  24
ATOM     24  C   UNL     1       3.230   0.863  22.928  0.00  0.00    +0.155 A 
ATOM     25  N   UNL     1       3.521   0.739  22.166  0.00  0.00    -0.226 NA
ATOM     26  C   UNL     1       4.305   0.489  22.231  0.00  0.00    +0.121 A 
ATOM     27  C   UNL     1       4.497   0.460  23.033  0.00  0.00    +0.121 A 
ATOM     28  N   UNL     1       3.833   0.690  23.463  0.00  0.00    -0.226 NA
ENDBRANCH  23  24
ENDBRANCH  22  23
TORSDOF 8
ENDMDL
MODEL 3
REMARK VINA RESULT:      -6.5     14.849     15.553
REMARK  Name = 
REMARK  8 active torsions:
REMARK  status: ('A' for Active; 'I' for Inactive)
REMARK    1  A    between atoms: O_2  and  C_3
REMARK    2  A    between atoms: C_6  and  C_7
REMARK    3  A    between atoms: C_7  and  N_8
REMARK    4  A    between atoms: C_9  and  C_11
REMARK    5  A    between atoms: C_11  and  C_12
REMARK    6  A    between atoms: C_12  and  C_13
REMARK    7  A    between atoms: N_22  and  C_23
REMARK    8  A    between atoms: C_23  and  C_24
REMARK                            x       y       z     vdW  Elec       q    Type
REMARK                         _______ _______ _______ _____ _____    ______ ____
ROOT
ATOM     13  C   UNL     1      -6.117 -10.151  14.151  0.00  0.00    +0.080 C 
ATOM     14  C   UNL     1      -5.574 -10.058  14.764  0.00  0.00    +0.131 C 
ATOM     15  N   UNL     1      -5.719  -9.882  15.558  0.00  0.00    -0.203 NA
ATOM     16  C   UNL     1      -6.443  -9.756  15.932  0.00  0.00    +0.257 C 
ATOM     17  O   UNL     1      -6.405  -9.589  16.739  0.00  0.00    -0.272 OA
ATOM     18  C   UNL     1      -7.201  -9.775  15.606  0.00  0.00    +0.152 C 
ATOM     19  C   UNL     1      -7.422  -9.924  14.826  0.00  0.00    +0.083 C 
ATOM     20  C   UNL     1      -8.244  -9.880  14.780  0.00  0.00    +0.035 C 
ATOM     21  C   UNL     1      -8.532  -9.704  15.533  0.00  0.00    +0.074 C 
ATOM     22  N   UNL     1      -7.887  -9.639  16.044  0.00  0.00    -0.259 NA
ATOM     29  N   UNL     1      -6.939 -10.092  14.178  0.00  0.00    -0.271 NA
ATOM     30  C   UNL     1      -7.331 -10.216  13.463  0.00  0.00    +0.090 C 
ENDROOT
BRANCH  13  12
ATOM     12  C   UNL     1      -5.795 -10.327  13.411  0.00  0.00    +0.027 C 
BRANCH  12  11
ATOM     11  C   UNL     1      -4.976 -10.342  13.311  0.00  0.00    +0.088 C 
BRANCH  11   9
ATOM      8  N   UNL     1      -3.869 -10.253  12.412  0.00  0.00    -0.201 NA
ATOM      9  C   UNL     1      -4.655 -10.458  12.560  0.00  0.00    +0.242 C 
ATOM     10  O   UNL     1      -5.119 -10.779  11.958  0.00  0.00    -0.273 OA
BRANCH   8   7
ATOM      7  C   UNL     1      -3.548 -10.369  11.661  0.00  0.00    +0.141 C 
BRANCH   7   6
ATOM      3  C   UNL     1      -1.350  -9.384  11.090  0.00  0.00    +0.139 A 
ATOM      4  C   UNL     1      -1.402  -9.973  11.665  0.00  0.00    +0.037 A 
ATOM      5  C   UNL     1      -2.134 -10.302  11.856  0.00  0.00    +0.001 A 
ATOM      6  C   UNL     1      -2.815 -10.041  11.471  0.00  0.00    -0.000 A 
ATOM     31  C   UNL     1      -2.765  -9.451  10.896  0.00  0.00    +0.001 A 
ATOM     32  C   UNL     1      -2.031  -9.123  10.705  0.00  0.00    +0.037 A 
BRANCH   3   2
ATOM      1  C   UNL     1      -0.221  -8.584  11.449  0.00  0.00    +0.252 C 
ATOM      2  O   UNL     1      -0.618  -9.056  10.900  0.00  0.00    -0.471 OA
ENDBRANCH   3   2
ENDBRANCH   7   6
ENDBRANCH   8   7
ENDBRANCH  11   9
ENDBRANCH  12  11
ENDBRANCH  13  12
BRANCH  22  23
ATOM     23  C   UNL     1      -7.922  -9.467  16.850  0.00  0.00    +0.139 C 
BRANCH  23  24
ATOM     24  C   UNL     1      -8.642  -9.263  17.198  0.00  0.00    +0.155 A 
ATOM     25  N   UNL     1      -9.158  -9.778  17.583  0.00  0.00    -0.226 NA
ATOM     26  C   UNL     1      -9.807  -9.341  17.844  0.00  0.00    +0.121 A 
ATOM     27  C   UNL     1      -9.691  -8.555  17.620  0.00  0.00    +0.121 A 
ATOM     28  N   UNL     1      -8.972  -8.507  17.221  0.00  0.00    -0.226 NA
ENDBRANCH  23  24
ENDBRANCH  22  23
TORSDOF 8
ENDMDL
MODEL 4
REMARK VINA RESULT:      -6.5      2.603      4.049
REMARK  Name = 
REMARK  8 active torsions:
REMARK  status: ('A' for Active; 'I' for Inactive)
REMARK    1  A    between atoms: O_2  and  C_3
REMARK    2  A    between atoms: C_6  and  C_7
REMARK    3  A    between atoms: C_7  and  N_8
REMARK    4  A    between atoms: C_9  and  C_11
REMARK    5  A    between atoms: C_11  and  C_12
REMARK    6  A    between atoms: C_12  and  C_13
REMARK    7  A    between atoms: N_22  and  C_23
REMARK    8  A    between atoms: C_23  and  C_24
REMARK                            x       y       z     vdW  Elec       q    Type
REMARK                         _______ _______ _______ _____ _____    ______ ____
ROOT
ATOM     13  C   UNL     1      -1.212   2.032  24.261  0.00  0.00    +0.080 C 
ATOM     14  C   UNL     1      -0.993   2.324  25.001  0.00  0.00    +0.131 C 
ATOM     15  N   UNL     1      -1.427   2.804  25.513  0.00  0.00    -0.203 NA
ATOM     16  C   UNL     1      -2.187   3.110  25.412  0.00  0.00    +0.257 C 
ATOM     17  O   UNL     1      -2.471   3.576  26.030  0.00  0.00    -0.272 OA
ATOM     18  C   UNL     1      -2.699   3.012  24.773  0.00  0.00    +0.152 C 
ATOM     19  C   UNL     1      -2.580   2.584  24.078  0.00  0.00    +0.083 C 
ATOM     20  C   UNL     1      -3.258   2.657  23.613  0.00  0.00    +0.035 C 
ATOM     21  C   UNL     1      -3.796   3.130  24.021  0.00  0.00    +0.074 C 
ATOM     22  N   UNL     1      -3.451   3.350  24.738  0.00  0.00    -0.259 NA
ATOM     29  N   UNL     1      -1.918   2.148  23.850  0.00  0.00    -0.271 NA
ATOM     30  C   UNL     1      -1.969   1.778  23.114  0.00  0.00    +0.090 C 
ENDROOT
BRANCH  13  12
ATOM     12  C   UNL     1      -0.649   1.562  23.881  0.00  0.00    +0.027 C 
BRANCH  12  11
ATOM     11  C   UNL     1      -0.146   1.082  24.325  0.00  0.00    +0.088 C 
BRANCH  11   9
ATOM      8  N   UNL     1      -0.575  -0.254  24.595  0.00  0.00    -0.201 NA
ATOM      9  C   UNL     1      -0.105   0.273  24.168  0.00  0.00    +0.242 C 
ATOM     10  O   UNL     1       0.406  -0.008  23.584  0.00  0.00    -0.273 OA
BRANCH   8   7
ATOM      7  C   UNL     1      -0.534  -1.063  24.437  0.00  0.00    +0.141 C 
BRANCH   7   6
ATOM      3  C   UNL     1      -2.525  -2.493  24.786  0.00  0.00    +0.139 A 
ATOM      4  C   UNL     1      -2.396  -1.839  25.272  0.00  0.00    +0.037 A 
ATOM      5  C   UNL     1      -1.733  -1.363  25.156  0.00  0.00    +0.001 A 
ATOM      6  C   UNL     1      -1.198  -1.540  24.554  0.00  0.00    -0.000 A 
ATOM     31  C   UNL     1      -1.326  -2.194  24.067  0.00  0.00    +0.001 A 
ATOM     32  C   UNL     1      -1.990  -2.671  24.184  0.00  0.00    +0.037 A 
BRANCH   3   2
ATOM      1  C   UNL     1      -3.846  -2.889  24.412  0.00  0.00    +0.252 C 
ATOM      2  O   UNL     1      -3.187  -2.970  24.902  0.00  0.00    -0.471 OA
ENDBRANCH   3   2
ENDBRANCH   7   6
ENDBRANCH   8   7
ENDBRANCH  11   9
ENDBRANCH  12  11
ENDBRANCH  13  12
BRANCH  22  23
ATOM     23  C   UNL     1      -3.798   3.824  25.317  0.00  0.00    +0.139 C 
BRANCH  23  24
ATOM     24  C   UNL     1      -4.611   3.786  25.451  0.00  0.00    +0.155 A 
ATOM     25  N   UNL     1      -5.161   4.369  25.260  0.00  0.00    -0.226 NA
ATOM     26  C   UNL     1      -5.908   4.101  25.490  0.00  0.00    +0.121 A 
ATOM     27  C   UNL     1      -5.817   3.351  25.822  0.00  0.00    +0.121 A 
ATOM     28  N   UNL     1      -5.016   3.156  25.798  0.00  0.00    -0.226 NA
ENDBRANCH  23  24
ENDBRANCH  22  23
TORSDOF 8
ENDMDL
MODEL 5
REMARK VINA RESULT:      -6.3     14.239     14.773
REMARK  Name = 
REMARK  8 active torsions:
REMARK  status: ('A' for Active; 'I' for Inactive)
REMARK    1  A    between atoms: O_2  and  C_3
REMARK    2  A    between atoms: C_6  and  C_7
REMARK    3  A    between atoms: C_7  and  N_8
REMARK    4  A    between atoms: C_9  and  C_11
REMARK    5  A    between atoms: C_11  and  C_12
REMARK    6  A    between atoms: C_12  and  C_13
REMARK    7  A    between atoms: N_22  and  C_23
REMARK    8  A    between atoms: C_23  and  C_24
REMARK                            x       y       z     vdW  Elec       q    Type
REMARK                         _______ _______ _______ _____ _____    ______ ____
ROOT
ATOM     13  C   UNL     1      -5.377 -10.230  16.896  0.00  0.00    +0.080 C 
ATOM     14  C   UNL     1      -5.333 -10.566  17.648  0.00  0.00    +0.131 C 
ATOM     15  N   UNL     1      -5.941 -10.686  18.195  0.00  0.00    -0.203 NA
ATOM     16  C   UNL     1      -6.741 -10.500  18.123  0.00  0.00    +0.257 C 
ATOM     17  O   UNL     1      -7.213 -10.691  18.772  0.00  0.00    -0.272 OA
ATOM     18  C   UNL     1      -7.132 -10.147  17.487  0.00  0.00    +0.152 C 
ATOM     19  C   UNL     1      -6.820  -9.894  16.767  0.00  0.00    +0.083 C 
ATOM     20  C   UNL     1      -7.436  -9.579  16.318  0.00  0.00    +0.035 C 
ATOM     21  C   UNL     1      -8.129  -9.637  16.761  0.00  0.00    +0.074 C 
ATOM     22  N   UNL     1      -7.942  -9.988  17.484  0.00  0.00    -0.259 NA
ATOM     29  N   UNL     1      -6.039  -9.931  16.504  0.00  0.00    -0.271 NA
ATOM     30  C   UNL     1      -5.901  -9.629  15.749  0.00  0.00    +0.090 C 
ENDROOT
BRANCH  13  12
ATOM     12  C   UNL     1      -4.665 -10.188  16.481  0.00  0.00    +0.027 C 
BRANCH  12  11
ATOM     11  C   UNL     1      -4.097 -10.779  16.575  0.00  0.00    +0.088 C 
BRANCH  11   9
ATOM      8  N   UNL     1      -3.242 -10.692  15.434  0.00  0.00    -0.201 NA
ATOM      9  C   UNL     1      -3.344 -10.681  16.253  0.00  0.00    +0.242 C 
ATOM     10  O   UNL     1      -2.694 -10.573  16.749  0.00  0.00    -0.273 OA
BRANCH   8   7
ATOM      7  C   UNL     1      -2.489 -10.594  15.112  0.00  0.00    +0.141 C 
BRANCH   7   6
ATOM      3  C   UNL     1      -2.203 -10.458  12.656  0.00  0.00    +0.139 A 
ATOM      4  C   UNL     1      -2.919 -10.716  12.975  0.00  0.00    +0.037 A 
ATOM      5  C   UNL     1      -3.015 -10.761  13.793  0.00  0.00    +0.001 A 
ATOM      6  C   UNL     1      -2.394 -10.549  14.293  0.00  0.00    -0.000 A 
ATOM     31  C   UNL     1      -1.678 -10.291  13.975  0.00  0.00    +0.001 A 
ATOM     32  C   UNL     1      -1.582 -10.246  13.156  0.00  0.00    +0.037 A 
BRANCH   3   2
ATOM      1  C   UNL     1      -2.743 -10.577  11.339  0.00  0.00    +0.252 C 
ATOM      2  O   UNL     1      -2.108 -10.413  11.839  0.00  0.00    -0.471 OA
ENDBRANCH   3   2
ENDBRANCH   7   6
ENDBRANCH   8   7
ENDBRANCH  11   9
ENDBRANCH  12  11
ENDBRANCH  13  12
BRANCH  22  23
ATOM     23  C   UNL     1      -8.471 -10.152  18.096  0.00  0.00    +0.139 C 
BRANCH  23  24
ATOM     24  C   UNL     1      -9.274  -9.988  18.001  0.00  0.00    +0.155 A 
ATOM     25  N   UNL     1      -9.647  -9.274  18.177  0.00  0.00    -0.226 NA
ATOM     26  C   UNL     1     -10.449  -9.355  17.999  0.00  0.00    +0.121 A 
ATOM     27  C   UNL     1     -10.570 -10.120  17.713  0.00  0.00    +0.121 A 
ATOM     28  N   UNL     1      -9.845 -10.511  17.715  0.00  0.00    -0.226 NA
ENDBRANCH  23  24
ENDBRANCH  22  23
TORSDOF 8
ENDMDL
MODEL 6
REMARK VINA RESULT:      -6.3     16.557     18.088
REMARK  Name = 
REMARK  8 active torsions:
REMARK  status: ('A' for Active; 'I' for Inactive)
REMARK    1  A    between atoms: O_2  and  C_3
REMARK    2  A    between atoms: C_6  and  C_7
REMARK    3  A    between atoms: C_7  and  N_8
REMARK    4  A    between atoms: C_9  and  C_11
REMARK    5  A    between atoms: C_11  and  C_12
REMARK    6  A    between atoms: C_12  and  C_13
REMARK    7  A    between atoms: N_22  and  C_23
REMARK    8  A    between atoms: C_23  and  C_24
REMARK                            x       y       z     vdW  Elec       q    Type
REMARK                         _______ _______ _______ _____ _____    ______ ____
ROOT
ATOM     13  C   UNL     1      -3.942 -10.271  11.121  0.00  0.00    +0.080 C 
ATOM     14  C   UNL     1      -3.209 -10.146  10.765  0.00  0.00    +0.131 C 
ATOM     15  N   UNL     1      -2.463 -10.121  11.118  0.00  0.00    -0.203 NA
ATOM     16  C   UNL     1      -2.267 -10.214  11.914  0.00  0.00    +0.257 C 
ATOM     17  O   UNL     1      -1.464 -10.159  12.094  0.00  0.00    -0.272 OA
ATOM     18  C   UNL     1      -2.768 -10.356  12.553  0.00  0.00    +0.152 C 
ATOM     19  C   UNL     1      -3.589 -10.439  12.556  0.00  0.00    +0.083 C 
ATOM     20  C   UNL     1      -3.830 -10.574  13.333  0.00  0.00    +0.035 C 
ATOM     21  C   UNL     1      -3.158 -10.574  13.812  0.00  0.00    +0.074 C 
ATOM     22  N   UNL     1      -2.501 -10.439  13.330  0.00  0.00    -0.259 NA
ATOM     29  N   UNL     1      -4.111 -10.401  11.919  0.00  0.00    -0.271 NA
ATOM     30  C   UNL     1      -4.908 -10.508  12.103  0.00  0.00    +0.090 C 
ENDROOT
BRANCH  13  12
ATOM     12  C   UNL     1      -4.593 -10.265  10.613  0.00  0.00    +0.027 C 
BRANCH  12  11
ATOM     11  C   UNL     1      -4.535  -9.903   9.874  0.00  0.00    +0.088 C 
BRANCH  11   9
ATOM      8  N   UNL     1      -5.754  -9.362   9.363  0.00  0.00    -0.201 NA
ATOM      9  C   UNL     1      -5.167  -9.942   9.347  0.00  0.00    +0.242 C 
ATOM     10  O   UNL     1      -5.214 -10.561   8.803  0.00  0.00    -0.273 OA
BRANCH   8   7
ATOM      7  C   UNL     1      -6.387  -9.401   8.835  0.00  0.00    +0.141 C 
BRANCH   7   6
ATOM      3  C   UNL     1      -8.235  -7.762   8.999  0.00  0.00    +0.139 A 
ATOM      4  C   UNL     1      -7.517  -7.542   8.658  0.00  0.00    +0.037 A 
ATOM      5  C   UNL     1      -6.901  -8.087   8.603  0.00  0.00    +0.001 A 
ATOM      6  C   UNL     1      -7.003  -8.854   8.890  0.00  0.00    -0.000 A 
ATOM     31  C   UNL     1      -7.721  -9.075   9.231  0.00  0.00    +0.001 A 
ATOM     32  C   UNL     1      -8.337  -8.529   9.286  0.00  0.00    +0.037 A 
BRANCH   3   2
ATOM      1  C   UNL     1      -9.591  -7.395   8.736  0.00  0.00    +0.252 C 
ATOM      2  O   UNL     1      -8.851  -7.216   9.054  0.00  0.00    -0.471 OA
ENDBRANCH   3   2
ENDBRANCH   7   6
ENDBRANCH   8   7
ENDBRANCH  11   9
ENDBRANCH  12  11
ENDBRANCH  13  12
BRANCH  22  23
ATOM     23  C   UNL     1      -1.716 -10.395  13.581  0.00  0.00    +0.139 C 
BRANCH  23  24
ATOM     24  C   UNL     1      -1.544 -10.260  14.376  0.00  0.00    +0.155 A 
ATOM     25  N   UNL     1      -1.717 -10.768  15.002  0.00  0.00    -0.226 NA
ATOM     26  C   UNL     1      -1.448 -10.416  15.698  0.00  0.00    +0.121 A 
ATOM     27  C   UNL     1      -1.109  -9.689  15.501  0.00  0.00    +0.121 A 
ATOM     28  N   UNL     1      -1.168  -9.593  14.684  0.00  0.00    -0.226 NA
ENDBRANCH  23  24
ENDBRANCH  22  23
TORSDOF 8
ENDMDL
MODEL 7
REMARK VINA RESULT:      -6.3      2.976      5.933
REMARK  Name = 
REMARK  8 active torsions:
REMARK  status: ('A' for Active; 'I' for Inactive)
REMARK    1  A    between atoms: O_2  and  C_3
REMARK    2  A    between atoms: C_6  and  C_7
REMARK    3  A    between atoms: C_7  and  N_8
REMARK    4  A    between atoms: C_9  and  C_11
REMARK    5  A    between atoms: C_11  and  C_12
REMARK    6  A    between atoms: C_12  and  C_13
REMARK    7  A    between atoms: N_22  and  C_23
REMARK    8  A    between atoms: C_23  and  C_24
REMARK                            x       y       z     vdW  Elec       q    Type
REMARK                         _______ _______ _______ _____ _____    ______ ____
ROOT
ATOM     13  C   UNL     1      -0.291   1.551  24.870  0.00  0.00    +0.080 C 
ATOM     14  C   UNL     1      -0.091   1.384  24.088  0.00  0.00    +0.131 C 
ATOM     15  N   UNL     1      -0.174   0.673  23.676  0.00  0.00    -0.203 NA
ATOM     16  C   UNL     1      -0.478  -0.045  23.946  0.00  0.00    +0.257 C 
ATOM     17  O   UNL     1      -0.488  -0.659  23.396  0.00  0.00    -0.272 OA
ATOM     18  C   UNL     1      -0.774  -0.229  24.694  0.00  0.00    +0.152 C 
ATOM     19  C   UNL     1      -0.839   0.257  25.356  0.00  0.00    +0.083 C 
ATOM     20  C   UNL     1      -1.170  -0.186  25.968  0.00  0.00    +0.035 C 
ATOM     21  C   UNL     1      -1.309  -0.948  25.684  0.00  0.00    +0.074 C 
ATOM     22  N   UNL     1      -1.065  -0.975  24.896  0.00  0.00    -0.259 NA
ATOM     29  N   UNL     1      -0.624   1.050  25.435  0.00  0.00    -0.271 NA
ATOM     30  C   UNL     1      -0.760   1.386  26.176  0.00  0.00    +0.090 C 
ENDROOT
BRANCH  13  12
ATOM     12  C   UNL     1      -0.137   2.322  25.122  0.00  0.00    +0.027 C 
BRANCH  12  11
ATOM     11  C   UNL     1      -0.311   2.959  24.627  0.00  0.00    +0.088 C 
BRANCH  11   9
ATOM      8  N   UNL     1      -1.599   3.555  24.789  0.00  0.00    -0.201 NA
ATOM      9  C   UNL     1      -0.781   3.578  24.902  0.00  0.00    +0.242 C 
ATOM     10  O   UNL     1      -0.436   4.218  25.290  0.00  0.00    -0.273 OA
BRANCH   8   7
ATOM      7  C   UNL     1      -2.070   4.174  25.065  0.00  0.00    +0.141 C 
BRANCH   7   6
ATOM      3  C   UNL     1      -4.495   3.820  25.416  0.00  0.00    +0.139 A 
ATOM      4  C   UNL     1      -4.003   3.978  26.060  0.00  0.00    +0.037 A 
ATOM      5  C   UNL     1      -3.195   4.096  25.943  0.00  0.00    +0.001 A 
ATOM      6  C   UNL     1      -2.879   4.056  25.182  0.00  0.00    -0.000 A 
ATOM     31  C   UNL     1      -3.369   3.898  24.538  0.00  0.00    +0.001 A 
ATOM     32  C   UNL     1      -4.178   3.780  24.656  0.00  0.00    +0.037 A 
BRANCH   3   2
ATOM      1  C   UNL     1      -5.605   2.936  25.585  0.00  0.00    +0.252 C 
ATOM      2  O   UNL     1      -5.302   3.702  25.533  0.00  0.00    -0.471 OA
ENDBRANCH   3   2
ENDBRANCH   7   6
ENDBRANCH   8   7
ENDBRANCH  11   9
ENDBRANCH  12  11
ENDBRANCH  13  12
BRANCH  22  23
ATOM     23  C   UNL     1      -1.105  -1.632  24.398  0.00  0.00    +0.139 C 
BRANCH  23  24
ATOM     24  C   UNL     1      -1.756  -2.137  24.433  0.00  0.00    +0.155 A 
ATOM     25  N   UNL     1      -2.522  -1.958  24.188  0.00  0.00    -0.226 NA
ATOM     26  C   UNL     1      -2.995  -2.622  24.322  0.00  0.00    +0.121 A 
ATOM     27  C   UNL     1      -2.518  -3.210  24.651  0.00  0.00    +0.121 A 
ATOM     28  N   UNL     1      -1.753  -2.911  24.719  0.00  0.00    -0.226 NA
ENDBRANCH  23  24
ENDBRANCH  22  23
TORSDOF 8
ENDMDL
MODEL 8
REMARK VINA RESULT:      -6.2     14.939     16.005
REMARK  Name = 
REMARK  8 active torsions:
REMARK  status: ('A' for Active; 'I' for Inactive)
REMARK    1  A    between atoms: O_2  and  C_3
REMARK    2  A    between atoms: C_6  and  C_7
REMARK    3  A    between atoms: C_7  and  N_8
REMARK    4  A    between atoms: C_9  and  C_11
REMARK    5  A    between atoms: C_11  and  C_12
REMARK    6  A    between atoms: C_12  and  C_13
REMARK    7  A    between atoms: N_22  and  C_23
REMARK    8  A    between atoms: C_23  and  C_24
REMARK                            x       y       z     vdW  Elec       q    Type
REMARK                         _______ _______ _______ _____ _____    ______ ____
ROOT
ATOM     13  C   UNL     1      -3.442 -10.756  14.513  0.00  0.00    +0.080 C 
ATOM     14  C   UNL     1      -2.796 -10.766  15.025  0.00  0.00    +0.131 C 
ATOM     15  N   UNL     1      -2.793 -10.773  15.850  0.00  0.00    -0.203 NA
ATOM     16  C   UNL     1      -3.437 -10.772  16.366  0.00  0.00    +0.257 C 
ATOM     17  O   UNL     1      -3.252 -10.781  17.170  0.00  0.00    -0.272 OA
ATOM     18  C   UNL     1      -4.242 -10.763  16.184  0.00  0.00    +0.152 C 
ATOM     19  C   UNL     1      -4.602 -10.753  15.442  0.00  0.00    +0.083 C 
ATOM     20  C   UNL     1      -5.419 -10.747  15.555  0.00  0.00    +0.035 C 
ATOM     21  C   UNL     1      -5.564 -10.752  16.367  0.00  0.00    +0.074 C 
ATOM     22  N   UNL     1      -4.837 -10.763  16.756  0.00  0.00    -0.259 NA
ATOM     29  N   UNL     1      -4.246 -10.750  14.698  0.00  0.00    -0.271 NA
ATOM     30  C   UNL     1      -4.762 -10.739  14.055  0.00  0.00    +0.090 C 
ENDROOT
BRANCH  13  12
ATOM     12  C   UNL     1      -3.260 -10.750  13.707  0.00  0.00    +0.027 C 
BRANCH  12  11
ATOM     11  C   UNL     1      -2.608 -10.324  13.435  0.00  0.00    +0.088 C 
BRANCH  11   9
ATOM      8  N   UNL     1      -2.824 -10.139  12.034  0.00  0.00    -0.201 NA
ATOM      9  C   UNL     1      -2.355 -10.415  12.655  0.00  0.00    +0.242 C 
ATOM     10  O   UNL     1      -1.632 -10.780  12.496  0.00  0.00    -0.273 OA
BRANCH   8   7
ATOM      7  C   UNL     1      -2.570 -10.229  11.255  0.00  0.00    +0.141 C 
BRANCH   7   6
ATOM      3  C   UNL     1      -4.066  -9.593   9.387  0.00  0.00    +0.139 A 
ATOM      4  C   UNL     1      -4.027 -10.379   9.636  0.00  0.00    +0.037 A 
ATOM      5  C   UNL     1      -3.529 -10.591  10.258  0.00  0.00    +0.001 A 
ATOM      6  C   UNL     1      -3.069 -10.017  10.632  0.00  0.00    -0.000 A 
ATOM     31  C   UNL     1      -3.107  -9.232  10.384  0.00  0.00    +0.001 A 
ATOM     32  C   UNL     1      -3.606  -9.020   9.761  0.00  0.00    +0.037 A 
BRANCH   3   2
ATOM      1  C   UNL     1      -5.342  -9.155   8.918  0.00  0.00    +0.252 C 
ATOM      2  O   UNL     1      -4.564  -9.382   8.765  0.00  0.00    -0.471 OA
ENDBRANCH   3   2
ENDBRANCH   7   6
ENDBRANCH   8   7
ENDBRANCH  11   9
ENDBRANCH  12  11
ENDBRANCH  13  12
BRANCH  22  23
ATOM     23  C   UNL     1      -4.724 -10.771  17.574  0.00  0.00    +0.139 C 
BRANCH  23  24
ATOM     24  C   UNL     1      -5.369 -10.676  18.080  0.00  0.00    +0.155 A 
ATOM     25  N   UNL     1      -6.137 -10.480  17.855  0.00  0.00    -0.226 NA
ATOM     26  C   UNL     1      -6.601 -10.444  18.537  0.00  0.00    +0.121 A 
ATOM     27  C   UNL     1      -6.118 -10.618  19.182  0.00  0.00    +0.121 A 
ATOM     28  N   UNL     1      -5.357 -10.762  18.901  0.00  0.00    -0.226 NA
ENDBRANCH  23  24
ENDBRANCH  22  23
TORSDOF 8
ENDMDL
MODEL 9
REMARK VINA RESULT:      -6.1     15.270     16.080
REMARK  Name = 
REMARK  8 active torsions:
REMARK  status: ('A' for Active; 'I' for Inactive)
REMARK    1  A    between atoms: O_2  and  C_3
REMARK    2  A    between atoms: C_6  and  C_7
REMARK    3  A    between atoms: C_7  and  N_8
REMARK    4  A    between atoms: C_9  and  C_11
REMARK    5  A    between atoms: C_11  and  C_12
REMARK    6  A    between atoms: C_12  and  C_13
REMARK    7  A    between atoms: N_22  and  C_23
REMARK    8  A    between atoms: C_23  and  C_24
REMARK                            x       y       z     vdW  Elec       q    Type
REMARK                         _______ _______ _______ _____ _____    ______ ____
ROOT
ATOM     13  C   UNL     1      -5.887 -10.206  14.608  0.00  0.00    +0.080 C 
ATOM     14  C   UNL     1      -5.425  -9.958  15.245  0.00  0.00    +0.131 C 
ATOM     15  N   UNL     1      -5.671  -9.697  15.989  0.00  0.00    -0.203 NA
ATOM     16  C   UNL     1      -6.440  -9.622  16.279  0.00  0.00    +0.257 C 
ATOM     17  O   UNL     1      -6.506  -9.344  17.052  0.00  0.00    -0.272 OA
ATOM     18  C   UNL     1      -7.152  -9.788  15.896  0.00  0.00    +0.152 C 
ATOM     19  C   UNL     1      -7.272 -10.070  15.130  0.00  0.00    +0.083 C 
ATOM     20  C   UNL     1      -8.085 -10.145  15.010  0.00  0.00    +0.035 C 
ATOM     21  C   UNL     1      -8.467  -9.909  15.701  0.00  0.00    +0.074 C 
ATOM     22  N   UNL     1      -7.891  -9.688  16.250  0.00  0.00    -0.259 NA
ATOM     29  N   UNL     1      -6.709 -10.256  14.557  0.00  0.00    -0.271 NA
ATOM     30  C   UNL     1      -7.007 -10.528  13.837  0.00  0.00    +0.090 C 
ENDROOT
BRANCH  13  12
ATOM     12  C   UNL     1      -5.471 -10.435  13.933  0.00  0.00    +0.027 C 
BRANCH  12  11
ATOM     11  C   UNL     1      -4.842  -9.976  13.661  0.00  0.00    +0.088 C 
BRANCH  11   9
ATOM      8  N   UNL     1      -4.447 -10.062  12.290  0.00  0.00    -0.201 NA
ATOM      9  C   UNL     1      -4.336 -10.273  13.081  0.00  0.00    +0.242 C 
ATOM     10  O   UNL     1      -3.721 -10.781  13.290  0.00  0.00    -0.273 OA
BRANCH   8   7
ATOM      7  C   UNL     1      -3.942 -10.359  11.710  0.00  0.00    +0.141 C 
BRANCH   7   6
ATOM      3  C   UNL     1      -4.206  -9.642   9.356  0.00  0.00    +0.139 A 
ATOM      4  C   UNL     1      -4.609 -10.307   9.633  0.00  0.00    +0.037 A 
ATOM      5  C   UNL     1      -4.521 -10.546  10.417  0.00  0.00    +0.001 A 
ATOM      6  C   UNL     1      -4.030 -10.120  10.925  0.00  0.00    -0.000 A 
ATOM     31  C   UNL     1      -3.628  -9.455  10.649  0.00  0.00    +0.001 A 
ATOM     32  C   UNL     1      -3.716  -9.216   9.864  0.00  0.00    +0.037 A 
BRANCH   3   2
ATOM      1  C   UNL     1      -4.986  -9.585   8.159  0.00  0.00    +0.252 C 
ATOM      2  O   UNL     1      -4.295  -9.403   8.572  0.00  0.00    -0.471 OA
ENDBRANCH   3   2
ENDBRANCH   7   6
ENDBRANCH   8   7
ENDBRANCH  11   9
ENDBRANCH  12  11
ENDBRANCH  13  12
BRANCH  22  23
ATOM     23  C   UNL     1      -8.030  -9.416  17.016  0.00  0.00    +0.139 C 
BRANCH  23  24
ATOM     24  C   UNL     1      -8.799  -9.241  17.259  0.00  0.00    +0.155 A 
ATOM     25  N   UNL     1      -9.185  -8.519  17.164  0.00  0.00    -0.226 NA
ATOM     26  C   UNL     1      -9.942  -8.589  17.487  0.00  0.00    +0.121 A 
ATOM     27  C   UNL     1     -10.022  -9.356  17.780  0.00  0.00    +0.121 A 
ATOM     28  N   UNL     1      -9.316  -9.759  17.640  0.00  0.00    -0.226 NA
ENDBRANCH  23  24
ENDBRANCH  22  23
TORSDOF 8
ENDMDL
MODEL 10
REMARK VINA RESULT:      -5.3     14.992     17.864
REMARK  Name = 
REMARK  8 active torsions:
REMARK  status: ('A' for Active; 'I' for Inactive)
REMARK    1  A    between atoms: O_2  and  C_3
REMARK    2  A    between atoms: C_6  and  C_7
REMARK    3  A    between atoms: C_7  and  N_8
REMARK    4  A    between atoms: C_9  and  C_11
REMARK    5  A    between atoms: C_11  and  C_12
REMARK    6  A    between atoms: C_12  and  C_13
REMARK    7  A    between atoms: N_22  and  C_23
REMARK    8  A    between atoms: C_23  and  C_24
REMARK                            x       y       z     vdW  Elec       q    Type
REMARK                         _______ _______ _______ _____ _____    ______ ____
ROOT
ATOM     13  C   UNL     1      12.435  -6.497  31.734  0.00  0.00    +0.080 C 
ATOM     14  C   UNL     1      12.638  -6.815  31.001  0.00  0.00    +0.131 C 
ATOM     15  N   UNL     1      13.254  -6.594  30.497  0.00  0.00    -0.203 NA
ATOM     16  C   UNL     1      13.817  -6.000  30.602  0.00  0.00    +0.257 C 
ATOM     17  O   UNL     1      14.366  -5.914  29.993  0.00  0.00    -0.272 OA
ATOM     18  C   UNL     1      13.904  -5.481  31.238  0.00  0.00    +0.152 C 
ATOM     19  C   UNL     1      13.450  -5.427  31.925  0.00  0.00    +0.083 C 
ATOM     20  C   UNL     1      13.760  -4.820  32.389  0.00  0.00    +0.035 C 
ATOM     21  C   UNL     1      14.406  -4.499  31.989  0.00  0.00    +0.074 C 
ATOM     22  N   UNL     1      14.495  -4.907  31.278  0.00  0.00    -0.259 NA
ATOM     29  N   UNL     1      12.796  -5.879  32.145  0.00  0.00    -0.271 NA
ATOM     30  C   UNL     1      12.458  -5.688  32.873  0.00  0.00    +0.090 C 
ENDROOT
BRANCH  13  12
ATOM     12  C   UNL     1      11.784  -6.842  32.105  0.00  0.00    +0.027 C 
BRANCH  12  11
ATOM     11  C   UNL     1      11.399  -7.481  31.753  0.00  0.00    +0.088 C 
BRANCH  11   9
ATOM      8  N   UNL     1      10.060  -7.870  32.063  0.00  0.00    -0.201 NA
ATOM      9  C   UNL     1      10.872  -7.938  32.193  0.00  0.00    +0.242 C 
ATOM     10  O   UNL     1      11.157  -8.463  32.763  0.00  0.00    -0.273 OA
BRANCH   8   7
ATOM      7  C   UNL     1       9.533  -8.327  32.504  0.00  0.00    +0.141 C 
BRANCH   7   6
ATOM      3  C   UNL     1       7.096  -8.115  32.122  0.00  0.00    +0.139 A 
ATOM      4  C   UNL     1       7.453  -7.710  32.746  0.00  0.00    +0.037 A 
ATOM      5  C   UNL     1       8.265  -7.781  32.873  0.00  0.00    +0.001 A 
ATOM      6  C   UNL     1       8.720  -8.256  32.377  0.00  0.00    -0.000 A 
ATOM     31  C   UNL     1       8.364  -8.662  31.752  0.00  0.00    +0.001 A 
ATOM     32  C   UNL     1       7.551  -8.591  31.625  0.00  0.00    +0.037 A 
BRANCH   3   2
ATOM      1  C   UNL     1       5.769  -7.985  32.637  0.00  0.00    +0.252 C 
ATOM      2  O   UNL     1       6.284  -8.045  31.995  0.00  0.00    -0.471 OA
ENDBRANCH   3   2
ENDBRANCH   7   6
ENDBRANCH   8   7
ENDBRANCH  11   9
ENDBRANCH  12  11
ENDBRANCH  13  12
BRANCH  22  23
ATOM     23  C   UNL     1      15.074  -4.766  30.707  0.00  0.00    +0.139 C 
BRANCH  23  24
ATOM     24  C   UNL     1      15.646  -4.185  30.834  0.00  0.00    +0.155 A 
ATOM     25  N   UNL     1      16.393  -4.304  31.164  0.00  0.00    -0.226 NA
ATOM     26  C   UNL     1      16.780  -3.576  31.187  0.00  0.00    +0.121 A 
ATOM     27  C   UNL     1      16.272  -3.007  30.871  0.00  0.00    +0.121 A 
ATOM     28  N   UNL     1      15.572  -3.384  30.653  0.00  0.00    -0.226 NA
ENDBRANCH  23  24
ENDBRANCH  22  23
TORSDOF 8
ENDMDL
