MODEL 1
REMARK VINA RESULT:      -9.2      0.000      0.000
REMARK  Name = 
REMARK  9 active torsions:
REMARK  status: ('A' for Active; 'I' for Inactive)
REMARK    1  A    between atoms: O_2  and  C_3
REMARK    2  A    between atoms: C_3  and  C_5
REMARK    3  A    between atoms: C_5  and  N_6
REMARK    4  A    between atoms: C_5  and  C_29
REMARK    5  A    between atoms: C_7  and  C_9
REMARK    6  A    between atoms: C_11  and  N_19
REMARK    7  A    between atoms: C_14  and  C_16
REMARK    8  A    between atoms: C_16  and  S_17
REMARK    9  A    between atoms: N_22  and  C_23
REMARK                            x       y       z     vdW  Elec       q    Type
REMARK                         _______ _______ _______ _____ _____    ______ ____
ROOT
ATOM      9  C   UNL     1      -2.897   2.290  24.737  0.00  0.00    +0.155 C 
ATOM     10  C   UNL     1      -2.716   1.613  24.302  0.00  0.00    +0.053 C 
ATOM     11  C   UNL     1      -3.426   1.263  24.070  0.00  0.00    +0.119 C 
ATOM     12  C   UNL     1      -4.046   1.723  24.361  0.00  0.00    +0.116 C 
ATOM     13  N   UNL     1      -3.718   2.358  24.774  0.00  0.00    -0.270 N 
ATOM     14  C   UNL     1      -4.139   2.956  25.156  0.00  0.00    +0.237 C 
ATOM     15  O   UNL     1      -3.734   3.559  25.549  0.00  0.00    -0.274 OA
ENDROOT
BRANCH  11  19
ATOM     19  N   UNL     1      -3.503   0.573  23.624  0.00  0.00    -0.187 NA
ATOM     20  C   UNL     1      -3.481  -0.164  23.995  0.00  0.00    +0.339 C 
ATOM     21  O   UNL     1      -3.381  -0.210  24.813  0.00  0.00    -0.249 OA
ATOM     22  N   UNL     1      -3.558  -0.853  23.549  0.00  0.00    -0.189 NA
BRANCH  22  23
ATOM     23  C   UNL     1      -3.535  -1.589  23.920  0.00  0.00    +0.097 C 
ATOM     24  C   UNL     1      -4.212  -2.060  23.945  0.00  0.00    +0.022 C 
ATOM     25  C   UNL     1      -4.189  -2.797  24.316  0.00  0.00    +0.002 C 
ATOM     26  C   UNL     1      -3.490  -3.062  24.663  0.00  0.00    +0.000 C 
ATOM     27  C   UNL     1      -2.812  -2.591  24.639  0.00  0.00    +0.002 C 
ATOM     28  C   UNL     1      -2.836  -1.855  24.268  0.00  0.00    +0.022 C 
ENDBRANCH  22  23
ENDBRANCH  11  19
BRANCH   9   7
ATOM      6  N   UNL     1      -1.579   2.838  24.791  0.00  0.00    -0.194 NA
ATOM      7  C   UNL     1      -2.352   2.808  25.077  0.00  0.00    +0.260 C 
ATOM      8  O   UNL     1      -2.580   3.297  25.702  0.00  0.00    -0.272 OA
BRANCH   6   5
ATOM      5  C   UNL     1      -1.033   3.356  25.130  0.00  0.00    +0.193 C 
BRANCH   5  29
ATOM     29  C   UNL     1      -0.882   4.086  24.777  0.00  0.00    +0.031 C 
ATOM     30  C   UNL     1      -0.544   4.118  24.024  0.00  0.00    +0.002 C 
ATOM     31  C   UNL     1      -1.068   4.784  25.174  0.00  0.00    +0.002 C 
ENDBRANCH   5  29
BRANCH   5   3
ATOM      3  C   UNL     1      -0.639   3.144  25.823  0.00  0.00    +0.337 C 
ATOM      4  O   UNL     1      -0.877   3.461  26.547  0.00  0.00    -0.248 OA
BRANCH   3   2
ATOM      1  C   UNL     1       0.347   2.354  26.491  0.00  0.00    +0.256 C 
ATOM      2  O   UNL     1      -0.008   2.613  25.792  0.00  0.00    -0.443 OA
ENDBRANCH   3   2
ENDBRANCH   5   3
ENDBRANCH   6   5
ENDBRANCH   9   7
BRANCH  14  16
ATOM     16  C   UNL     1      -4.964   2.952  25.146  0.00  0.00    +0.143 C 
BRANCH  16  17
ATOM     17  S   UNL     1      -5.384   3.485  25.616  0.00  0.00    -0.130 S 
ATOM     18  C   UNL     1      -6.203   3.412  25.690  0.00  0.00    +0.070 C 
ENDBRANCH  16  17
ENDBRANCH  14  16
TORSDOF 9
ENDMDL
MODEL 2
REMARK VINA RESULT:      -9.0      2.427      5.885
REMARK  Name = 
REMARK  9 active torsions:
REMARK  status: ('A' for Active; 'I' for Inactive)
REMARK    1  A    between atoms: O_2  and  C_3
REMARK    2  A    between atoms: C_3  and  C_5
REMARK    3  A    between atoms: C_5  and  N_6
REMARK    4  A    between atoms: C_5  and  C_29
REMARK    5  A    between atoms: C_7  and  C_9
REMARK    6  A    between atoms: C_11  and  N_19
REMARK    7  A    between atoms: C_14  and  C_16
REMARK    8  A    between atoms: C_16  and  S_17
REMARK    9  A    between atoms: N_22  and  C_23
REMARK                            x       y       z     vdW  Elec       q    Type
REMARK                         _______ _______ _______ _____ _____    ______ ____
ROOT
ATOM      9  C   UNL     1      -1.231   0.021  25.105  0.00  0.00    +0.155 C 
ATOM     10  C   UNL     1      -1.354   0.652  25.621  0.00  0.00    +0.053 C 
ATOM     11  C   UNL     1      -0.772   1.217  25.474  0.00  0.00    +0.119 C 
ATOM     12  C   UNL     1      -0.290   0.936  24.866  0.00  0.00    +0.116 C 
ATOM     13  N   UNL     1      -0.575   0.196  24.638  0.00  0.00    -0.270 N 
ATOM     14  C   UNL     1      -0.258  -0.284  24.047  0.00  0.00    +0.237 C 
ATOM     15  O   UNL     1      -0.603  -1.015  23.879  0.00  0.00    -0.274 OA
ENDROOT
BRANCH  11  19
ATOM     19  N   UNL     1      -0.686   1.939  25.866  0.00  0.00    -0.187 NA
ATOM     20  C   UNL     1      -1.011   2.625  25.543  0.00  0.00    +0.339 C 
ATOM     21  O   UNL     1      -1.422   2.590  24.828  0.00  0.00    -0.249 OA
ATOM     22  N   UNL     1      -0.925   3.346  25.934  0.00  0.00    -0.189 NA
BRANCH  22  23
ATOM     23  C   UNL     1      -1.250   4.032  25.611  0.00  0.00    +0.097 C 
ATOM     24  C   UNL     1      -0.783   4.532  25.149  0.00  0.00    +0.022 C 
ATOM     25  C   UNL     1      -1.109   5.218  24.827  0.00  0.00    +0.002 C 
ATOM     26  C   UNL     1      -1.900   5.404  24.966  0.00  0.00    +0.000 C 
ATOM     27  C   UNL     1      -2.367   4.905  25.428  0.00  0.00    +0.002 C 
ATOM     28  C   UNL     1      -2.041   4.219  25.750  0.00  0.00    +0.022 C 
ENDBRANCH  22  23
ENDBRANCH  11  19
BRANCH   9   7
ATOM      6  N   UNL     1      -2.510  -0.617  25.095  0.00  0.00    -0.194 NA
ATOM      7  C   UNL     1      -1.687  -0.666  25.062  0.00  0.00    +0.260 C 
ATOM      8  O   UNL     1      -1.320  -1.401  24.988  0.00  0.00    -0.272 OA
BRANCH   6   5
ATOM      5  C   UNL     1      -2.966  -1.304  25.052  0.00  0.00    +0.193 C 
BRANCH   5  29
ATOM     29  C   UNL     1      -3.072  -1.771  25.724  0.00  0.00    +0.031 C 
ATOM     30  C   UNL     1      -3.369  -1.436  26.418  0.00  0.00    +0.002 C 
ATOM     31  C   UNL     1      -2.882  -2.574  25.704  0.00  0.00    +0.002 C 
ENDBRANCH   5  29
BRANCH   5   3
ATOM      3  C   UNL     1      -3.315  -1.523  24.338  0.00  0.00    +0.337 C 
ATOM      4  O   UNL     1      -3.162  -2.266  24.014  0.00  0.00    -0.248 OA
BRANCH   3   2
ATOM      1  C   UNL     1      -4.291  -1.266  23.326  0.00  0.00    +0.256 C 
ATOM      2  O   UNL     1      -3.818  -0.998  23.947  0.00  0.00    -0.443 OA
ENDBRANCH   3   2
ENDBRANCH   5   3
ENDBRANCH   6   5
ENDBRANCH   9   7
BRANCH  14  16
ATOM     16  C   UNL     1       0.405  -0.035  23.624  0.00  0.00    +0.143 C 
BRANCH  16  17
ATOM     17  S   UNL     1       0.659  -0.464  22.966  0.00  0.00    -0.130 S 
ATOM     18  C   UNL     1       1.345  -0.238  22.567  0.00  0.00    +0.070 C 
ENDBRANCH  16  17
ENDBRANCH  14  16
TORSDOF 9
ENDMDL
MODEL 3
REMARK VINA RESULT:      -8.5      3.485      5.119
REMARK  Name = 
REMARK  9 active torsions:
REMARK  status: ('A' for Active; 'I' for Inactive)
REMARK    1  A    between atoms: O_2  and  C_3
REMARK    2  A    between atoms: C_3  and  C_5
REMARK    3  A    between atoms: C_5  and  N_6
REMARK    4  A    between atoms: C_5  and  C_29
REMARK    5  A    between atoms: C_7  and  C_9
REMARK    6  A    between atoms: C_11  and  N_19
REMARK    7  A    between atoms: C_14  and  C_16
REMARK    8  A    between atoms: C_16  and  S_17
REMARK    9  A    between atoms: N_22  and  C_23
REMARK                            x       y       z     vdW  Elec       q    Type
REMARK                         _______ _______ _______ _____ _____    ______ ____
ROOT
ATOM      9  C   UNL     1      -0.457   0.803  24.124  0.00  0.00    +0.155 C 
ATOM     10  C   UNL     1       0.167   0.934  23.601  0.00  0.00    +0.053 C 
ATOM     11  C   UNL     1       0.418   0.202  23.317  0.00  0.00    +0.119 C 
ATOM     12  C   UNL     1      -0.050  -0.382  23.664  0.00  0.00    +0.116 C 
ATOM     13  N   UNL     1      -0.591  -0.009  24.163  0.00  0.00    -0.270 N 
ATOM     14  C   UNL     1      -1.166  -0.384  24.621  0.00  0.00    +0.237 C 
ATOM     15  O   UNL     1      -1.671   0.062  25.097  0.00  0.00    -0.274 OA
ENDROOT
BRANCH  11  19
ATOM     19  N   UNL     1       1.031   0.075  22.779  0.00  0.00    -0.187 NA
ATOM     20  C   UNL     1       1.813   0.210  23.004  0.00  0.00    +0.339 C 
ATOM     21  O   UNL     1       1.982   0.472  23.768  0.00  0.00    -0.249 OA
ATOM     22  N   UNL     1       2.425   0.082  22.467  0.00  0.00    -0.189 NA
BRANCH  22  23
ATOM     23  C   UNL     1       3.207   0.217  22.692  0.00  0.00    +0.097 C 
ATOM     24  C   UNL     1       3.560   0.948  22.542  0.00  0.00    +0.022 C 
ATOM     25  C   UNL     1       4.343   1.083  22.768  0.00  0.00    +0.002 C 
ATOM     26  C   UNL     1       4.771   0.487  23.143  0.00  0.00    +0.000 C 
ATOM     27  C   UNL     1       4.419  -0.245  23.294  0.00  0.00    +0.002 C 
ATOM     28  C   UNL     1       3.637  -0.378  23.068  0.00  0.00    +0.022 C 
ENDBRANCH  22  23
ENDBRANCH  11  19
BRANCH   9   7
ATOM      6  N   UNL     1      -1.167   2.043  24.136  0.00  0.00    -0.194 NA
ATOM      7  C   UNL     1      -0.874   1.385  24.537  0.00  0.00    +0.260 C 
ATOM      8  O   UNL     1      -0.997   1.306  25.349  0.00  0.00    -0.272 OA
BRANCH   6   5
ATOM      5  C   UNL     1      -1.584   2.624  24.549  0.00  0.00    +0.193 C 
BRANCH   5  29
ATOM     29  C   UNL     1      -1.177   3.182  25.000  0.00  0.00    +0.031 C 
ATOM     30  C   UNL     1      -0.680   3.729  24.631  0.00  0.00    +0.002 C 
ATOM     31  C   UNL     1      -1.266   3.195  25.820  0.00  0.00    +0.002 C 
ENDBRANCH   5  29
BRANCH   5   3
ATOM      3  C   UNL     1      -2.408   2.647  24.509  0.00  0.00    +0.337 C 
ATOM      4  O   UNL     1      -2.855   2.643  25.202  0.00  0.00    -0.248 OA
BRANCH   3   2
ATOM      1  C   UNL     1      -3.606   2.734  23.735  0.00  0.00    +0.256 C 
ATOM      2  O   UNL     1      -2.785   2.673  23.775  0.00  0.00    -0.443 OA
ENDBRANCH   3   2
ENDBRANCH   5   3
ENDBRANCH   6   5
ENDBRANCH   9   7
BRANCH  14  16
ATOM     16  C   UNL     1      -1.236  -1.206  24.604  0.00  0.00    +0.143 C 
BRANCH  16  17
ATOM     17  S   UNL     1      -1.915  -1.568  24.903  0.00  0.00    -0.130 S 
ATOM     18  C   UNL     1      -2.073  -2.358  24.724  0.00  0.00    +0.070 C 
ENDBRANCH  16  17
ENDBRANCH  14  16
TORSDOF 9
ENDMDL
MODEL 4
REMARK VINA RESULT:      -8.4      1.897      3.140
REMARK  Name = 
REMARK  9 active torsions:
REMARK  status: ('A' for Active; 'I' for Inactive)
REMARK    1  A    between atoms: O_2  and  C_3
REMARK    2  A    between atoms: C_3  and  C_5
REMARK    3  A    between atoms: C_5  and  N_6
REMARK    4  A    between atoms: C_5  and  C_29
REMARK    5  A    between atoms: C_7  and  C_9
REMARK    6  A    between atoms: C_11  and  N_19
REMARK    7  A    between atoms: C_14  and  C_16
REMARK    8  A    between atoms: C_16  and  S_17
REMARK    9  A    between atoms: N_22  and  C_23
REMARK                            x       y       z     vdW  Elec       q    Type
REMARK                         _______ _______ _______ _____ _____    ______ ____
ROOT
ATOM      9  C   UNL     1      -1.832   1.700  24.916  0.00  0.00    +0.155 C 
ATOM     10  C   UNL     1      -2.316   1.111  25.231  0.00  0.00    +0.053 C 
ATOM     11  C   UNL     1      -1.885   0.408  25.244  0.00  0.00    +0.119 C 
ATOM     12  C   UNL     1      -1.134   0.562  24.938  0.00  0.00    +0.116 C 
ATOM     13  N   UNL     1      -1.102   1.361  24.735  0.00  0.00    -0.270 N 
ATOM     14  C   UNL     1      -0.453   1.753  24.409  0.00  0.00    +0.237 C 
ATOM     15  O   UNL     1      -0.502   2.558  24.235  0.00  0.00    -0.274 OA
ENDROOT
BRANCH  11  19
ATOM     19  N   UNL     1      -2.156  -0.323  25.516  0.00  0.00    -0.187 NA
ATOM     20  C   UNL     1      -2.603  -0.808  25.020  0.00  0.00    +0.339 C 
ATOM     21  O   UNL     1      -2.780  -0.562  24.252  0.00  0.00    -0.249 OA
ATOM     22  N   UNL     1      -2.874  -1.538  25.292  0.00  0.00    -0.189 NA
BRANCH  22  23
ATOM     23  C   UNL     1      -3.321  -2.022  24.797  0.00  0.00    +0.097 C 
ATOM     24  C   UNL     1      -4.013  -1.733  24.451  0.00  0.00    +0.022 C 
ATOM     25  C   UNL     1      -4.460  -2.219  23.955  0.00  0.00    +0.002 C 
ATOM     26  C   UNL     1      -4.216  -2.992  23.806  0.00  0.00    +0.000 C 
ATOM     27  C   UNL     1      -3.524  -3.282  24.151  0.00  0.00    +0.002 C 
ATOM     28  C   UNL     1      -3.078  -2.796  24.647  0.00  0.00    +0.022 C 
ENDBRANCH  22  23
ENDBRANCH  11  19
BRANCH   9   7
ATOM      6  N   UNL     1      -2.495   2.881  25.370  0.00  0.00    -0.194 NA
ATOM      7  C   UNL     1      -2.042   2.490  24.803  0.00  0.00    +0.260 C 
ATOM      8  O   UNL     1      -1.798   2.888  24.123  0.00  0.00    -0.272 OA
BRANCH   6   5
ATOM      5  C   UNL     1      -2.705   3.672  25.257  0.00  0.00    +0.193 C 
BRANCH   5  29
ATOM     29  C   UNL     1      -2.251   4.272  25.595  0.00  0.00    +0.031 C 
ATOM     30  C   UNL     1      -1.879   4.830  25.113  0.00  0.00    +0.002 C 
ATOM     31  C   UNL     1      -2.168   4.315  26.414  0.00  0.00    +0.002 C 
ENDBRANCH   5  29
BRANCH   5   3
ATOM      3  C   UNL     1      -3.369   3.861  24.805  0.00  0.00    +0.337 C 
ATOM      4  O   UNL     1      -3.279   4.232  24.074  0.00  0.00    -0.248 OA
BRANCH   3   2
ATOM      1  C   UNL     1      -4.787   3.859  24.631  0.00  0.00    +0.256 C 
ATOM      2  O   UNL     1      -4.124   3.678  25.086  0.00  0.00    -0.443 OA
ENDBRANCH   3   2
ENDBRANCH   5   3
ENDBRANCH   6   5
ENDBRANCH   9   7
BRANCH  14  16
ATOM     16  C   UNL     1       0.245   1.340  24.258  0.00  0.00    +0.143 C 
BRANCH  16  17
ATOM     17  S   UNL     1       0.876   1.721  23.887  0.00  0.00    -0.130 S 
ATOM     18  C   UNL     1       1.499   1.278  23.575  0.00  0.00    +0.070 C 
ENDBRANCH  16  17
ENDBRANCH  14  16
TORSDOF 9
ENDMDL
