MODEL 1
REMARK VINA RESULT:     -10.0      0.000      0.000
REMARK  Name = 
REMARK  8 active torsions:
REMARK  status: ('A' for Active; 'I' for Inactive)
REMARK    1  A    between atoms: N_4  and  C_22
REMARK    2  A    between atoms: C_7  and  C_8
REMARK    3  A    between atoms: C_10  and  N_11
REMARK    4  A    between atoms: C_12  and  C_14
REMARK    5  A    between atoms: C_14  and  S_15
REMARK    6  A    between atoms: S_15  and  C_16
REMARK    7  A    between atoms: C_16  and  C_17
REMARK    8  A    between atoms: C_25  and  C_28
REMARK                            x       y       z     vdW  Elec       q    Type
REMARK                         _______ _______ _______ _____ _____    ______ ____
ROOT
ATOM      1  C   UNL     1      -3.423  -0.998  24.196  0.00  0.00    +0.054 C 
ATOM      2  C   UNL     1      -3.397  -0.210  24.440  0.00  0.00    +0.077 A 
ATOM      3  N   UNL     1      -4.047   0.291  24.529  0.00  0.00    -0.170 NA
ATOM      4  N   UNL     1      -3.769   1.026  24.783  0.00  0.00    -0.234 N 
ATOM      5  C   UNL     1      -2.949   0.978  24.850  0.00  0.00    +0.058 A 
ATOM      6  C   UNL     1      -2.445   1.587  25.087  0.00  0.00    +0.052 C 
ATOM      7  C   UNL     1      -2.719   0.215  24.638  0.00  0.00    +0.010 A 
ENDROOT
BRANCH   4  22
ATOM     22  C   UNL     1      -4.231   1.690  24.941  0.00  0.00    +0.082 A 
ATOM     23  C   UNL     1      -4.792   1.668  25.545  0.00  0.00    +0.019 A 
ATOM     24  C   UNL     1      -5.254   2.333  25.703  0.00  0.00    +0.005 A 
ATOM     25  C   UNL     1      -5.155   3.020  25.257  0.00  0.00    +0.072 A 
ATOM     26  C   UNL     1      -4.594   3.042  24.653  0.00  0.00    +0.005 A 
ATOM     27  C   UNL     1      -4.132   2.377  24.494  0.00  0.00    +0.019 A 
BRANCH  25  28
ATOM     28  C   UNL     1      -5.617   3.685  25.416  0.00  0.00    +0.419 C 
ATOM     29  F   UNL     1      -6.079   4.350  25.574  0.00  0.00    -0.166 F 
ATOM     30  F   UNL     1      -6.299   3.225  25.356  0.00  0.00    -0.166 F 
ATOM     31  F   UNL     1      -4.935   4.145  25.476  0.00  0.00    -0.166 F 
ENDBRANCH  25  28
ENDBRANCH   4  22
BRANCH   7   8
ATOM      8  C   UNL     1      -1.946  -0.074  24.626  0.00  0.00    +0.048 C 
ATOM      9  C   UNL     1      -1.471  -0.158  23.957  0.00  0.00    +0.035 C 
ATOM     10  C   UNL     1      -0.744  -0.466  24.197  0.00  0.00    +0.118 C 
ATOM     20  C   UNL     1      -0.770  -0.572  25.015  0.00  0.00    -0.009 C 
ATOM     21  C   UNL     1      -1.513  -0.331  25.280  0.00  0.00    -0.025 C 
BRANCH  10  11
ATOM     11  N   UNL     1      -0.104  -0.637  23.707  0.00  0.00    -0.202 NA
ATOM     12  C   UNL     1       0.421  -0.038  23.489  0.00  0.00    +0.253 C 
ATOM     13  O   UNL     1       0.305   0.731  23.762  0.00  0.00    -0.272 OA
BRANCH  12  14
ATOM     14  C   UNL     1       1.062  -0.209  22.999  0.00  0.00    +0.145 C 
BRANCH  14  15
ATOM     15  S   UNL     1       1.759   0.226  23.063  0.00  0.00    -0.119 S 
BRANCH  15  16
ATOM     16  C   UNL     1       2.384   0.086  22.543  0.00  0.00    +0.172 C 
BRANCH  16  17
ATOM     17  C   UNL     1       3.144   0.347  22.730  0.00  0.00    +0.376 C 
ATOM     18  O   UNL     1       3.319   1.152  22.716  0.00  0.00    -0.245 OA
ATOM     19  O   UNL     1       3.729  -0.199  22.931  0.00  0.00    -0.245 OA
ENDBRANCH  16  17
ENDBRANCH  15  16
ENDBRANCH  14  15
ENDBRANCH  12  14
ENDBRANCH  10  11
ENDBRANCH   7   8
TORSDOF 8
ENDMDL
MODEL 2
REMARK VINA RESULT:      -9.8      3.447      4.409
REMARK  Name = 
REMARK  8 active torsions:
REMARK  status: ('A' for Active; 'I' for Inactive)
REMARK    1  A    between atoms: N_4  and  C_22
REMARK    2  A    between atoms: C_7  and  C_8
REMARK    3  A    between atoms: C_10  and  N_11
REMARK    4  A    between atoms: C_12  and  C_14
REMARK    5  A    between atoms: C_14  and  S_15
REMARK    6  A    between atoms: S_15  and  C_16
REMARK    7  A    between atoms: C_16  and  C_17
REMARK    8  A    between atoms: C_25  and  C_28
REMARK                            x       y       z     vdW  Elec       q    Type
REMARK                         _______ _______ _______ _____ _____    ______ ____
ROOT
ATOM      1  C   UNL     1      -5.485   2.845  25.792  0.00  0.00    +0.054 C 
ATOM      2  C   UNL     1      -4.705   2.897  25.528  0.00  0.00    +0.077 A 
ATOM      3  N   UNL     1      -4.226   3.568  25.563  0.00  0.00    -0.170 NA
ATOM      4  N   UNL     1      -3.491   3.374  25.240  0.00  0.00    -0.234 N 
ATOM      5  C   UNL     1      -3.518   2.583  25.006  0.00  0.00    +0.058 A 
ATOM      6  C   UNL     1      -2.902   2.160  24.655  0.00  0.00    +0.052 C 
ATOM      7  C   UNL     1      -4.268   2.288  25.184  0.00  0.00    +0.010 A 
ENDROOT
BRANCH   4  22
ATOM     22  C   UNL     1      -2.845   3.881  25.164  0.00  0.00    +0.082 A 
ATOM     23  C   UNL     1      -2.318   3.973  25.792  0.00  0.00    +0.019 A 
ATOM     24  C   UNL     1      -1.672   4.480  25.716  0.00  0.00    +0.005 A 
ATOM     25  C   UNL     1      -1.552   4.894  25.013  0.00  0.00    +0.072 A 
ATOM     26  C   UNL     1      -2.080   4.802  24.385  0.00  0.00    +0.005 A 
ATOM     27  C   UNL     1      -2.726   4.295  24.461  0.00  0.00    +0.019 A 
BRANCH  25  28
ATOM     28  C   UNL     1      -0.906   5.401  24.938  0.00  0.00    +0.419 C 
ATOM     29  F   UNL     1      -0.260   5.908  24.862  0.00  0.00    -0.166 F 
ATOM     30  F   UNL     1      -0.465   4.789  24.605  0.00  0.00    -0.166 F 
ATOM     31  F   UNL     1      -1.347   6.014  25.271  0.00  0.00    -0.166 F 
ENDBRANCH  25  28
ENDBRANCH   4  22
BRANCH   7   8
ATOM      8  C   UNL     1      -4.534   1.521  25.043  0.00  0.00    +0.048 C 
ATOM      9  C   UNL     1      -4.120   0.827  25.208  0.00  0.00    +0.035 C 
ATOM     10  C   UNL     1      -4.590   0.188  24.980  0.00  0.00    +0.118 C 
ATOM     20  C   UNL     1      -5.295   0.488  24.674  0.00  0.00    -0.009 C 
ATOM     21  C   UNL     1      -5.260   1.311  24.713  0.00  0.00    -0.025 C 
BRANCH  10  11
ATOM     11  N   UNL     1      -4.391  -0.609  25.046  0.00  0.00    -0.202 NA
ATOM     12  C   UNL     1      -4.135  -1.027  24.382  0.00  0.00    +0.253 C 
ATOM     13  O   UNL     1      -4.078  -0.647  23.652  0.00  0.00    -0.272 OA
BRANCH  12  14
ATOM     14  C   UNL     1      -3.936  -1.825  24.448  0.00  0.00    +0.145 C 
BRANCH  14  15
ATOM     15  S   UNL     1      -3.202  -2.091  24.182  0.00  0.00    -0.119 S 
BRANCH  15  16
ATOM     16  C   UNL     1      -2.788  -2.660  24.611  0.00  0.00    +0.172 C 
BRANCH  16  17
ATOM     17  C   UNL     1      -1.978  -2.759  24.493  0.00  0.00    +0.376 C 
ATOM     18  O   UNL     1      -1.701  -3.104  23.797  0.00  0.00    -0.245 OA
ATOM     19  O   UNL     1      -1.444  -2.513  25.071  0.00  0.00    -0.245 OA
ENDBRANCH  16  17
ENDBRANCH  15  16
ENDBRANCH  14  15
ENDBRANCH  12  14
ENDBRANCH  10  11
ENDBRANCH   7   8
TORSDOF 8
ENDMDL
MODEL 3
REMARK VINA RESULT:      -9.7      3.866      5.106
REMARK  Name = 
REMARK  8 active torsions:
REMARK  status: ('A' for Active; 'I' for Inactive)
REMARK    1  A    between atoms: N_4  and  C_22
REMARK    2  A    between atoms: C_7  and  C_8
REMARK    3  A    between atoms: C_10  and  N_11
REMARK    4  A    between atoms: C_12  and  C_14
REMARK    5  A    between atoms: C_14  and  S_15
REMARK    6  A    between atoms: S_15  and  C_16
REMARK    7  A    between atoms: C_16  and  C_17
REMARK    8  A    between atoms: C_25  and  C_28
REMARK                            x       y       z     vdW  Elec       q    Type
REMARK                         _______ _______ _______ _____ _____    ______ ____
ROOT
ATOM      1  C   UNL     1      -5.747   1.390  25.742  0.00  0.00    +0.054 C 
ATOM      2  C   UNL     1      -5.168   0.963  25.339  0.00  0.00    +0.077 A 
ATOM      3  N   UNL     1      -5.078   0.142  25.346  0.00  0.00    -0.170 NA
ATOM      4  N   UNL     1      -4.431  -0.047  24.870  0.00  0.00    -0.234 N 
ATOM      5  C   UNL     1      -4.122   0.656  24.569  0.00  0.00    +0.058 A 
ATOM      6  C   UNL     1      -3.471   0.723  24.066  0.00  0.00    +0.052 C 
ATOM      7  C   UNL     1      -4.577   1.280  24.859  0.00  0.00    +0.010 A 
ENDROOT
BRANCH   4  22
ATOM     22  C   UNL     1      -4.145  -0.807  24.721  0.00  0.00    +0.082 A 
ATOM     23  C   UNL     1      -3.643  -1.172  25.264  0.00  0.00    +0.019 A 
ATOM     24  C   UNL     1      -3.357  -1.931  25.115  0.00  0.00    +0.005 A 
ATOM     25  C   UNL     1      -3.572  -2.325  24.423  0.00  0.00    +0.072 A 
ATOM     26  C   UNL     1      -4.075  -1.959  23.879  0.00  0.00    +0.005 A 
ATOM     27  C   UNL     1      -4.361  -1.200  24.028  0.00  0.00    +0.019 A 
BRANCH  25  28
ATOM     28  C   UNL     1      -3.286  -3.084  24.274  0.00  0.00    +0.419 C 
ATOM     29  F   UNL     1      -2.999  -3.843  24.124  0.00  0.00    -0.166 F 
ATOM     30  F   UNL     1      -2.522  -2.781  24.198  0.00  0.00    -0.166 F 
ATOM     31  F   UNL     1      -4.049  -3.387  24.349  0.00  0.00    -0.166 F 
ENDBRANCH  25  28
ENDBRANCH   4  22
BRANCH   7   8
ATOM      8  C   UNL     1      -4.462   2.080  24.698  0.00  0.00    +0.048 C 
ATOM      9  C   UNL     1      -3.753   2.495  24.783  0.00  0.00    +0.035 C 
ATOM     10  C   UNL     1      -3.887   3.278  24.562  0.00  0.00    +0.118 C 
ATOM     20  C   UNL     1      -4.678   3.348  24.339  0.00  0.00    -0.009 C 
ATOM     21  C   UNL     1      -5.033   2.608  24.424  0.00  0.00    -0.025 C 
BRANCH  10  11
ATOM     11  N   UNL     1      -3.329   3.884  24.562  0.00  0.00    -0.202 NA
ATOM     12  C   UNL     1      -3.059   4.197  25.276  0.00  0.00    +0.253 C 
ATOM     13  O   UNL     1      -3.348   3.903  25.991  0.00  0.00    -0.272 OA
BRANCH  12  14
ATOM     14  C   UNL     1      -2.500   4.804  25.277  0.00  0.00    +0.145 C 
BRANCH  14  15
ATOM     15  S   UNL     1      -1.697   4.626  25.343  0.00  0.00    -0.119 S 
BRANCH  15  16
ATOM     16  C   UNL     1      -1.133   5.150  25.047  0.00  0.00    +0.172 C 
BRANCH  16  17
ATOM     17  C   UNL     1      -0.421   4.862  24.746  0.00  0.00    +0.376 C 
ATOM     18  O   UNL     1      -0.031   4.243  25.126  0.00  0.00    -0.245 OA
ATOM     19  O   UNL     1      -0.098   5.195  24.063  0.00  0.00    -0.245 OA
ENDBRANCH  16  17
ENDBRANCH  15  16
ENDBRANCH  14  15
ENDBRANCH  12  14
ENDBRANCH  10  11
ENDBRANCH   7   8
TORSDOF 8
ENDMDL
MODEL 4
REMARK VINA RESULT:      -9.3      1.294      1.931
REMARK  Name = 
REMARK  8 active torsions:
REMARK  status: ('A' for Active; 'I' for Inactive)
REMARK    1  A    between atoms: N_4  and  C_22
REMARK    2  A    between atoms: C_7  and  C_8
REMARK    3  A    between atoms: C_10  and  N_11
REMARK    4  A    between atoms: C_12  and  C_14
REMARK    5  A    between atoms: C_14  and  S_15
REMARK    6  A    between atoms: S_15  and  C_16
REMARK    7  A    between atoms: C_16  and  C_17
REMARK    8  A    between atoms: C_25  and  C_28
REMARK                            x       y       z     vdW  Elec       q    Type
REMARK                         _______ _______ _______ _____ _____    ______ ____
ROOT
ATOM      1  C   UNL     1      -0.787  -0.657  25.559  0.00  0.00    +0.054 C 
ATOM      2  C   UNL     1      -1.307  -0.165  25.149  0.00  0.00    +0.077 A 
ATOM      3  N   UNL     1      -2.067   0.046  25.392  0.00  0.00    -0.170 NA
ATOM      4  N   UNL     1      -2.388   0.545  24.818  0.00  0.00    -0.234 N 
ATOM      5  C   UNL     1      -1.827   0.641  24.221  0.00  0.00    +0.058 A 
ATOM      6  C   UNL     1      -1.918   1.097  23.539  0.00  0.00    +0.052 C 
ATOM      7  C   UNL     1      -1.159   0.203  24.426  0.00  0.00    +0.010 A 
ENDROOT
BRANCH   4  22
ATOM     22  C   UNL     1      -3.139   0.887  24.838  0.00  0.00    +0.082 A 
ATOM     23  C   UNL     1      -3.806   0.423  24.698  0.00  0.00    +0.019 A 
ATOM     24  C   UNL     1      -4.557   0.765  24.718  0.00  0.00    +0.005 A 
ATOM     25  C   UNL     1      -4.640   1.570  24.877  0.00  0.00    +0.072 A 
ATOM     26  C   UNL     1      -3.972   2.034  25.017  0.00  0.00    +0.005 A 
ATOM     27  C   UNL     1      -3.221   1.692  24.997  0.00  0.00    +0.019 A 
BRANCH  25  28
ATOM     28  C   UNL     1      -5.391   1.912  24.897  0.00  0.00    +0.419 C 
ATOM     29  F   UNL     1      -6.141   2.253  24.916  0.00  0.00    -0.166 F 
ATOM     30  F   UNL     1      -5.555   1.510  25.598  0.00  0.00    -0.166 F 
ATOM     31  F   UNL     1      -5.226   2.313  24.195  0.00  0.00    -0.166 F 
ENDBRANCH  25  28
ENDBRANCH   4  22
BRANCH   7   8
ATOM      8  C   UNL     1      -0.464   0.142  23.985  0.00  0.00    +0.048 C 
ATOM      9  C   UNL     1       0.153   0.690  23.976  0.00  0.00    +0.035 C 
ATOM     10  C   UNL     1       0.735   0.410  23.462  0.00  0.00    +0.118 C 
ATOM     20  C   UNL     1       0.477  -0.310  23.154  0.00  0.00    -0.009 C 
ATOM     21  C   UNL     1      -0.263  -0.476  23.477  0.00  0.00    -0.025 C 
BRANCH  10  11
ATOM     11  N   UNL     1       1.448   0.785  23.287  0.00  0.00    -0.202 NA
ATOM     12  C   UNL     1       2.070   0.355  22.956  0.00  0.00    +0.253 C 
ATOM     13  O   UNL     1       1.978  -0.450  22.801  0.00  0.00    -0.272 OA
BRANCH  12  14
ATOM     14  C   UNL     1       2.783   0.730  22.781  0.00  0.00    +0.145 C 
BRANCH  14  15
ATOM     15  S   UNL     1       3.498   0.379  22.997  0.00  0.00    -0.119 S 
BRANCH  15  16
ATOM     16  C   UNL     1       4.207   0.784  22.886  0.00  0.00    +0.172 C 
BRANCH  16  17
ATOM     17  C   UNL     1       4.900   0.509  23.240  0.00  0.00    +0.376 C 
ATOM     18  O   UNL     1       5.369  -0.048  22.853  0.00  0.00    -0.245 OA
ATOM     19  O   UNL     1       5.125   0.793  23.981  0.00  0.00    -0.245 OA
ENDBRANCH  16  17
ENDBRANCH  15  16
ENDBRANCH  14  15
ENDBRANCH  12  14
ENDBRANCH  10  11
ENDBRANCH   7   8
TORSDOF 8
ENDMDL
MODEL 5
REMARK VINA RESULT:      -9.1      1.749      2.422
REMARK  Name = 
REMARK  8 active torsions:
REMARK  status: ('A' for Active; 'I' for Inactive)
REMARK    1  A    between atoms: N_4  and  C_22
REMARK    2  A    between atoms: C_7  and  C_8
REMARK    3  A    between atoms: C_10  and  N_11
REMARK    4  A    between atoms: C_12  and  C_14
REMARK    5  A    between atoms: C_14  and  S_15
REMARK    6  A    between atoms: S_15  and  C_16
REMARK    7  A    between atoms: C_16  and  C_17
REMARK    8  A    between atoms: C_25  and  C_28
REMARK                            x       y       z     vdW  Elec       q    Type
REMARK                         _______ _______ _______ _____ _____    ______ ____
ROOT
ATOM      1  C   UNL     1      -1.641   4.500  25.235  0.00  0.00    +0.054 C 
ATOM      2  C   UNL     1      -2.129   3.836  25.200  0.00  0.00    +0.077 A 
ATOM      3  N   UNL     1      -2.953   3.842  25.162  0.00  0.00    -0.170 NA
ATOM      4  N   UNL     1      -3.213   3.059  25.135  0.00  0.00    -0.234 N 
ATOM      5  C   UNL     1      -2.550   2.570  25.157  0.00  0.00    +0.058 A 
ATOM      6  C   UNL     1      -2.554   1.745  25.141  0.00  0.00    +0.052 C 
ATOM      7  C   UNL     1      -1.880   3.050  25.197  0.00  0.00    +0.010 A 
ENDROOT
BRANCH   4  22
ATOM     22  C   UNL     1      -3.999   2.810  25.094  0.00  0.00    +0.082 A 
ATOM     23  C   UNL     1      -4.490   2.888  25.751  0.00  0.00    +0.019 A 
ATOM     24  C   UNL     1      -5.276   2.638  25.710  0.00  0.00    +0.005 A 
ATOM     25  C   UNL     1      -5.569   2.312  25.012  0.00  0.00    +0.072 A 
ATOM     26  C   UNL     1      -5.077   2.234  24.354  0.00  0.00    +0.005 A 
ATOM     27  C   UNL     1      -4.292   2.483  24.395  0.00  0.00    +0.019 A 
BRANCH  25  28
ATOM     28  C   UNL     1      -6.355   2.062  24.971  0.00  0.00    +0.419 C 
ATOM     29  F   UNL     1      -7.140   1.813  24.930  0.00  0.00    -0.166 F 
ATOM     30  F   UNL     1      -6.107   1.332  24.677  0.00  0.00    -0.166 F 
ATOM     31  F   UNL     1      -6.602   2.792  25.265  0.00  0.00    -0.166 F 
ENDBRANCH  25  28
ENDBRANCH   4  22
BRANCH   7   8
ATOM      8  C   UNL     1      -1.098   2.790  25.228  0.00  0.00    +0.048 C 
ATOM      9  C   UNL     1      -0.627   2.593  24.580  0.00  0.00    +0.035 C 
ATOM     10  C   UNL     1       0.114   2.363  24.863  0.00  0.00    +0.118 C 
ATOM     20  C   UNL     1       0.100   2.418  25.685  0.00  0.00    -0.009 C 
ATOM     21  C   UNL     1      -0.648   2.682  25.911  0.00  0.00    -0.025 C 
BRANCH  10  11
ATOM     11  N   UNL     1       0.754   2.120  24.404  0.00  0.00    -0.202 NA
ATOM     12  C   UNL     1       0.797   1.342  24.132  0.00  0.00    +0.253 C 
ATOM     13  O   UNL     1       0.197   0.807  24.318  0.00  0.00    -0.272 OA
BRANCH  12  14
ATOM     14  C   UNL     1       1.437   1.100  23.673  0.00  0.00    +0.145 C 
BRANCH  14  15
ATOM     15  S   UNL     1       1.344   0.496  23.119  0.00  0.00    -0.119 S 
BRANCH  15  16
ATOM     16  C   UNL     1       1.999   0.067  22.861  0.00  0.00    +0.172 C 
BRANCH  16  17
ATOM     17  C   UNL     1       2.094  -0.100  22.059  0.00  0.00    +0.376 C 
ATOM     18  O   UNL     1       1.481  -0.449  21.633  0.00  0.00    -0.245 OA
ATOM     19  O   UNL     1       2.805   0.084  21.682  0.00  0.00    -0.245 OA
ENDBRANCH  16  17
ENDBRANCH  15  16
ENDBRANCH  14  15
ENDBRANCH  12  14
ENDBRANCH  10  11
ENDBRANCH   7   8
TORSDOF 8
ENDMDL
MODEL 6
REMARK VINA RESULT:      -8.4      2.096      2.785
REMARK  Name = 
REMARK  8 active torsions:
REMARK  status: ('A' for Active; 'I' for Inactive)
REMARK    1  A    between atoms: N_4  and  C_22
REMARK    2  A    between atoms: C_7  and  C_8
REMARK    3  A    between atoms: C_10  and  N_11
REMARK    4  A    between atoms: C_12  and  C_14
REMARK    5  A    between atoms: C_14  and  S_15
REMARK    6  A    between atoms: S_15  and  C_16
REMARK    7  A    between atoms: C_16  and  C_17
REMARK    8  A    between atoms: C_25  and  C_28
REMARK                            x       y       z     vdW  Elec       q    Type
REMARK                         _______ _______ _______ _____ _____    ______ ____
ROOT
ATOM      1  C   UNL     1      -0.668  -0.631  24.837  0.00  0.00    +0.054 C 
ATOM      2  C   UNL     1      -0.725   0.185  24.734  0.00  0.00    +0.077 A 
ATOM      3  N   UNL     1      -1.198   0.697  25.176  0.00  0.00    -0.170 NA
ATOM      4  N   UNL     1      -1.084   1.462  24.887  0.00  0.00    -0.234 N 
ATOM      5  C   UNL     1      -0.541   1.422  24.267  0.00  0.00    +0.058 A 
ATOM      6  C   UNL     1      -0.268   2.059  23.819  0.00  0.00    +0.052 C 
ATOM      7  C   UNL     1      -0.319   0.633  24.173  0.00  0.00    +0.010 A 
ENDROOT
BRANCH   4  22
ATOM     22  C   UNL     1      -1.450   2.146  25.168  0.00  0.00    +0.082 A 
ATOM     23  C   UNL     1      -2.200   2.353  24.897  0.00  0.00    +0.019 A 
ATOM     24  C   UNL     1      -2.566   3.037  25.178  0.00  0.00    +0.005 A 
ATOM     25  C   UNL     1      -2.181   3.514  25.731  0.00  0.00    +0.072 A 
ATOM     26  C   UNL     1      -1.429   3.306  26.002  0.00  0.00    +0.005 A 
ATOM     27  C   UNL     1      -1.064   2.622  25.721  0.00  0.00    +0.019 A 
BRANCH  25  28
ATOM     28  C   UNL     1      -2.546   4.198  26.012  0.00  0.00    +0.419 C 
ATOM     29  F   UNL     1      -2.911   4.882  26.294  0.00  0.00    -0.166 F 
ATOM     30  F   UNL     1      -2.114   4.650  25.474  0.00  0.00    -0.166 F 
ATOM     31  F   UNL     1      -2.977   3.746  26.551  0.00  0.00    -0.166 F 
ENDBRANCH  25  28
ENDBRANCH   4  22
BRANCH   7   8
ATOM      8  C   UNL     1       0.215   0.342  23.615  0.00  0.00    +0.048 C 
ATOM      9  C   UNL     1       1.020   0.213  23.737  0.00  0.00    +0.035 C 
ATOM     10  C   UNL     1       1.342  -0.079  23.036  0.00  0.00    +0.118 C 
ATOM     20  C   UNL     1       0.735  -0.131  22.480  0.00  0.00    -0.009 C 
ATOM     21  C   UNL     1       0.038   0.129  22.838  0.00  0.00    -0.025 C 
BRANCH  10  11
ATOM     11  N   UNL     1       2.130  -0.284  22.912  0.00  0.00    -0.202 NA
ATOM     12  C   UNL     1       2.692   0.303  22.765  0.00  0.00    +0.253 C 
ATOM     13  O   UNL     1       2.463   1.095  22.742  0.00  0.00    -0.272 OA
BRANCH  12  14
ATOM     14  C   UNL     1       3.480   0.098  22.641  0.00  0.00    +0.145 C 
BRANCH  14  15
ATOM     15  S   UNL     1       4.073   0.433  23.107  0.00  0.00    -0.119 S 
BRANCH  15  16
ATOM     16  C   UNL     1       4.844   0.145  23.066  0.00  0.00    +0.172 C 
BRANCH  16  17
ATOM     17  C   UNL     1       5.336   0.183  23.727  0.00  0.00    +0.376 C 
ATOM     18  O   UNL     1       5.541   0.914  24.048  0.00  0.00    -0.245 OA
ATOM     19  O   UNL     1       5.622  -0.512  24.068  0.00  0.00    -0.245 OA
ENDBRANCH  16  17
ENDBRANCH  15  16
ENDBRANCH  14  15
ENDBRANCH  12  14
ENDBRANCH  10  11
ENDBRANCH   7   8
TORSDOF 8
ENDMDL
