MODEL 1
REMARK VINA RESULT:     -10.1      0.000      0.000
REMARK  Name = 
REMARK  3 active torsions:
REMARK  status: ('A' for Active; 'I' for Inactive)
REMARK    1  A    between atoms: C_2  and  C_17
REMARK    2  A    between atoms: C_8  and  O_10
REMARK    3  A    between atoms: O_10  and  C_11
REMARK                            x       y       z     vdW  Elec       q    Type
REMARK                         _______ _______ _______ _____ _____    ______ ____
ROOT
ATOM      1  O   UNL     1      -4.714   0.409  24.773  0.00  0.00    -0.270 OA
ATOM      2  C   UNL     1      -3.974   0.075  24.621  0.00  0.00    +0.249 C 
ATOM      3  N   UNL     1      -3.339   0.557  24.411  0.00  0.00    -0.270 N 
ATOM      4  C   UNL     1      -2.625   0.168  24.272  0.00  0.00    +0.126 C 
ATOM      5  C   UNL     1      -1.897   0.491  24.055  0.00  0.00    +0.164 C 
ATOM      6  O   UNL     1      -1.703   1.282  23.924  0.00  0.00    -0.348 OA
ATOM      7  C   UNL     1      -2.190   1.947  23.978  0.00  0.00    +0.187 C 
ATOM      8  C   UNL     1      -2.990   1.983  24.175  0.00  0.00    +0.215 C 
ATOM      9  C   UNL     1      -3.502   1.365  24.369  0.00  0.00    +0.140 C 
ENDROOT
BRANCH   2  17
ATOM     17  C   UNL     1      -3.871  -0.741  24.680  0.00  0.00    +0.057 A 
ATOM     18  C   UNL     1      -4.037  -1.226  24.034  0.00  0.00    +0.025 A 
ATOM     19  C   UNL     1      -3.934  -2.042  24.093  0.00  0.00    +0.099 A 
ATOM     20  N   UNL     1      -3.664  -2.373  24.798  0.00  0.00    -0.242 NA
ATOM     21  C   UNL     1      -3.497  -1.889  25.444  0.00  0.00    +0.099 A 
ATOM     22  C   UNL     1      -3.601  -1.072  25.386  0.00  0.00    +0.025 A 
ENDBRANCH   2  17
BRANCH   8  10
ATOM     10  O   UNL     1      -3.323   2.739  24.181  0.00  0.00    -0.473 OA
BRANCH  10  11
ATOM     11  C   UNL     1      -3.152   3.261  24.796  0.00  0.00    +0.158 A 
ATOM     12  C   UNL     1      -3.682   3.347  25.423  0.00  0.00    +0.040 A 
ATOM     13  C   UNL     1      -3.510   3.869  26.038  0.00  0.00    +0.024 A 
ATOM     14  C   UNL     1      -2.809   4.305  26.027  0.00  0.00    +0.099 A 
ATOM     15  N   UNL     1      -2.280   4.218  25.400  0.00  0.00    -0.239 NA
ATOM     16  C   UNL     1      -2.451   3.696  24.785  0.00  0.00    +0.136 A 
ENDBRANCH  10  11
ENDBRANCH   8  10
TORSDOF 3
ENDMDL
MODEL 2
REMARK VINA RESULT:      -9.9      1.136      4.463
REMARK  Name = 
REMARK  3 active torsions:
REMARK  status: ('A' for Active; 'I' for Inactive)
REMARK    1  A    between atoms: C_2  and  C_17
REMARK    2  A    between atoms: C_8  and  O_10
REMARK    3  A    between atoms: O_10  and  C_11
REMARK                            x       y       z     vdW  Elec       q    Type
REMARK                         _______ _______ _______ _____ _____    ______ ____
ROOT
ATOM      1  O   UNL     1      -5.084   1.442  24.904  0.00  0.00    -0.270 OA
ATOM      2  C   UNL     1      -4.298   1.681  24.827  0.00  0.00    +0.249 C 
ATOM      3  N   UNL     1      -3.688   1.139  24.942  0.00  0.00    -0.270 N 
ATOM      4  C   UNL     1      -2.923   1.435  24.852  0.00  0.00    +0.126 C 
ATOM      5  C   UNL     1      -2.204   1.036  24.930  0.00  0.00    +0.164 C 
ATOM      6  O   UNL     1      -2.073   0.244  25.118  0.00  0.00    -0.348 OA
ATOM      7  C   UNL     1      -2.628  -0.347  25.274  0.00  0.00    +0.187 C 
ATOM      8  C   UNL     1      -3.451  -0.290  25.280  0.00  0.00    +0.215 C 
ATOM      9  C   UNL     1      -3.923   0.371  25.133  0.00  0.00    +0.140 C 
ENDROOT
BRANCH   2  17
ATOM     17  C   UNL     1      -4.122   2.464  24.634  0.00  0.00    +0.057 A 
ATOM     18  C   UNL     1      -4.039   3.028  25.231  0.00  0.00    +0.025 A 
ATOM     19  C   UNL     1      -3.864   3.810  25.038  0.00  0.00    +0.099 A 
ATOM     20  N   UNL     1      -3.772   4.029  24.248  0.00  0.00    -0.242 NA
ATOM     21  C   UNL     1      -3.855   3.466  23.651  0.00  0.00    +0.099 A 
ATOM     22  C   UNL     1      -4.031   2.683  23.844  0.00  0.00    +0.025 A 
ENDBRANCH   2  17
BRANCH   8  10
ATOM     10  O   UNL     1      -3.856  -0.987  25.458  0.00  0.00    -0.473 OA
BRANCH  10  11
ATOM     11  C   UNL     1      -3.804  -1.635  24.951  0.00  0.00    +0.158 A 
ATOM     12  C   UNL     1      -4.233  -1.642  24.246  0.00  0.00    +0.040 A 
ATOM     13  C   UNL     1      -4.181  -2.290  23.738  0.00  0.00    +0.024 A 
ATOM     14  C   UNL     1      -3.701  -2.932  23.936  0.00  0.00    +0.099 A 
ATOM     15  N   UNL     1      -3.273  -2.924  24.641  0.00  0.00    -0.239 NA
ATOM     16  C   UNL     1      -3.325  -2.276  25.148  0.00  0.00    +0.136 A 
ENDBRANCH  10  11
ENDBRANCH   8  10
TORSDOF 3
ENDMDL
MODEL 3
REMARK VINA RESULT:      -9.5      1.672      4.439
REMARK  Name = 
REMARK  3 active torsions:
REMARK  status: ('A' for Active; 'I' for Inactive)
REMARK    1  A    between atoms: C_2  and  C_17
REMARK    2  A    between atoms: C_8  and  O_10
REMARK    3  A    between atoms: O_10  and  C_11
REMARK                            x       y       z     vdW  Elec       q    Type
REMARK                         _______ _______ _______ _____ _____    ______ ____
ROOT
ATOM      1  O   UNL     1      -1.175   0.034  25.894  0.00  0.00    -0.270 OA
ATOM      2  C   UNL     1      -1.337   0.664  25.385  0.00  0.00    +0.249 C 
ATOM      3  N   UNL     1      -2.081   0.730  25.036  0.00  0.00    -0.270 N 
ATOM      4  C   UNL     1      -2.185   1.380  24.537  0.00  0.00    +0.126 C 
ATOM      5  C   UNL     1      -2.858   1.598  24.111  0.00  0.00    +0.164 C 
ATOM      6  O   UNL     1      -3.591   1.221  24.078  0.00  0.00    -0.348 OA
ATOM      7  C   UNL     1      -3.833   0.533  24.463  0.00  0.00    +0.187 C 
ATOM      8  C   UNL     1      -3.403   0.052  24.976  0.00  0.00    +0.215 C 
ATOM      9  C   UNL     1      -2.623   0.139  25.231  0.00  0.00    +0.140 C 
ENDROOT
BRANCH   2  17
ATOM     17  C   UNL     1      -0.754   1.226  25.226  0.00  0.00    +0.057 A 
ATOM     18  C   UNL     1      -0.268   1.141  24.566  0.00  0.00    +0.025 A 
ATOM     19  C   UNL     1       0.314   1.704  24.407  0.00  0.00    +0.099 A 
ATOM     20  N   UNL     1       0.410   2.350  24.910  0.00  0.00    -0.242 NA
ATOM     21  C   UNL     1      -0.076   2.435  25.570  0.00  0.00    +0.099 A 
ATOM     22  C   UNL     1      -0.659   1.873  25.729  0.00  0.00    +0.025 A 
ENDBRANCH   2  17
BRANCH   8  10
ATOM     10  O   UNL     1      -3.805  -0.605  25.274  0.00  0.00    -0.473 OA
BRANCH  10  11
ATOM     11  C   UNL     1      -3.836  -1.303  24.836  0.00  0.00    +0.158 A 
ATOM     12  C   UNL     1      -3.414  -1.966  25.089  0.00  0.00    +0.040 A 
ATOM     13  C   UNL     1      -3.445  -2.665  24.651  0.00  0.00    +0.024 A 
ATOM     14  C   UNL     1      -3.897  -2.701  23.961  0.00  0.00    +0.099 A 
ATOM     15  N   UNL     1      -4.318  -2.037  23.710  0.00  0.00    -0.239 NA
ATOM     16  C   UNL     1      -4.288  -1.339  24.148  0.00  0.00    +0.136 A 
ENDBRANCH  10  11
ENDBRANCH   8  10
TORSDOF 3
ENDMDL
MODEL 4
REMARK VINA RESULT:      -9.4      1.776      2.159
REMARK  Name = 
REMARK  3 active torsions:
REMARK  status: ('A' for Active; 'I' for Inactive)
REMARK    1  A    between atoms: C_2  and  C_17
REMARK    2  A    between atoms: C_8  and  O_10
REMARK    3  A    between atoms: O_10  and  C_11
REMARK                            x       y       z     vdW  Elec       q    Type
REMARK                         _______ _______ _______ _____ _____    ______ ____
ROOT
ATOM      1  O   UNL     1      -3.434  -0.318  25.724  0.00  0.00    -0.270 OA
ATOM      2  C   UNL     1      -3.002  -0.782  25.195  0.00  0.00    +0.249 C 
ATOM      3  N   UNL     1      -2.214  -0.599  25.034  0.00  0.00    -0.270 N 
ATOM      4  C   UNL     1      -1.833  -1.098  24.498  0.00  0.00    +0.126 C 
ATOM      5  C   UNL     1      -1.055  -1.061  24.226  0.00  0.00    +0.164 C 
ATOM      6  O   UNL     1      -0.466  -0.518  24.423  0.00  0.00    -0.348 OA
ATOM      7  C   UNL     1      -0.509   0.123  24.940  0.00  0.00    +0.187 C 
ATOM      8  C   UNL     1      -1.153   0.379  25.388  0.00  0.00    +0.215 C 
ATOM      9  C   UNL     1      -1.912   0.058  25.430  0.00  0.00    +0.140 C 
ENDROOT
BRANCH   2  17
ATOM     17  C   UNL     1      -3.359  -1.429  24.828  0.00  0.00    +0.057 A 
ATOM     18  C   UNL     1      -3.251  -2.188  25.133  0.00  0.00    +0.025 A 
ATOM     19  C   UNL     1      -3.608  -2.835  24.765  0.00  0.00    +0.099 A 
ATOM     20  N   UNL     1      -4.073  -2.722  24.093  0.00  0.00    -0.242 NA
ATOM     21  C   UNL     1      -4.180  -1.963  23.788  0.00  0.00    +0.099 A 
ATOM     22  C   UNL     1      -3.823  -1.316  24.155  0.00  0.00    +0.025 A 
ENDBRANCH   2  17
BRANCH   8  10
ATOM     10  O   UNL     1      -1.019   1.046  25.857  0.00  0.00    -0.473 OA
BRANCH  10  11
ATOM     11  C   UNL     1      -0.897   1.781  25.503  0.00  0.00    +0.158 A 
ATOM     12  C   UNL     1      -1.541   2.272  25.342  0.00  0.00    +0.040 A 
ATOM     13  C   UNL     1      -1.419   3.008  24.988  0.00  0.00    +0.024 A 
ATOM     14  C   UNL     1      -0.654   3.252  24.796  0.00  0.00    +0.099 A 
ATOM     15  N   UNL     1      -0.012   2.760  24.958  0.00  0.00    -0.239 NA
ATOM     16  C   UNL     1      -0.134   2.025  25.312  0.00  0.00    +0.136 A 
ENDBRANCH  10  11
ENDBRANCH   8  10
TORSDOF 3
ENDMDL
MODEL 5
REMARK VINA RESULT:      -9.4      1.262      4.591
REMARK  Name = 
REMARK  3 active torsions:
REMARK  status: ('A' for Active; 'I' for Inactive)
REMARK    1  A    between atoms: C_2  and  C_17
REMARK    2  A    between atoms: C_8  and  O_10
REMARK    3  A    between atoms: O_10  and  C_11
REMARK                            x       y       z     vdW  Elec       q    Type
REMARK                         _______ _______ _______ _____ _____    ______ ____
ROOT
ATOM      1  O   UNL     1      -0.960   2.165  25.902  0.00  0.00    -0.270 OA
ATOM      2  C   UNL     1      -1.441   2.533  25.342  0.00  0.00    +0.249 C 
ATOM      3  N   UNL     1      -1.863   2.080  24.797  0.00  0.00    -0.270 N 
ATOM      4  C   UNL     1      -2.326   2.503  24.261  0.00  0.00    +0.126 C 
ATOM      5  C   UNL     1      -2.806   2.212  23.656  0.00  0.00    +0.164 C 
ATOM      6  O   UNL     1      -2.942   1.429  23.437  0.00  0.00    -0.348 OA
ATOM      7  C   UNL     1      -2.630   0.741  23.770  0.00  0.00    +0.187 C 
ATOM      8  C   UNL     1      -2.107   0.667  24.403  0.00  0.00    +0.215 C 
ATOM      9  C   UNL     1      -1.765   1.263  24.860  0.00  0.00    +0.140 C 
ENDROOT
BRANCH   2  17
ATOM     17  C   UNL     1      -1.500   3.356  25.326  0.00  0.00    +0.057 A 
ATOM     18  C   UNL     1      -2.135   3.732  25.695  0.00  0.00    +0.025 A 
ATOM     19  C   UNL     1      -2.194   4.554  25.680  0.00  0.00    +0.099 A 
ATOM     20  N   UNL     1      -1.617   5.001  25.296  0.00  0.00    -0.242 NA
ATOM     21  C   UNL     1      -0.982   4.626  24.927  0.00  0.00    +0.099 A 
ATOM     22  C   UNL     1      -0.923   3.803  24.942  0.00  0.00    +0.025 A 
ENDBRANCH   2  17
BRANCH   8  10
ATOM     10  O   UNL     1      -1.897  -0.105  24.605  0.00  0.00    -0.473 OA
BRANCH  10  11
ATOM     11  C   UNL     1      -2.477  -0.642  24.842  0.00  0.00    +0.158 A 
ATOM     12  C   UNL     1      -2.723  -0.663  25.629  0.00  0.00    +0.040 A 
ATOM     13  C   UNL     1      -3.303  -1.199  25.866  0.00  0.00    +0.024 A 
ATOM     14  C   UNL     1      -3.638  -1.715  25.315  0.00  0.00    +0.099 A 
ATOM     15  N   UNL     1      -3.392  -1.693  24.528  0.00  0.00    -0.239 NA
ATOM     16  C   UNL     1      -2.811  -1.157  24.292  0.00  0.00    +0.136 A 
ENDBRANCH  10  11
ENDBRANCH   8  10
TORSDOF 3
ENDMDL
