MODEL 1
REMARK VINA RESULT:      -9.6      0.000      0.000
REMARK  Name = 
REMARK  3 active torsions:
REMARK  status: ('A' for Active; 'I' for Inactive)
REMARK    1  A    between atoms: C_4  and  C_14
REMARK    2  A    between atoms: C_5  and  N_6
REMARK    3  A    between atoms: C_7  and  C_9
REMARK                            x       y       z     vdW  Elec       q    Type
REMARK                         _______ _______ _______ _____ _____    ______ ____
ROOT
ATOM      1  O   UNL     1      -5.510   2.887  25.817  0.00  0.00    -0.220 OA
ATOM      2  C   UNL     1      -4.800   2.916  25.398  0.00  0.00    +0.184 C 
ATOM      3  C   UNL     1      -4.514   2.335  24.887  0.00  0.00    +0.042 C 
ATOM      4  C   UNL     1      -3.788   2.592  24.590  0.00  0.00    +0.049 C 
ATOM      5  C   UNL     1      -3.626   3.331  24.917  0.00  0.00    +0.132 C 
ATOM     12  C   UNL     1      -4.251   3.532  25.417  0.00  0.00    +0.202 C 
ATOM     13  O   UNL     1      -4.316   4.226  25.857  0.00  0.00    -0.219 OA
ENDROOT
BRANCH   4  14
ATOM     14  C   UNL     1      -3.309   2.180  24.058  0.00  0.00    -0.002 A 
ATOM     15  C   UNL     1      -3.303   2.390  23.261  0.00  0.00    -0.001 A 
ATOM     16  C   UNL     1      -2.824   1.979  22.729  0.00  0.00    +0.020 A 
ATOM     17  C   UNL     1      -2.351   1.359  22.996  0.00  0.00    +0.099 A 
ATOM     18  N   UNL     1      -2.356   1.149  23.794  0.00  0.00    -0.243 NA
ATOM     19  C   UNL     1      -2.836   1.560  24.325  0.00  0.00    +0.095 A 
ENDBRANCH   4  14
BRANCH   5   6
ATOM      6  N   UNL     1      -2.956   3.790  24.771  0.00  0.00    -0.204 NA
ATOM      7  C   UNL     1      -2.495   4.059  25.400  0.00  0.00    +0.241 C 
ATOM      8  O   UNL     1      -2.704   3.870  26.175  0.00  0.00    -0.273 OA
BRANCH   7   9
ATOM      9  C   UNL     1      -1.825   4.517  25.254  0.00  0.00    +0.078 C 
ATOM     10  C   UNL     1      -1.011   4.574  25.131  0.00  0.00    +0.010 C 
ATOM     11  C   UNL     1      -1.478   5.254  25.124  0.00  0.00    +0.010 C 
ENDBRANCH   7   9
ENDBRANCH   5   6
TORSDOF 3
ENDMDL
MODEL 2
REMARK VINA RESULT:      -9.6      1.737      3.320
REMARK  Name = 
REMARK  3 active torsions:
REMARK  status: ('A' for Active; 'I' for Inactive)
REMARK    1  A    between atoms: C_4  and  C_14
REMARK    2  A    between atoms: C_5  and  N_6
REMARK    3  A    between atoms: C_7  and  C_9
REMARK                            x       y       z     vdW  Elec       q    Type
REMARK                         _______ _______ _______ _____ _____    ______ ____
ROOT
ATOM      1  O   UNL     1      -5.400   2.863  25.570  0.00  0.00    -0.220 OA
ATOM      2  C   UNL     1      -4.875   2.385  25.151  0.00  0.00    +0.184 C 
ATOM      3  C   UNL     1      -4.152   2.622  24.832  0.00  0.00    +0.042 C 
ATOM      4  C   UNL     1      -3.810   1.969  24.461  0.00  0.00    +0.049 C 
ATOM      5  C   UNL     1      -4.322   1.328  24.550  0.00  0.00    +0.132 C 
ATOM     12  C   UNL     1      -4.980   1.585  24.977  0.00  0.00    +0.202 C 
ATOM     13  O   UNL     1      -5.629   1.123  25.192  0.00  0.00    -0.219 OA
ENDROOT
BRANCH   4  14
ATOM     14  C   UNL     1      -3.084   1.958  24.069  0.00  0.00    -0.002 A 
ATOM     15  C   UNL     1      -3.059   2.000  23.245  0.00  0.00    -0.001 A 
ATOM     16  C   UNL     1      -2.333   1.990  22.853  0.00  0.00    +0.020 A 
ATOM     17  C   UNL     1      -1.632   1.938  23.285  0.00  0.00    +0.099 A 
ATOM     18  N   UNL     1      -1.657   1.896  24.109  0.00  0.00    -0.243 NA
ATOM     19  C   UNL     1      -2.383   1.907  24.501  0.00  0.00    +0.095 A 
ENDBRANCH   4  14
BRANCH   5   6
ATOM      6  N   UNL     1      -4.198   0.564  24.264  0.00  0.00    -0.204 NA
ATOM      7  C   UNL     1      -4.227  -0.079  24.780  0.00  0.00    +0.241 C 
ATOM      8  O   UNL     1      -4.380   0.041  25.581  0.00  0.00    -0.273 OA
BRANCH   7   9
ATOM      9  C   UNL     1      -4.102  -0.843  24.493  0.00  0.00    +0.078 C 
ATOM     10  C   UNL     1      -3.715  -1.569  24.542  0.00  0.00    +0.010 C 
ATOM     11  C   UNL     1      -4.275  -1.438  23.950  0.00  0.00    +0.010 C 
ENDBRANCH   7   9
ENDBRANCH   5   6
TORSDOF 3
ENDMDL
MODEL 3
REMARK VINA RESULT:      -9.5      2.428      3.255
REMARK  Name = 
REMARK  3 active torsions:
REMARK  status: ('A' for Active; 'I' for Inactive)
REMARK    1  A    between atoms: C_4  and  C_14
REMARK    2  A    between atoms: C_5  and  N_6
REMARK    3  A    between atoms: C_7  and  C_9
REMARK                            x       y       z     vdW  Elec       q    Type
REMARK                         _______ _______ _______ _____ _____    ______ ____
ROOT
ATOM      1  O   UNL     1      -5.173   1.919  24.710  0.00  0.00    -0.220 OA
ATOM      2  C   UNL     1      -4.593   1.335  24.742  0.00  0.00    +0.184 C 
ATOM      3  C   UNL     1      -4.723   0.520  24.748  0.00  0.00    +0.042 C 
ATOM      4  C   UNL     1      -3.990   0.144  24.784  0.00  0.00    +0.049 C 
ATOM      5  C   UNL     1      -3.405   0.726  24.800  0.00  0.00    +0.132 C 
ATOM     12  C   UNL     1      -3.778   1.462  24.775  0.00  0.00    +0.202 C 
ATOM     13  O   UNL     1      -3.402   2.196  24.780  0.00  0.00    -0.219 OA
ENDROOT
BRANCH   4  14
ATOM     14  C   UNL     1      -3.863  -0.671  24.800  0.00  0.00    -0.002 A 
ATOM     15  C   UNL     1      -3.966  -1.119  24.115  0.00  0.00    -0.001 A 
ATOM     16  C   UNL     1      -3.839  -1.934  24.132  0.00  0.00    +0.020 A 
ATOM     17  C   UNL     1      -3.609  -2.301  24.833  0.00  0.00    +0.099 A 
ATOM     18  N   UNL     1      -3.505  -1.853  25.519  0.00  0.00    -0.243 NA
ATOM     19  C   UNL     1      -3.632  -1.038  25.502  0.00  0.00    +0.095 A 
ENDBRANCH   4  14
BRANCH   5   6
ATOM      6  N   UNL     1      -2.591   0.596  24.836  0.00  0.00    -0.204 NA
ATOM      7  C   UNL     1      -2.095   0.929  24.267  0.00  0.00    +0.241 C 
ATOM      8  O   UNL     1      -2.412   1.392  23.664  0.00  0.00    -0.273 OA
BRANCH   7   9
ATOM      9  C   UNL     1      -1.281   0.798  24.303  0.00  0.00    +0.078 C 
ATOM     10  C   UNL     1      -0.577   0.576  23.936  0.00  0.00    +0.010 C 
ATOM     11  C   UNL     1      -0.577   0.795  24.731  0.00  0.00    +0.010 C 
ENDBRANCH   7   9
ENDBRANCH   5   6
TORSDOF 3
ENDMDL
MODEL 4
REMARK VINA RESULT:      -9.5      2.139      3.508
REMARK  Name = 
REMARK  3 active torsions:
REMARK  status: ('A' for Active; 'I' for Inactive)
REMARK    1  A    between atoms: C_4  and  C_14
REMARK    2  A    between atoms: C_5  and  N_6
REMARK    3  A    between atoms: C_7  and  C_9
REMARK                            x       y       z     vdW  Elec       q    Type
REMARK                         _______ _______ _______ _____ _____    ______ ____
ROOT
ATOM      1  O   UNL     1      -1.850   1.921  23.156  0.00  0.00    -0.220 OA
ATOM      2  C   UNL     1      -2.450   1.507  23.542  0.00  0.00    +0.184 C 
ATOM      3  C   UNL     1      -2.412   0.725  23.800  0.00  0.00    +0.042 C 
ATOM      4  C   UNL     1      -3.133   0.538  24.156  0.00  0.00    +0.049 C 
ATOM      5  C   UNL     1      -3.617   1.205  24.117  0.00  0.00    +0.132 C 
ATOM     12  C   UNL     1      -3.195   1.805  23.738  0.00  0.00    +0.202 C 
ATOM     13  O   UNL     1      -3.470   2.566  23.581  0.00  0.00    -0.219 OA
ENDROOT
BRANCH   4  14
ATOM     14  C   UNL     1      -3.335  -0.188  24.491  0.00  0.00    -0.002 A 
ATOM     15  C   UNL     1      -3.793  -0.726  24.065  0.00  0.00    -0.001 A 
ATOM     16  C   UNL     1      -3.995  -1.453  24.400  0.00  0.00    +0.020 A 
ATOM     17  C   UNL     1      -3.738  -1.641  25.162  0.00  0.00    +0.099 A 
ATOM     18  N   UNL     1      -3.281  -1.103  25.588  0.00  0.00    -0.243 NA
ATOM     19  C   UNL     1      -3.079  -0.376  25.252  0.00  0.00    +0.095 A 
ENDBRANCH   4  14
BRANCH   5   6
ATOM      6  N   UNL     1      -4.388   1.263  24.406  0.00  0.00    -0.204 NA
ATOM      7  C   UNL     1      -4.589   1.875  24.921  0.00  0.00    +0.241 C 
ATOM      8  O   UNL     1      -4.022   2.429  25.147  0.00  0.00    -0.273 OA
BRANCH   7   9
ATOM      9  C   UNL     1      -5.360   1.933  25.211  0.00  0.00    +0.078 C 
ATOM     10  C   UNL     1      -6.174   1.938  25.078  0.00  0.00    +0.010 C 
ATOM     11  C   UNL     1      -5.879   2.028  25.844  0.00  0.00    +0.010 C 
ENDBRANCH   7   9
ENDBRANCH   5   6
TORSDOF 3
ENDMDL
MODEL 5
REMARK VINA RESULT:      -9.3      2.387      3.921
REMARK  Name = 
REMARK  3 active torsions:
REMARK  status: ('A' for Active; 'I' for Inactive)
REMARK    1  A    between atoms: C_4  and  C_14
REMARK    2  A    between atoms: C_5  and  N_6
REMARK    3  A    between atoms: C_7  and  C_9
REMARK                            x       y       z     vdW  Elec       q    Type
REMARK                         _______ _______ _______ _____ _____    ______ ____
ROOT
ATOM      1  O   UNL     1      -2.564   2.357  22.543  0.00  0.00    -0.220 OA
ATOM      2  C   UNL     1      -2.973   2.096  23.210  0.00  0.00    +0.184 C 
ATOM      3  C   UNL     1      -3.617   2.472  23.563  0.00  0.00    +0.042 C 
ATOM      4  C   UNL     1      -3.852   2.021  24.212  0.00  0.00    +0.049 C 
ATOM      5  C   UNL     1      -3.354   1.365  24.261  0.00  0.00    +0.132 C 
ATOM     12  C   UNL     1      -2.810   1.411  23.641  0.00  0.00    +0.202 C 
ATOM     13  O   UNL     1      -2.210   0.869  23.482  0.00  0.00    -0.219 OA
ENDROOT
BRANCH   4  14
ATOM     14  C   UNL     1      -4.476   2.194  24.724  0.00  0.00    -0.002 A 
ATOM     15  C   UNL     1      -5.243   1.954  24.535  0.00  0.00    -0.001 A 
ATOM     16  C   UNL     1      -5.867   2.128  25.047  0.00  0.00    +0.020 A 
ATOM     17  C   UNL     1      -5.724   2.542  25.746  0.00  0.00    +0.099 A 
ATOM     18  N   UNL     1      -4.957   2.782  25.934  0.00  0.00    -0.243 NA
ATOM     19  C   UNL     1      -4.333   2.608  25.423  0.00  0.00    +0.095 A 
ENDBRANCH   4  14
BRANCH   5   6
ATOM      6  N   UNL     1      -3.392   0.768  24.829  0.00  0.00    -0.204 NA
ATOM      7  C   UNL     1      -3.441  -0.022  24.594  0.00  0.00    +0.241 C 
ATOM      8  O   UNL     1      -3.453  -0.214  23.793  0.00  0.00    -0.273 OA
BRANCH   7   9
ATOM      9  C   UNL     1      -3.479  -0.619  25.162  0.00  0.00    +0.078 C 
ATOM     10  C   UNL     1      -3.741  -1.365  25.397  0.00  0.00    +0.010 C 
ATOM     11  C   UNL     1      -3.283  -0.907  25.909  0.00  0.00    +0.010 C 
ENDBRANCH   7   9
ENDBRANCH   5   6
TORSDOF 3
ENDMDL
