MODEL 1
REMARK VINA RESULT:     -11.8      0.000      0.000
REMARK  Name = 
REMARK  5 active torsions:
REMARK  status: ('A' for Active; 'I' for Inactive)
REMARK    1  A    between atoms: C_4  and  C_21
REMARK    2  A    between atoms: C_6  and  C_7
REMARK    3  A    between atoms: C_14  and  C_15
REMARK    4  A    between atoms: C_15  and  N_16
REMARK    5  A    between atoms: N_16  and  S_17
REMARK                            x       y       z     vdW  Elec       q    Type
REMARK                         _______ _______ _______ _____ _____    ______ ____
ROOT
ATOM      7  C   UNL     1      -3.481   1.639  24.709  0.00  0.00    +0.056 C 
ATOM      8  C   UNL     1      -3.511   2.053  25.367  0.00  0.00    +0.078 C 
ATOM      9  N   UNL     1      -3.142   2.280  24.664  0.00  0.00    -0.272 NA
ATOM     10  C   UNL     1      -3.284   1.503  23.975  0.00  0.00    +0.072 C 
ATOM     11  C   UNL     1      -3.196   1.249  23.379  0.00  0.00    +0.018 C 
ATOM     12  C   UNL     1      -3.117   1.869  24.023  0.00  0.00    +0.010 C 
ATOM     13  C   UNL     1      -2.673   2.594  23.808  0.00  0.00    +0.018 C 
ATOM     14  C   UNL     1      -2.679   3.032  24.433  0.00  0.00    +0.077 C 
ENDROOT
BRANCH   7   6
ATOM      1  C   UNL     1      -5.238   1.343  24.933  0.00  0.00    +0.153 C 
ATOM      2  N   UNL     1      -4.661   0.766  24.813  0.00  0.00    -0.253 N 
ATOM      3  N   UNL     1      -4.789  -0.048  24.774  0.00  0.00    -0.170 NA
ATOM      4  C   UNL     1      -4.061  -0.415  24.646  0.00  0.00    +0.102 A 
ATOM      5  C   UNL     1      -3.483   0.172  24.607  0.00  0.00    +0.035 A 
ATOM      6  C   UNL     1      -3.854   0.902  24.709  0.00  0.00    +0.058 A 
BRANCH   4  21
ATOM     21  C   UNL     1      -3.934  -1.227  24.572  0.00  0.00    +0.019 A 
ATOM     22  C   UNL     1      -3.502  -1.631  25.147  0.00  0.00    +0.002 A 
ATOM     23  C   UNL     1      -3.376  -2.443  25.072  0.00  0.00    +0.000 A 
ATOM     24  C   UNL     1      -3.681  -2.850  24.423  0.00  0.00    +0.000 A 
ATOM     25  C   UNL     1      -4.114  -2.446  23.848  0.00  0.00    +0.000 A 
ATOM     26  C   UNL     1      -4.240  -1.634  23.923  0.00  0.00    +0.002 A 
ENDBRANCH   4  21
ENDBRANCH   7   6
BRANCH  14  15
ATOM     15  C   UNL     1      -2.419   3.757  24.727  0.00  0.00    +0.131 C 
BRANCH  15  16
ATOM     16  N   UNL     1      -1.626   3.861  24.928  0.00  0.00    -0.081 NA
BRANCH  16  17
ATOM     17  S   UNL     1      -1.317   4.622  25.007  0.00  0.00    +0.059 S 
ATOM     18  C   UNL     1      -1.009   5.383  25.087  0.00  0.00    +0.197 C 
ATOM     19  O   UNL     1      -0.677   4.414  24.532  0.00  0.00    -0.156 OA
ATOM     20  O   UNL     1      -1.958   4.831  25.484  0.00  0.00    -0.156 OA
ENDBRANCH  16  17
ENDBRANCH  15  16
ENDBRANCH  14  15
TORSDOF 5
ENDMDL
MODEL 2
REMARK VINA RESULT:     -11.3      2.626      5.076
REMARK  Name = 
REMARK  5 active torsions:
REMARK  status: ('A' for Active; 'I' for Inactive)
REMARK    1  A    between atoms: C_4  and  C_21
REMARK    2  A    between atoms: C_6  and  C_7
REMARK    3  A    between atoms: C_14  and  C_15
REMARK    4  A    between atoms: C_15  and  N_16
REMARK    5  A    between atoms: N_16  and  S_17
REMARK                            x       y       z     vdW  Elec       q    Type
REMARK                         _______ _______ _______ _____ _____    ______ ____
ROOT
ATOM      7  C   UNL     1      -3.493   1.441  24.738  0.00  0.00    +0.056 C 
ATOM      8  C   UNL     1      -3.697   0.993  25.341  0.00  0.00    +0.078 C 
ATOM      9  N   UNL     1      -3.627   0.750  24.555  0.00  0.00    -0.272 NA
ATOM     10  C   UNL     1      -3.338   1.589  23.996  0.00  0.00    +0.072 C 
ATOM     11  C   UNL     1      -3.180   1.865  23.425  0.00  0.00    +0.018 C 
ATOM     12  C   UNL     1      -3.427   1.196  23.969  0.00  0.00    +0.010 C 
ATOM     13  C   UNL     1      -3.549   0.414  23.588  0.00  0.00    +0.018 C 
ATOM     14  C   UNL     1      -3.753  -0.059  24.152  0.00  0.00    +0.077 C 
ENDROOT
BRANCH   7   6
ATOM      1  C   UNL     1      -4.681   2.675  25.277  0.00  0.00    +0.153 C 
ATOM      2  N   UNL     1      -3.877   2.802  25.143  0.00  0.00    -0.253 N 
ATOM      3  N   UNL     1      -3.477   3.518  25.233  0.00  0.00    -0.170 NA
ATOM      4  C   UNL     1      -2.685   3.394  25.042  0.00  0.00    +0.102 A 
ATOM      5  C   UNL     1      -2.594   2.601  24.833  0.00  0.00    +0.035 A 
ATOM      6  C   UNL     1      -3.331   2.236  24.895  0.00  0.00    +0.058 A 
BRANCH   4  21
ATOM     21  C   UNL     1      -2.088   3.963  25.057  0.00  0.00    +0.019 A 
ATOM     22  C   UNL     1      -2.282   4.764  25.101  0.00  0.00    +0.002 A 
ATOM     23  C   UNL     1      -1.685   5.332  25.116  0.00  0.00    +0.000 A 
ATOM     24  C   UNL     1      -0.893   5.101  25.086  0.00  0.00    +0.000 A 
ATOM     25  C   UNL     1      -0.699   4.300  25.042  0.00  0.00    +0.000 A 
ATOM     26  C   UNL     1      -1.296   3.731  25.027  0.00  0.00    +0.002 A 
ENDBRANCH   4  21
ENDBRANCH   7   6
BRANCH  14  15
ATOM     15  C   UNL     1      -3.962  -0.841  24.306  0.00  0.00    +0.131 C 
BRANCH  15  16
ATOM     16  N   UNL     1      -3.534  -1.458  23.964  0.00  0.00    -0.081 NA
BRANCH  16  17
ATOM     17  S   UNL     1      -3.673  -2.236  24.201  0.00  0.00    +0.059 S 
ATOM     18  C   UNL     1      -3.813  -3.014  24.437  0.00  0.00    +0.197 C 
ATOM     19  O   UNL     1      -2.942  -2.253  24.581  0.00  0.00    -0.156 OA
ATOM     20  O   UNL     1      -4.406  -2.220  23.821  0.00  0.00    -0.156 OA
ENDBRANCH  16  17
ENDBRANCH  15  16
ENDBRANCH  14  15
TORSDOF 5
ENDMDL
MODEL 3
REMARK VINA RESULT:     -10.5      2.838      5.335
REMARK  Name = 
REMARK  5 active torsions:
REMARK  status: ('A' for Active; 'I' for Inactive)
REMARK    1  A    between atoms: C_4  and  C_21
REMARK    2  A    between atoms: C_6  and  C_7
REMARK    3  A    between atoms: C_14  and  C_15
REMARK    4  A    between atoms: C_15  and  N_16
REMARK    5  A    between atoms: N_16  and  S_17
REMARK                            x       y       z     vdW  Elec       q    Type
REMARK                         _______ _______ _______ _____ _____    ______ ____
ROOT
ATOM      7  C   UNL     1      -2.159   1.002  24.722  0.00  0.00    +0.056 C 
ATOM      8  C   UNL     1      -2.092   0.462  25.279  0.00  0.00    +0.078 C 
ATOM      9  N   UNL     1      -2.577   0.417  24.612  0.00  0.00    -0.272 NA
ATOM     10  C   UNL     1      -2.435   1.301  24.067  0.00  0.00    +0.072 C 
ATOM     11  C   UNL     1      -2.570   1.678  23.550  0.00  0.00    +0.018 C 
ATOM     12  C   UNL     1      -2.637   0.951  24.071  0.00  0.00    +0.010 C 
ATOM     13  C   UNL     1      -3.191   0.329  23.795  0.00  0.00    +0.018 C 
ATOM     14  C   UNL     1      -3.154  -0.226  24.319  0.00  0.00    +0.077 C 
ENDROOT
BRANCH   7   6
ATOM      1  C   UNL     1      -0.366   1.076  24.786  0.00  0.00    +0.153 C 
ATOM      2  N   UNL     1      -0.880   1.719  24.832  0.00  0.00    -0.253 N 
ATOM      3  N   UNL     1      -0.660   2.510  24.916  0.00  0.00    -0.170 NA
ATOM      4  C   UNL     1      -1.348   2.965  24.939  0.00  0.00    +0.102 A 
ATOM      5  C   UNL     1      -1.992   2.456  24.869  0.00  0.00    +0.035 A 
ATOM      6  C   UNL     1      -1.703   1.686  24.803  0.00  0.00    +0.058 A 
BRANCH   4  21
ATOM     21  C   UNL     1      -1.383   3.786  25.017  0.00  0.00    +0.019 A 
ATOM     22  C   UNL     1      -2.006   4.134  25.431  0.00  0.00    +0.002 A 
ATOM     23  C   UNL     1      -2.041   4.954  25.509  0.00  0.00    +0.000 A 
ATOM     24  C   UNL     1      -1.454   5.426  25.174  0.00  0.00    +0.000 A 
ATOM     25  C   UNL     1      -0.831   5.079  24.760  0.00  0.00    +0.000 A 
ATOM     26  C   UNL     1      -0.795   4.258  24.682  0.00  0.00    +0.002 A 
ENDBRANCH   4  21
ENDBRANCH   7   6
BRANCH  14  15
ATOM     15  C   UNL     1      -3.458  -0.968  24.508  0.00  0.00    +0.131 C 
BRANCH  15  16
ATOM     16  N   UNL     1      -3.345  -1.604  23.995  0.00  0.00    -0.081 NA
BRANCH  16  17
ATOM     17  S   UNL     1      -3.617  -2.354  24.202  0.00  0.00    +0.059 S 
ATOM     18  C   UNL     1      -3.890  -3.105  24.409  0.00  0.00    +0.197 C 
ATOM     19  O   UNL     1      -2.875  -2.541  24.508  0.00  0.00    -0.156 OA
ATOM     20  O   UNL     1      -4.360  -2.168  23.896  0.00  0.00    -0.156 OA
ENDBRANCH  16  17
ENDBRANCH  15  16
ENDBRANCH  14  15
TORSDOF 5
ENDMDL
MODEL 4
REMARK VINA RESULT:     -10.4      1.866      2.264
REMARK  Name = 
REMARK  5 active torsions:
REMARK  status: ('A' for Active; 'I' for Inactive)
REMARK    1  A    between atoms: C_4  and  C_21
REMARK    2  A    between atoms: C_6  and  C_7
REMARK    3  A    between atoms: C_14  and  C_15
REMARK    4  A    between atoms: C_15  and  N_16
REMARK    5  A    between atoms: N_16  and  S_17
REMARK                            x       y       z     vdW  Elec       q    Type
REMARK                         _______ _______ _______ _____ _____    ______ ____
ROOT
ATOM      7  C   UNL     1      -1.361   0.921  24.583  0.00  0.00    +0.056 C 
ATOM      8  C   UNL     1      -1.362   1.390  23.962  0.00  0.00    +0.078 C 
ATOM      9  N   UNL     1      -1.212   1.614  24.742  0.00  0.00    -0.272 NA
ATOM     10  C   UNL     1      -1.287   0.751  25.332  0.00  0.00    +0.072 C 
ATOM     11  C   UNL     1      -1.260   0.457  25.915  0.00  0.00    +0.018 C 
ATOM     12  C   UNL     1      -1.213   1.148  25.346  0.00  0.00    +0.010 C 
ATOM     13  C   UNL     1      -1.021   1.928  25.700  0.00  0.00    +0.018 C 
ATOM     14  C   UNL     1      -1.013   2.421  25.117  0.00  0.00    +0.077 C 
ENDROOT
BRANCH   7   6
ATOM      1  C   UNL     1      -0.202  -0.311  23.977  0.00  0.00    +0.153 C 
ATOM      2  N   UNL     1      -0.992  -0.444  24.174  0.00  0.00    -0.253 N 
ATOM      3  N   UNL     1      -1.389  -1.166  24.128  0.00  0.00    -0.170 NA
ATOM      4  C   UNL     1      -2.166  -1.047  24.378  0.00  0.00    +0.102 A 
ATOM      5  C   UNL     1      -2.250  -0.251  24.579  0.00  0.00    +0.035 A 
ATOM      6  C   UNL     1      -1.525   0.121  24.453  0.00  0.00    +0.058 A 
BRANCH   4  21
ATOM     21  C   UNL     1      -2.755  -1.623  24.420  0.00  0.00    +0.019 A 
ATOM     22  C   UNL     1      -3.457  -1.526  23.999  0.00  0.00    +0.002 A 
ATOM     23  C   UNL     1      -4.046  -2.102  24.042  0.00  0.00    +0.000 A 
ATOM     24  C   UNL     1      -3.932  -2.775  24.505  0.00  0.00    +0.000 A 
ATOM     25  C   UNL     1      -3.230  -2.872  24.926  0.00  0.00    +0.000 A 
ATOM     26  C   UNL     1      -2.641  -2.296  24.884  0.00  0.00    +0.002 A 
ENDBRANCH   4  21
ENDBRANCH   7   6
BRANCH  14  15
ATOM     15  C   UNL     1      -0.893   3.216  24.935  0.00  0.00    +0.131 C 
BRANCH  15  16
ATOM     16  N   UNL     1      -1.185   3.803  25.436  0.00  0.00    -0.081 NA
BRANCH  16  17
ATOM     17  S   UNL     1      -1.216   4.586  25.179  0.00  0.00    +0.059 S 
ATOM     18  C   UNL     1      -1.247   5.370  24.922  0.00  0.00    +0.197 C 
ATOM     19  O   UNL     1      -0.427   4.542  24.945  0.00  0.00    -0.156 OA
ATOM     20  O   UNL     1      -2.006   4.632  25.413  0.00  0.00    -0.156 OA
ENDBRANCH  16  17
ENDBRANCH  15  16
ENDBRANCH  14  15
TORSDOF 5
ENDMDL
MODEL 5
REMARK VINA RESULT:      -9.6      2.744      4.000
REMARK  Name = 
REMARK  5 active torsions:
REMARK  status: ('A' for Active; 'I' for Inactive)
REMARK    1  A    between atoms: C_4  and  C_21
REMARK    2  A    between atoms: C_6  and  C_7
REMARK    3  A    between atoms: C_14  and  C_15
REMARK    4  A    between atoms: C_15  and  N_16
REMARK    5  A    between atoms: N_16  and  S_17
REMARK                            x       y       z     vdW  Elec       q    Type
REMARK                         _______ _______ _______ _____ _____    ______ ____
ROOT
ATOM      7  C   UNL     1      -1.915   1.508  23.797  0.00  0.00    +0.056 C 
ATOM      8  C   UNL     1      -1.365   1.980  23.513  0.00  0.00    +0.078 C 
ATOM      9  N   UNL     1      -1.257   1.202  23.767  0.00  0.00    -0.272 NA
ATOM     10  C   UNL     1      -2.190   0.849  24.090  0.00  0.00    +0.072 C 
ATOM     11  C   UNL     1      -2.562   0.373  24.338  0.00  0.00    +0.018 C 
ATOM     12  C   UNL     1      -1.801   0.746  24.045  0.00  0.00    +0.010 C 
ATOM     13  C   UNL     1      -1.086   0.238  24.075  0.00  0.00    +0.018 C 
ATOM     14  C   UNL     1      -0.517   0.668  23.802  0.00  0.00    +0.077 C 
ENDROOT
BRANCH   7   6
ATOM      1  C   UNL     1      -2.903   2.130  22.432  0.00  0.00    +0.153 C 
ATOM      2  N   UNL     1      -3.135   2.097  23.223  0.00  0.00    -0.253 N 
ATOM      3  N   UNL     1      -3.862   2.344  23.526  0.00  0.00    -0.170 NA
ATOM      4  C   UNL     1      -3.857   2.211  24.340  0.00  0.00    +0.102 A 
ATOM      5  C   UNL     1      -3.128   1.882  24.540  0.00  0.00    +0.035 A 
ATOM      6  C   UNL     1      -2.682   1.812  23.850  0.00  0.00    +0.058 A 
BRANCH   4  21
ATOM     21  C   UNL     1      -4.474   2.378  24.861  0.00  0.00    +0.019 A 
ATOM     22  C   UNL     1      -4.451   3.061  25.322  0.00  0.00    +0.002 A 
ATOM     23  C   UNL     1      -5.069   3.227  25.843  0.00  0.00    +0.000 A 
ATOM     24  C   UNL     1      -5.709   2.711  25.904  0.00  0.00    +0.000 A 
ATOM     25  C   UNL     1      -5.732   2.027  25.443  0.00  0.00    +0.000 A 
ATOM     26  C   UNL     1      -5.115   1.860  24.921  0.00  0.00    +0.002 A 
ENDBRANCH   4  21
ENDBRANCH   7   6
BRANCH  14  15
ATOM     15  C   UNL     1       0.290   0.656  23.636  0.00  0.00    +0.131 C 
BRANCH  15  16
ATOM     16  N   UNL     1       0.621   0.013  23.241  0.00  0.00    -0.081 NA
BRANCH  16  17
ATOM     17  S   UNL     1       1.379   0.071  22.920  0.00  0.00    +0.059 S 
ATOM     18  C   UNL     1       2.137   0.130  22.599  0.00  0.00    +0.197 C 
ATOM     19  O   UNL     1       1.629   0.489  23.585  0.00  0.00    -0.156 OA
ATOM     20  O   UNL     1       1.129  -0.347  22.254  0.00  0.00    -0.156 OA
ENDBRANCH  16  17
ENDBRANCH  15  16
ENDBRANCH  14  15
TORSDOF 5
ENDMDL
