MODEL 1
REMARK VINA RESULT:     -12.0      0.000      0.000
REMARK  Name = 
REMARK  4 active torsions:
REMARK  status: ('A' for Active; 'I' for Inactive)
REMARK    1  A    between atoms: C_5  and  C_6
REMARK    2  A    between atoms: C_6  and  N_7
REMARK    3  A    between atoms: C_10  and  C_12
REMARK    4  A    between atoms: C_18  and  C_21
REMARK                            x       y       z     vdW  Elec       q    Type
REMARK                         _______ _______ _______ _____ _____    ______ ____
ROOT
ATOM      7  N   UNL     1      -4.726   2.584  25.105  0.00  0.00    -0.269 NA
ATOM      8  C   UNL     1      -5.361   2.249  25.512  0.00  0.00    +0.073 C 
ATOM      9  C   UNL     1      -5.287   1.428  25.468  0.00  0.00    +0.026 C 
ATOM     10  C   UNL     1      -4.607   1.256  25.034  0.00  0.00    +0.076 C 
ATOM     11  C   UNL     1      -4.260   1.970  24.809  0.00  0.00    +0.080 C 
ENDROOT
BRANCH  10  12
ATOM     12  C   UNL     1      -4.323   0.502  24.855  0.00  0.00    +0.140 A 
ATOM     13  N   UNL     1      -4.733  -0.086  24.448  0.00  0.00    -0.229 NA
ATOM     14  C   UNL     1      -4.243  -0.747  24.394  0.00  0.00    +0.100 A 
ATOM     15  C   UNL     1      -3.530  -0.567  24.768  0.00  0.00    +0.101 A 
ATOM     16  N   UNL     1      -3.579   0.205  25.053  0.00  0.00    -0.229 NA
ATOM     17  C   UNL     1      -2.929  -1.131  24.800  0.00  0.00    +0.031 A 
ATOM     18  C   UNL     1      -3.039  -1.873  24.459  0.00  0.00    +0.070 A 
ATOM     19  C   UNL     1      -3.752  -2.053  24.085  0.00  0.00    +0.012 A 
ATOM     20  C   UNL     1      -4.355  -1.490  24.052  0.00  0.00    +0.021 A 
BRANCH  18  21
ATOM     21  C   UNL     1      -2.438  -2.436  24.491  0.00  0.00    +0.100 C 
ATOM     22  N   UNL     1      -1.836  -3.000  24.524  0.00  0.00    -0.191 NA
ENDBRANCH  18  21
ENDBRANCH  10  12
BRANCH   7   6
ATOM      6  C   UNL     1      -4.582   3.391  25.010  0.00  0.00    +0.099 C 
BRANCH   6   5
ATOM      1  C   UNL     1      -1.546   4.593  25.482  0.00  0.00    +0.031 C 
ATOM      2  C   UNL     1      -2.305   4.293  25.364  0.00  0.00    -0.022 A 
ATOM      3  C   UNL     1      -2.563   4.113  24.602  0.00  0.00    -0.005 A 
ATOM      4  C   UNL     1      -3.323   3.812  24.483  0.00  0.00    -0.003 A 
ATOM      5  C   UNL     1      -3.823   3.691  25.128  0.00  0.00    -0.006 A 
ATOM     23  C   UNL     1      -3.565   3.871  25.891  0.00  0.00    -0.003 A 
ATOM     24  C   UNL     1      -2.806   4.172  26.009  0.00  0.00    -0.005 A 
ENDBRANCH   6   5
ENDBRANCH   7   6
TORSDOF 4
ENDMDL
MODEL 2
REMARK VINA RESULT:     -11.9      1.574      5.326
REMARK  Name = 
REMARK  4 active torsions:
REMARK  status: ('A' for Active; 'I' for Inactive)
REMARK    1  A    between atoms: C_5  and  C_6
REMARK    2  A    between atoms: C_6  and  N_7
REMARK    3  A    between atoms: C_10  and  C_12
REMARK    4  A    between atoms: C_18  and  C_21
REMARK                            x       y       z     vdW  Elec       q    Type
REMARK                         _______ _______ _______ _____ _____    ______ ____
ROOT
ATOM      7  N   UNL     1      -3.884   0.312  24.350  0.00  0.00    -0.269 NA
ATOM      8  C   UNL     1      -3.694   0.450  23.559  0.00  0.00    +0.073 C 
ATOM      9  C   UNL     1      -3.202   1.112  23.527  0.00  0.00    +0.026 C 
ATOM     10  C   UNL     1      -3.087   1.382  24.298  0.00  0.00    +0.076 C 
ATOM     11  C   UNL     1      -3.509   0.888  24.807  0.00  0.00    +0.080 C 
ENDROOT
BRANCH  10  12
ATOM     12  C   UNL     1      -2.631   2.033  24.521  0.00  0.00    +0.140 A 
ATOM     13  N   UNL     1      -1.930   2.008  24.955  0.00  0.00    -0.229 NA
ATOM     14  C   UNL     1      -1.663   2.781  25.051  0.00  0.00    +0.100 A 
ATOM     15  C   UNL     1      -2.198   3.285  24.677  0.00  0.00    +0.101 A 
ATOM     16  N   UNL     1      -2.797   2.823  24.350  0.00  0.00    -0.229 NA
ATOM     17  C   UNL     1      -2.071   4.100  24.684  0.00  0.00    +0.031 A 
ATOM     18  C   UNL     1      -1.408   4.412  25.064  0.00  0.00    +0.070 A 
ATOM     19  C   UNL     1      -0.873   3.908  25.438  0.00  0.00    +0.012 A 
ATOM     20  C   UNL     1      -0.999   3.093  25.432  0.00  0.00    +0.021 A 
BRANCH  18  21
ATOM     21  C   UNL     1      -1.281   5.226  25.070  0.00  0.00    +0.100 C 
ATOM     22  N   UNL     1      -1.154   6.042  25.076  0.00  0.00    -0.191 NA
ENDBRANCH  18  21
ENDBRANCH  10  12
BRANCH   7   6
ATOM      6  C   UNL     1      -4.364  -0.295  24.634  0.00  0.00    +0.099 C 
BRANCH   6   5
ATOM      1  C   UNL     1      -3.256  -3.403  24.660  0.00  0.00    +0.031 C 
ATOM      2  C   UNL     1      -3.533  -2.626  24.654  0.00  0.00    -0.022 A 
ATOM      3  C   UNL     1      -3.978  -2.352  24.016  0.00  0.00    -0.005 A 
ATOM      4  C   UNL     1      -4.256  -1.575  24.009  0.00  0.00    -0.003 A 
ATOM      5  C   UNL     1      -4.087  -1.072  24.641  0.00  0.00    -0.006 A 
ATOM     23  C   UNL     1      -3.641  -1.345  25.279  0.00  0.00    -0.003 A 
ATOM     24  C   UNL     1      -3.364  -2.123  25.285  0.00  0.00    -0.005 A 
ENDBRANCH   6   5
ENDBRANCH   7   6
TORSDOF 4
ENDMDL
MODEL 3
REMARK VINA RESULT:     -11.8      2.127      2.915
REMARK  Name = 
REMARK  4 active torsions:
REMARK  status: ('A' for Active; 'I' for Inactive)
REMARK    1  A    between atoms: C_5  and  C_6
REMARK    2  A    between atoms: C_6  and  N_7
REMARK    3  A    between atoms: C_10  and  C_12
REMARK    4  A    between atoms: C_18  and  C_21
REMARK                            x       y       z     vdW  Elec       q    Type
REMARK                         _______ _______ _______ _____ _____    ______ ____
ROOT
ATOM      7  N   UNL     1      -0.452   1.932  25.411  0.00  0.00    -0.269 NA
ATOM      8  C   UNL     1       0.015   1.750  24.755  0.00  0.00    +0.073 C 
ATOM      9  C   UNL     1      -0.241   1.026  24.452  0.00  0.00    +0.026 C 
ATOM     10  C   UNL     1      -0.866   0.760  24.922  0.00  0.00    +0.076 C 
ATOM     11  C   UNL     1      -0.996   1.320  25.513  0.00  0.00    +0.080 C 
ENDROOT
BRANCH  10  12
ATOM     12  C   UNL     1      -1.286   0.058  24.817  0.00  0.00    +0.140 A 
ATOM     13  N   UNL     1      -0.987  -0.705  24.908  0.00  0.00    -0.229 NA
ATOM     14  C   UNL     1      -1.596  -1.238  24.750  0.00  0.00    +0.100 A 
ATOM     15  C   UNL     1      -2.272  -0.805  24.561  0.00  0.00    +0.101 A 
ATOM     16  N   UNL     1      -2.081  -0.004  24.602  0.00  0.00    -0.229 NA
ATOM     17  C   UNL     1      -2.974  -1.197  24.375  0.00  0.00    +0.031 A 
ATOM     18  C   UNL     1      -3.000  -2.021  24.379  0.00  0.00    +0.070 A 
ATOM     19  C   UNL     1      -2.324  -2.454  24.568  0.00  0.00    +0.012 A 
ATOM     20  C   UNL     1      -1.622  -2.063  24.754  0.00  0.00    +0.021 A 
BRANCH  18  21
ATOM     21  C   UNL     1      -3.701  -2.412  24.193  0.00  0.00    +0.100 C 
ATOM     22  N   UNL     1      -4.404  -2.804  24.007  0.00  0.00    -0.191 NA
ENDBRANCH  18  21
ENDBRANCH  10  12
BRANCH   7   6
ATOM      6  C   UNL     1      -0.386   2.606  25.881  0.00  0.00    +0.099 C 
BRANCH   6   5
ATOM      1  C   UNL     1      -1.973   5.372  25.032  0.00  0.00    +0.031 C 
ATOM      2  C   UNL     1      -1.576   4.680  25.244  0.00  0.00    -0.022 A 
ATOM      3  C   UNL     1      -0.809   4.545  24.973  0.00  0.00    -0.005 A 
ATOM      4  C   UNL     1      -0.412   3.853  25.185  0.00  0.00    -0.003 A 
ATOM      5  C   UNL     1      -0.783   3.297  25.669  0.00  0.00    -0.006 A 
ATOM     23  C   UNL     1      -1.550   3.433  25.941  0.00  0.00    -0.003 A 
ATOM     24  C   UNL     1      -1.947   4.125  25.728  0.00  0.00    -0.005 A 
ENDBRANCH   6   5
ENDBRANCH   7   6
TORSDOF 4
ENDMDL
MODEL 4
REMARK VINA RESULT:     -11.7      2.017      5.557
REMARK  Name = 
REMARK  4 active torsions:
REMARK  status: ('A' for Active; 'I' for Inactive)
REMARK    1  A    between atoms: C_5  and  C_6
REMARK    2  A    between atoms: C_6  and  N_7
REMARK    3  A    between atoms: C_10  and  C_12
REMARK    4  A    between atoms: C_18  and  C_21
REMARK                            x       y       z     vdW  Elec       q    Type
REMARK                         _______ _______ _______ _____ _____    ______ ____
ROOT
ATOM      7  N   UNL     1      -2.178  -0.589  25.645  0.00  0.00    -0.269 NA
ATOM      8  C   UNL     1      -1.394  -0.794  25.490  0.00  0.00    +0.073 C 
ATOM      9  C   UNL     1      -0.979  -0.102  25.319  0.00  0.00    +0.026 C 
ATOM     10  C   UNL     1      -1.506   0.531  25.368  0.00  0.00    +0.076 C 
ATOM     11  C   UNL     1      -2.247   0.230  25.569  0.00  0.00    +0.080 C 
ENDROOT
BRANCH  10  12
ATOM     12  C   UNL     1      -1.324   1.325  25.238  0.00  0.00    +0.140 A 
ATOM     13  N   UNL     1      -0.649   1.612  24.861  0.00  0.00    -0.229 NA
ATOM     14  C   UNL     1      -0.693   2.436  24.853  0.00  0.00    +0.100 A 
ATOM     15  C   UNL     1      -1.395   2.658  25.224  0.00  0.00    +0.101 A 
ATOM     16  N   UNL     1      -1.785   1.972  25.462  0.00  0.00    -0.229 NA
ATOM     17  C   UNL     1      -1.588   3.457  25.297  0.00  0.00    +0.031 A 
ATOM     18  C   UNL     1      -1.079   4.033  24.999  0.00  0.00    +0.070 A 
ATOM     19  C   UNL     1      -0.377   3.811  24.628  0.00  0.00    +0.012 A 
ATOM     20  C   UNL     1      -0.183   3.013  24.554  0.00  0.00    +0.021 A 
BRANCH  18  21
ATOM     21  C   UNL     1      -1.272   4.831  25.072  0.00  0.00    +0.100 C 
ATOM     22  N   UNL     1      -1.465   5.631  25.146  0.00  0.00    -0.191 NA
ENDBRANCH  18  21
ENDBRANCH  10  12
BRANCH   7   6
ATOM      6  C   UNL     1      -2.787  -1.110  25.841  0.00  0.00    +0.099 C 
BRANCH   6   5
ATOM      1  C   UNL     1      -4.488  -2.633  23.458  0.00  0.00    +0.031 C 
ATOM      2  C   UNL     1      -4.063  -2.252  24.054  0.00  0.00    -0.022 A 
ATOM      3  C   UNL     1      -3.448  -2.645  24.437  0.00  0.00    -0.005 A 
ATOM      4  C   UNL     1      -3.022  -2.265  25.033  0.00  0.00    -0.003 A 
ATOM      5  C   UNL     1      -3.212  -1.490  25.245  0.00  0.00    -0.006 A 
ATOM     23  C   UNL     1      -3.827  -1.097  24.862  0.00  0.00    -0.003 A 
ATOM     24  C   UNL     1      -4.253  -1.478  24.266  0.00  0.00    -0.005 A 
ENDBRANCH   6   5
ENDBRANCH   7   6
TORSDOF 4
ENDMDL
MODEL 5
REMARK VINA RESULT:     -10.4      1.331      5.010
REMARK  Name = 
REMARK  4 active torsions:
REMARK  status: ('A' for Active; 'I' for Inactive)
REMARK    1  A    between atoms: C_5  and  C_6
REMARK    2  A    between atoms: C_6  and  N_7
REMARK    3  A    between atoms: C_10  and  C_12
REMARK    4  A    between atoms: C_18  and  C_21
REMARK                            x       y       z     vdW  Elec       q    Type
REMARK                         _______ _______ _______ _____ _____    ______ ____
ROOT
ATOM      7  N   UNL     1      -3.766  -1.086  24.950  0.00  0.00    -0.269 NA
ATOM      8  C   UNL     1      -4.254  -1.100  24.285  0.00  0.00    +0.073 C 
ATOM      9  C   UNL     1      -4.546  -0.337  24.167  0.00  0.00    +0.026 C 
ATOM     10  C   UNL     1      -4.237   0.149  24.760  0.00  0.00    +0.076 C 
ATOM     11  C   UNL     1      -3.755  -0.314  25.243  0.00  0.00    +0.080 C 
ENDROOT
BRANCH  10  12
ATOM     12  C   UNL     1      -4.385   0.955  24.851  0.00  0.00    +0.140 A 
ATOM     13  N   UNL     1      -3.878   1.569  24.636  0.00  0.00    -0.229 NA
ATOM     14  C   UNL     1      -4.245   2.282  24.827  0.00  0.00    +0.100 A 
ATOM     15  C   UNL     1      -4.980   2.109  25.160  0.00  0.00    +0.101 A 
ATOM     16  N   UNL     1      -5.067   1.289  25.175  0.00  0.00    -0.229 NA
ATOM     17  C   UNL     1      -5.475   2.722  25.405  0.00  0.00    +0.031 A 
ATOM     18  C   UNL     1      -5.236   3.506  25.319  0.00  0.00    +0.070 A 
ATOM     19  C   UNL     1      -4.501   3.679  24.986  0.00  0.00    +0.012 A 
ATOM     20  C   UNL     1      -4.006   3.067  24.740  0.00  0.00    +0.021 A 
BRANCH  18  21
ATOM     21  C   UNL     1      -5.731   4.118  25.565  0.00  0.00    +0.100 C 
ATOM     22  N   UNL     1      -6.227   4.730  25.811  0.00  0.00    -0.191 NA
ENDBRANCH  18  21
ENDBRANCH  10  12
BRANCH   7   6
ATOM      6  C   UNL     1      -3.359  -1.730  25.266  0.00  0.00    +0.099 C 
BRANCH   6   5
ATOM      1  C   UNL     1      -0.079  -1.926  24.958  0.00  0.00    +0.031 C 
ATOM      2  C   UNL     1      -0.900  -1.876  25.035  0.00  0.00    -0.022 A 
ATOM      3  C   UNL     1      -1.388  -2.292  24.517  0.00  0.00    -0.005 A 
ATOM      4  C   UNL     1      -2.208  -2.244  24.594  0.00  0.00    -0.003 A 
ATOM      5  C   UNL     1      -2.539  -1.778  25.190  0.00  0.00    -0.006 A 
ATOM     23  C   UNL     1      -2.051  -1.363  25.708  0.00  0.00    -0.003 A 
ATOM     24  C   UNL     1      -1.230  -1.412  25.631  0.00  0.00    -0.005 A 
ENDBRANCH   6   5
ENDBRANCH   7   6
TORSDOF 4
ENDMDL
MODEL 6
REMARK VINA RESULT:     -10.4      1.437      5.371
REMARK  Name = 
REMARK  4 active torsions:
REMARK  status: ('A' for Active; 'I' for Inactive)
REMARK    1  A    between atoms: C_5  and  C_6
REMARK    2  A    between atoms: C_6  and  N_7
REMARK    3  A    between atoms: C_10  and  C_12
REMARK    4  A    between atoms: C_18  and  C_21
REMARK                            x       y       z     vdW  Elec       q    Type
REMARK                         _______ _______ _______ _____ _____    ______ ____
ROOT
ATOM      7  N   UNL     1      -1.672  -0.139  24.912  0.00  0.00    -0.269 NA
ATOM      8  C   UNL     1      -1.293   0.261  24.298  0.00  0.00    +0.073 C 
ATOM      9  C   UNL     1      -1.620   1.017  24.246  0.00  0.00    +0.026 C 
ATOM     10  C   UNL     1      -2.202   1.084  24.828  0.00  0.00    +0.076 C 
ATOM     11  C   UNL     1      -2.234   0.370  25.239  0.00  0.00    +0.080 C 
ENDROOT
BRANCH  10  12
ATOM     12  C   UNL     1      -2.669   1.748  24.972  0.00  0.00    +0.140 A 
ATOM     13  N   UNL     1      -2.395   2.515  25.100  0.00  0.00    -0.229 NA
ATOM     14  C   UNL     1      -3.049   3.003  25.220  0.00  0.00    +0.100 A 
ATOM     15  C   UNL     1      -3.728   2.537  25.166  0.00  0.00    +0.101 A 
ATOM     16  N   UNL     1      -3.494   1.762  25.013  0.00  0.00    -0.229 NA
ATOM     17  C   UNL     1      -4.472   2.880  25.264  0.00  0.00    +0.031 A 
ATOM     18  C   UNL     1      -4.537   3.688  25.416  0.00  0.00    +0.070 A 
ATOM     19  C   UNL     1      -3.859   4.153  25.470  0.00  0.00    +0.012 A 
ATOM     20  C   UNL     1      -3.114   3.812  25.373  0.00  0.00    +0.021 A 
BRANCH  18  21
ATOM     21  C   UNL     1      -5.281   4.030  25.514  0.00  0.00    +0.100 C 
ATOM     22  N   UNL     1      -6.026   4.373  25.612  0.00  0.00    -0.191 NA
ENDBRANCH  18  21
ENDBRANCH  10  12
BRANCH   7   6
ATOM      6  C   UNL     1      -1.517  -0.911  25.157  0.00  0.00    +0.099 C 
BRANCH   6   5
ATOM      1  C   UNL     1      -3.629  -3.335  24.411  0.00  0.00    +0.031 C 
ATOM      2  C   UNL     1      -3.101  -2.728  24.597  0.00  0.00    -0.022 A 
ATOM      3  C   UNL     1      -2.409  -2.635  24.159  0.00  0.00    -0.005 A 
ATOM      4  C   UNL     1      -1.881  -2.029  24.345  0.00  0.00    -0.003 A 
ATOM      5  C   UNL     1      -2.045  -1.517  24.970  0.00  0.00    -0.006 A 
ATOM     23  C   UNL     1      -2.737  -1.610  25.409  0.00  0.00    -0.003 A 
ATOM     24  C   UNL     1      -3.265  -2.216  25.222  0.00  0.00    -0.005 A 
ENDBRANCH   6   5
ENDBRANCH   7   6
TORSDOF 4
ENDMDL
MODEL 7
REMARK VINA RESULT:     -10.4      2.588      3.546
REMARK  Name = 
REMARK  4 active torsions:
REMARK  status: ('A' for Active; 'I' for Inactive)
REMARK    1  A    between atoms: C_5  and  C_6
REMARK    2  A    between atoms: C_6  and  N_7
REMARK    3  A    between atoms: C_10  and  C_12
REMARK    4  A    between atoms: C_18  and  C_21
REMARK                            x       y       z     vdW  Elec       q    Type
REMARK                         _______ _______ _______ _____ _____    ______ ____
ROOT
ATOM      7  N   UNL     1      -2.945   3.112  24.844  0.00  0.00    -0.269 NA
ATOM      8  C   UNL     1      -2.415   3.328  25.438  0.00  0.00    +0.073 C 
ATOM      9  C   UNL     1      -1.749   2.844  25.374  0.00  0.00    +0.026 C 
ATOM     10  C   UNL     1      -1.868   2.329  24.740  0.00  0.00    +0.076 C 
ATOM     11  C   UNL     1      -2.607   2.495  24.413  0.00  0.00    +0.080 C 
ENDROOT
BRANCH  10  12
ATOM     12  C   UNL     1      -1.341   1.751  24.479  0.00  0.00    +0.140 A 
ATOM     13  N   UNL     1      -1.373   0.948  24.661  0.00  0.00    -0.229 NA
ATOM     14  C   UNL     1      -0.741   0.575  24.285  0.00  0.00    +0.100 A 
ATOM     15  C   UNL     1      -0.318   1.149  23.870  0.00  0.00    +0.101 A 
ATOM     16  N   UNL     1      -0.688   1.876  23.989  0.00  0.00    -0.229 NA
ATOM     17  C   UNL     1       0.351   0.934  23.436  0.00  0.00    +0.031 A 
ATOM     18  C   UNL     1       0.596   0.147  23.418  0.00  0.00    +0.070 A 
ATOM     19  C   UNL     1       0.172  -0.426  23.833  0.00  0.00    +0.012 A 
ATOM     20  C   UNL     1      -0.496  -0.213  24.267  0.00  0.00    +0.021 A 
BRANCH  18  21
ATOM     21  C   UNL     1       1.264  -0.067  22.985  0.00  0.00    +0.100 C 
ATOM     22  N   UNL     1       1.933  -0.281  22.551  0.00  0.00    -0.191 NA
ENDBRANCH  18  21
ENDBRANCH  10  12
BRANCH   7   6
ATOM      6  C   UNL     1      -3.683   3.453  24.706  0.00  0.00    +0.099 C 
BRANCH   6   5
ATOM      1  C   UNL     1      -6.428   1.898  25.677  0.00  0.00    +0.031 C 
ATOM      2  C   UNL     1      -5.741   2.286  25.434  0.00  0.00    -0.022 A 
ATOM      3  C   UNL     1      -5.392   2.851  25.923  0.00  0.00    -0.005 A 
ATOM      4  C   UNL     1      -4.706   3.240  25.681  0.00  0.00    -0.003 A 
ATOM      5  C   UNL     1      -4.369   3.064  24.948  0.00  0.00    -0.006 A 
ATOM     23  C   UNL     1      -4.718   2.499  24.459  0.00  0.00    -0.003 A 
ATOM     24  C   UNL     1      -5.405   2.110  24.702  0.00  0.00    -0.005 A 
ENDBRANCH   6   5
ENDBRANCH   7   6
TORSDOF 4
ENDMDL
