MODEL 1
REMARK VINA RESULT:      -9.6      0.000      0.000
REMARK  Name = 
REMARK  6 active torsions:
REMARK  status: ('A' for Active; 'I' for Inactive)
REMARK    1  A    between atoms: N_3  and  C_4
REMARK    2  A    between atoms: C_8  and  N_12
REMARK    3  A    between atoms: C_16  and  O_17
REMARK    4  A    between atoms: O_17  and  C_18
REMARK    5  A    between atoms: C_21  and  N_24
REMARK    6  A    between atoms: N_29  and  C_30
REMARK                            x       y       z     vdW  Elec       q    Type
REMARK                         _______ _______ _______ _____ _____    ______ ____
ROOT
ATOM      4  C   UNL     1       0.661  -0.385  23.293  0.00  0.00    +0.156 C 
ATOM      5  C   UNL     1       0.277   0.133  22.778  0.00  0.00    +0.166 C 
ATOM      6  O   UNL     1      -0.469   0.297  23.091  0.00  0.00    -0.350 OA
ATOM      7  C   UNL     1      -0.546  -0.121  23.799  0.00  0.00    +0.169 C 
ATOM      8  C   UNL     1      -1.054  -0.277  24.429  0.00  0.00    +0.170 C 
ATOM      9  C   UNL     1      -0.670  -0.795  24.943  0.00  0.00    +0.169 C 
ATOM     10  O   UNL     1       0.076  -0.959  24.631  0.00  0.00    -0.350 OA
ATOM     11  C   UNL     1       0.152  -0.542  23.924  0.00  0.00    +0.167 C 
ENDROOT
BRANCH   8  12
ATOM     12  N   UNL     1      -1.813   0.030  24.529  0.00  0.00    -0.180 N 
ATOM     13  N   UNL     1      -2.502  -0.255  24.174  0.00  0.00    -0.040 NA
ATOM     14  N   UNL     1      -3.131   0.215  24.426  0.00  0.00    -0.020 NA
ATOM     15  N   UNL     1      -2.833   0.790  24.936  0.00  0.00    -0.071 NA
ATOM     16  C   UNL     1      -2.018   0.676  24.999  0.00  0.00    +0.343 A 
BRANCH  16  17
ATOM     17  O   UNL     1      -1.499   1.128  25.453  0.00  0.00    -0.421 OA
BRANCH  17  18
ATOM     18  C   UNL     1      -1.513   1.952  25.399  0.00  0.00    +0.149 A 
ATOM     19  C   UNL     1      -2.228   2.346  25.283  0.00  0.00    +0.039 A 
ATOM     20  C   UNL     1      -2.242   3.168  25.228  0.00  0.00    +0.022 A 
ATOM     21  C   UNL     1      -1.540   3.598  25.289  0.00  0.00    +0.085 A 
ATOM     22  C   UNL     1      -0.825   3.204  25.405  0.00  0.00    +0.022 A 
ATOM     23  C   UNL     1      -0.811   2.381  25.460  0.00  0.00    +0.039 A 
BRANCH  21  24
ATOM     24  N   UNL     1      -1.554   4.421  25.234  0.00  0.00    -0.208 N 
ATOM     25  C   UNL     1      -0.941   4.899  24.957  0.00  0.00    +0.202 A 
ATOM     26  N   UNL     1      -1.192   5.683  24.998  0.00  0.00    -0.200 NA
ATOM     27  C   UNL     1      -1.958   5.691  25.301  0.00  0.00    +0.221 A 
ATOM     28  N   UNL     1      -2.182   4.911  25.447  0.00  0.00    -0.141 NA
ENDBRANCH  21  24
ENDBRANCH  17  18
ENDBRANCH  16  17
ENDBRANCH   8  12
BRANCH   4   3
ATOM      1  O   UNL     1       1.954   0.632  23.169  0.00  0.00    -0.249 OA
ATOM      2  C   UNL     1       2.066  -0.185  23.133  0.00  0.00    +0.344 C 
ATOM      3  N   UNL     1       1.420  -0.693  23.194  0.00  0.00    -0.184 NA
ATOM     29  N   UNL     1       2.825  -0.492  23.034  0.00  0.00    -0.161 NA
BRANCH  29  30
ATOM     30  C   UNL     1       3.472   0.016  22.972  0.00  0.00    +0.075 A 
ATOM     31  C   UNL     1       3.395   0.735  22.576  0.00  0.00    +0.017 A 
ATOM     32  C   UNL     1       4.042   1.244  22.514  0.00  0.00    +0.001 A 
ATOM     33  C   UNL     1       4.765   1.033  22.848  0.00  0.00    +0.000 A 
ATOM     34  C   UNL     1       4.843   0.315  23.245  0.00  0.00    +0.001 A 
ATOM     35  C   UNL     1       5.567   0.103  23.580  0.00  0.00    +0.000 A 
ATOM     36  C   UNL     1       5.644  -0.615  23.976  0.00  0.00    +0.000 A 
ATOM     37  C   UNL     1       4.997  -1.124  24.038  0.00  0.00    +0.000 A 
ATOM     38  C   UNL     1       4.273  -0.914  23.703  0.00  0.00    +0.001 A 
ATOM     39  C   UNL     1       4.195  -0.194  23.307  0.00  0.00    +0.015 A 
ENDBRANCH  29  30
ENDBRANCH   4   3
TORSDOF 6
ENDMDL
MODEL 2
REMARK VINA RESULT:      -9.4      1.841      7.008
REMARK  Name = 
REMARK  6 active torsions:
REMARK  status: ('A' for Active; 'I' for Inactive)
REMARK    1  A    between atoms: N_3  and  C_4
REMARK    2  A    between atoms: C_8  and  N_12
REMARK    3  A    between atoms: C_16  and  O_17
REMARK    4  A    between atoms: O_17  and  C_18
REMARK    5  A    between atoms: C_21  and  N_24
REMARK    6  A    between atoms: N_29  and  C_30
REMARK                            x       y       z     vdW  Elec       q    Type
REMARK                         _______ _______ _______ _____ _____    ______ ____
ROOT
ATOM      4  C   UNL     1      -1.273   1.288  24.001  0.00  0.00    +0.156 C 
ATOM      5  C   UNL     1      -1.259   1.651  23.260  0.00  0.00    +0.166 C 
ATOM      6  O   UNL     1      -0.685   1.274  22.803  0.00  0.00    -0.350 OA
ATOM      7  C   UNL     1      -0.344   0.678  23.262  0.00  0.00    +0.169 C 
ATOM      8  C   UNL     1       0.221   0.077  23.262  0.00  0.00    +0.170 C 
ATOM      9  C   UNL     1       0.207  -0.285  24.003  0.00  0.00    +0.169 C 
ATOM     10  O   UNL     1      -0.367   0.092  24.460  0.00  0.00    -0.350 OA
ATOM     11  C   UNL     1      -0.708   0.687  24.002  0.00  0.00    +0.167 C 
ENDROOT
BRANCH   8  12
ATOM     12  N   UNL     1       0.714  -0.126  22.633  0.00  0.00    -0.180 N 
ATOM     13  N   UNL     1       0.493  -0.555  21.963  0.00  0.00    -0.040 NA
ATOM     14  N   UNL     1       1.156  -0.631  21.479  0.00  0.00    -0.020 NA
ATOM     15  N   UNL     1       1.787  -0.249  21.848  0.00  0.00    -0.071 NA
ATOM     16  C   UNL     1       1.513   0.063  22.561  0.00  0.00    +0.343 A 
BRANCH  16  17
ATOM     17  O   UNL     1       1.961   0.490  23.107  0.00  0.00    -0.421 OA
BRANCH  17  18
ATOM     18  C   UNL     1       2.778   0.383  23.144  0.00  0.00    +0.149 A 
ATOM     19  C   UNL     1       3.089  -0.319  23.447  0.00  0.00    +0.039 A 
ATOM     20  C   UNL     1       3.906  -0.426  23.484  0.00  0.00    +0.022 A 
ATOM     21  C   UNL     1       4.413   0.169  23.218  0.00  0.00    +0.085 A 
ATOM     22  C   UNL     1       4.102   0.870  22.915  0.00  0.00    +0.022 A 
ATOM     23  C   UNL     1       3.284   0.977  22.878  0.00  0.00    +0.039 A 
BRANCH  21  24
ATOM     24  N   UNL     1       5.230   0.062  23.255  0.00  0.00    -0.208 N 
ATOM     25  C   UNL     1       5.711   0.224  23.905  0.00  0.00    +0.202 A 
ATOM     26  N   UNL     1       6.488   0.036  23.700  0.00  0.00    -0.200 NA
ATOM     27  C   UNL     1       6.487  -0.242  22.924  0.00  0.00    +0.221 A 
ATOM     28  N   UNL     1       5.709  -0.227  22.649  0.00  0.00    -0.141 NA
ENDBRANCH  21  24
ENDBRANCH  17  18
ENDBRANCH  16  17
ENDBRANCH   8  12
BRANCH   4   3
ATOM      1  O   UNL     1      -2.911   1.283  23.802  0.00  0.00    -0.249 OA
ATOM      2  C   UNL     1      -2.584   1.489  24.532  0.00  0.00    +0.344 C 
ATOM      3  N   UNL     1      -1.766   1.491  24.632  0.00  0.00    -0.184 NA
ATOM     29  N   UNL     1      -3.077   1.691  25.162  0.00  0.00    -0.161 NA
BRANCH  29  30
ATOM     30  C   UNL     1      -3.896   1.689  25.062  0.00  0.00    +0.075 A 
ATOM     31  C   UNL     1      -4.274   1.015  24.774  0.00  0.00    +0.017 A 
ATOM     32  C   UNL     1      -5.094   1.013  24.674  0.00  0.00    +0.001 A 
ATOM     33  C   UNL     1      -5.534   1.684  24.863  0.00  0.00    +0.000 A 
ATOM     34  C   UNL     1      -5.156   2.357  25.152  0.00  0.00    +0.001 A 
ATOM     35  C   UNL     1      -5.596   3.029  25.341  0.00  0.00    +0.000 A 
ATOM     36  C   UNL     1      -5.218   3.703  25.630  0.00  0.00    +0.000 A 
ATOM     37  C   UNL     1      -4.398   3.705  25.729  0.00  0.00    +0.000 A 
ATOM     38  C   UNL     1      -3.958   3.034  25.540  0.00  0.00    +0.001 A 
ATOM     39  C   UNL     1      -4.336   2.360  25.251  0.00  0.00    +0.015 A 
ENDBRANCH  29  30
ENDBRANCH   4   3
TORSDOF 6
ENDMDL
MODEL 3
REMARK VINA RESULT:      -8.7      1.534      2.115
REMARK  Name = 
REMARK  6 active torsions:
REMARK  status: ('A' for Active; 'I' for Inactive)
REMARK    1  A    between atoms: N_3  and  C_4
REMARK    2  A    between atoms: C_8  and  N_12
REMARK    3  A    between atoms: C_16  and  O_17
REMARK    4  A    between atoms: O_17  and  C_18
REMARK    5  A    between atoms: C_21  and  N_24
REMARK    6  A    between atoms: N_29  and  C_30
REMARK                            x       y       z     vdW  Elec       q    Type
REMARK                         _______ _______ _______ _____ _____    ______ ____
ROOT
ATOM      4  C   UNL     1       0.917   0.050  23.107  0.00  0.00    +0.156 C 
ATOM      5  C   UNL     1       0.509  -0.568  22.742  0.00  0.00    +0.166 C 
ATOM      6  O   UNL     1      -0.243  -0.609  23.077  0.00  0.00    -0.350 OA
ATOM      7  C   UNL     1      -0.301  -0.016  23.649  0.00  0.00    +0.169 C 
ATOM      8  C   UNL     1      -0.802   0.324  24.208  0.00  0.00    +0.170 C 
ATOM      9  C   UNL     1      -0.394   0.942  24.573  0.00  0.00    +0.169 C 
ATOM     10  O   UNL     1       0.359   0.983  24.238  0.00  0.00    -0.350 OA
ATOM     11  C   UNL     1       0.416   0.391  23.668  0.00  0.00    +0.167 C 
ENDROOT
BRANCH   8  12
ATOM     12  N   UNL     1      -1.575   0.089  24.375  0.00  0.00    -0.180 N 
ATOM     13  N   UNL     1      -1.816  -0.673  24.578  0.00  0.00    -0.040 NA
ATOM     14  N   UNL     1      -2.632  -0.659  24.697  0.00  0.00    -0.020 NA
ATOM     15  N   UNL     1      -2.896   0.112  24.567  0.00  0.00    -0.071 NA
ATOM     16  C   UNL     1      -2.241   0.574  24.368  0.00  0.00    +0.343 A 
BRANCH  16  17
ATOM     17  O   UNL     1      -2.253   1.381  24.194  0.00  0.00    -0.421 OA
BRANCH  17  18
ATOM     18  C   UNL     1      -2.883   1.849  24.448  0.00  0.00    +0.149 A 
ATOM     19  C   UNL     1      -2.834   2.253  25.165  0.00  0.00    +0.039 A 
ATOM     20  C   UNL     1      -3.464   2.721  25.418  0.00  0.00    +0.022 A 
ATOM     21  C   UNL     1      -4.143   2.786  24.955  0.00  0.00    +0.085 A 
ATOM     22  C   UNL     1      -4.193   2.382  24.237  0.00  0.00    +0.022 A 
ATOM     23  C   UNL     1      -3.562   1.913  23.984  0.00  0.00    +0.039 A 
BRANCH  21  24
ATOM     24  N   UNL     1      -4.774   3.254  25.209  0.00  0.00    -0.208 N 
ATOM     25  C   UNL     1      -5.449   2.987  25.600  0.00  0.00    +0.202 A 
ATOM     26  N   UNL     1      -5.931   3.640  25.749  0.00  0.00    -0.200 NA
ATOM     27  C   UNL     1      -5.554   4.309  25.450  0.00  0.00    +0.221 A 
ATOM     28  N   UNL     1      -4.839   4.071  25.116  0.00  0.00    -0.141 NA
ENDBRANCH  21  24
ENDBRANCH  17  18
ENDBRANCH  16  17
ENDBRANCH   8  12
BRANCH   4   3
ATOM      1  O   UNL     1       2.188  -0.870  23.618  0.00  0.00    -0.249 OA
ATOM      2  C   UNL     1       2.326  -0.174  23.196  0.00  0.00    +0.344 C 
ATOM      3  N   UNL     1       1.691   0.285  22.941  0.00  0.00    -0.184 NA
ATOM     29  N   UNL     1       3.099   0.061  23.030  0.00  0.00    -0.161 NA
BRANCH  29  30
ATOM     30  C   UNL     1       3.734  -0.399  23.285  0.00  0.00    +0.075 A 
ATOM     31  C   UNL     1       3.633  -1.207  23.412  0.00  0.00    +0.017 A 
ATOM     32  C   UNL     1       4.269  -1.668  23.667  0.00  0.00    +0.001 A 
ATOM     33  C   UNL     1       5.005  -1.319  23.796  0.00  0.00    +0.000 A 
ATOM     34  C   UNL     1       5.106  -0.511  23.670  0.00  0.00    +0.001 A 
ATOM     35  C   UNL     1       5.842  -0.161  23.799  0.00  0.00    +0.000 A 
ATOM     36  C   UNL     1       5.943   0.647  23.673  0.00  0.00    +0.000 A 
ATOM     37  C   UNL     1       5.307   1.108  23.418  0.00  0.00    +0.000 A 
ATOM     38  C   UNL     1       4.571   0.759  23.289  0.00  0.00    +0.001 A 
ATOM     39  C   UNL     1       4.470  -0.050  23.415  0.00  0.00    +0.015 A 
ENDBRANCH  29  30
ENDBRANCH   4   3
TORSDOF 6
ENDMDL
MODEL 4
REMARK VINA RESULT:      -8.6      1.921      2.815
REMARK  Name = 
REMARK  6 active torsions:
REMARK  status: ('A' for Active; 'I' for Inactive)
REMARK    1  A    between atoms: N_3  and  C_4
REMARK    2  A    between atoms: C_8  and  N_12
REMARK    3  A    between atoms: C_16  and  O_17
REMARK    4  A    between atoms: O_17  and  C_18
REMARK    5  A    between atoms: C_21  and  N_24
REMARK    6  A    between atoms: N_29  and  C_30
REMARK                            x       y       z     vdW  Elec       q    Type
REMARK                         _______ _______ _______ _____ _____    ______ ____
ROOT
ATOM      4  C   UNL     1       0.893   1.218  23.707  0.00  0.00    +0.156 C 
ATOM      5  C   UNL     1       0.898   2.021  23.517  0.00  0.00    +0.166 C 
ATOM      6  O   UNL     1       0.327   2.396  23.980  0.00  0.00    -0.350 OA
ATOM      7  C   UNL     1      -0.031   1.824  24.456  0.00  0.00    +0.169 C 
ATOM      8  C   UNL     1      -0.605   1.702  25.035  0.00  0.00    +0.170 C 
ATOM      9  C   UNL     1      -0.611   0.900  25.224  0.00  0.00    +0.169 C 
ATOM     10  O   UNL     1      -0.040   0.525  24.761  0.00  0.00    -0.350 OA
ATOM     11  C   UNL     1       0.318   1.096  24.287  0.00  0.00    +0.167 C 
ENDROOT
BRANCH   8  12
ATOM     12  N   UNL     1      -1.089   2.282  25.368  0.00  0.00    -0.180 N 
ATOM     13  N   UNL     1      -0.858   2.844  25.926  0.00  0.00    -0.040 NA
ATOM     14  N   UNL     1      -1.515   3.310  26.104  0.00  0.00    -0.020 NA
ATOM     15  N   UNL     1      -2.152   3.037  25.657  0.00  0.00    -0.071 NA
ATOM     16  C   UNL     1      -1.888   2.401  25.202  0.00  0.00    +0.343 A 
BRANCH  16  17
ATOM     17  O   UNL     1      -2.344   1.961  24.674  0.00  0.00    -0.421 OA
BRANCH  17  18
ATOM     18  C   UNL     1      -3.166   1.944  24.752  0.00  0.00    +0.149 A 
ATOM     19  C   UNL     1      -3.533   1.294  25.103  0.00  0.00    +0.039 A 
ATOM     20  C   UNL     1      -4.354   1.278  25.181  0.00  0.00    +0.022 A 
ATOM     21  C   UNL     1      -4.808   1.911  24.909  0.00  0.00    +0.085 A 
ATOM     22  C   UNL     1      -4.440   2.561  24.558  0.00  0.00    +0.022 A 
ATOM     23  C   UNL     1      -3.619   2.578  24.480  0.00  0.00    +0.039 A 
BRANCH  21  24
ATOM     24  N   UNL     1      -5.629   1.894  24.987  0.00  0.00    -0.208 N 
ATOM     25  C   UNL     1      -6.059   2.165  25.637  0.00  0.00    +0.202 A 
ATOM     26  N   UNL     1      -6.860   2.042  25.481  0.00  0.00    -0.200 NA
ATOM     27  C   UNL     1      -6.925   1.695  24.736  0.00  0.00    +0.221 A 
ATOM     28  N   UNL     1      -6.163   1.604  24.431  0.00  0.00    -0.141 NA
ENDBRANCH  21  24
ENDBRANCH  17  18
ENDBRANCH  16  17
ENDBRANCH   8  12
BRANCH   4   3
ATOM      1  O   UNL     1       2.526   1.445  23.639  0.00  0.00    -0.249 OA
ATOM      2  C   UNL     1       2.192   0.751  23.340  0.00  0.00    +0.344 C 
ATOM      3  N   UNL     1       1.377   0.638  23.374  0.00  0.00    -0.184 NA
ATOM     29  N   UNL     1       2.677   0.172  23.008  0.00  0.00    -0.161 NA
BRANCH  29  30
ATOM     30  C   UNL     1       3.493   0.285  22.974  0.00  0.00    +0.075 A 
ATOM     31  C   UNL     1       3.800   0.969  22.631  0.00  0.00    +0.017 A 
ATOM     32  C   UNL     1       4.617   1.083  22.597  0.00  0.00    +0.001 A 
ATOM     33  C   UNL     1       5.126   0.513  22.906  0.00  0.00    +0.000 A 
ATOM     34  C   UNL     1       4.819  -0.171  23.249  0.00  0.00    +0.001 A 
ATOM     35  C   UNL     1       5.328  -0.743  23.558  0.00  0.00    +0.000 A 
ATOM     36  C   UNL     1       5.021  -1.427  23.901  0.00  0.00    +0.000 A 
ATOM     37  C   UNL     1       4.204  -1.541  23.935  0.00  0.00    +0.000 A 
ATOM     38  C   UNL     1       3.695  -0.970  23.626  0.00  0.00    +0.001 A 
ATOM     39  C   UNL     1       4.002  -0.285  23.283  0.00  0.00    +0.015 A 
ENDBRANCH  29  30
ENDBRANCH   4   3
TORSDOF 6
ENDMDL
MODEL 5
REMARK VINA RESULT:      -8.5     16.083     18.351
REMARK  Name = 
REMARK  6 active torsions:
REMARK  status: ('A' for Active; 'I' for Inactive)
REMARK    1  A    between atoms: N_3  and  C_4
REMARK    2  A    between atoms: C_8  and  N_12
REMARK    3  A    between atoms: C_16  and  O_17
REMARK    4  A    between atoms: O_17  and  C_18
REMARK    5  A    between atoms: C_21  and  N_24
REMARK    6  A    between atoms: N_29  and  C_30
REMARK                            x       y       z     vdW  Elec       q    Type
REMARK                         _______ _______ _______ _____ _____    ______ ____
ROOT
ATOM      4  C   UNL     1      -8.556  -9.947  12.703  0.00  0.00    +0.156 C 
ATOM      5  C   UNL     1      -8.195 -10.687  12.759  0.00  0.00    +0.166 C 
ATOM      6  O   UNL     1      -7.704 -10.781  12.103  0.00  0.00    -0.350 OA
ATOM      7  C   UNL     1      -7.761 -10.099  11.641  0.00  0.00    +0.169 C 
ATOM      8  C   UNL     1      -7.493  -9.737  10.950  0.00  0.00    +0.170 C 
ATOM      9  C   UNL     1      -7.854  -8.998  10.894  0.00  0.00    +0.169 C 
ATOM     10  O   UNL     1      -8.345  -8.903  11.551  0.00  0.00    -0.350 OA
ATOM     11  C   UNL     1      -8.287  -9.584  12.012  0.00  0.00    +0.167 C 
ENDROOT
BRANCH   8  12
ATOM     12  N   UNL     1      -6.958 -10.057  10.410  0.00  0.00    -0.180 N 
ATOM     13  N   UNL     1      -7.133 -10.619   9.830  0.00  0.00    -0.040 NA
ATOM     14  N   UNL     1      -6.438 -10.781   9.416  0.00  0.00    -0.020 NA
ATOM     15  N   UNL     1      -5.834 -10.321   9.739  0.00  0.00    -0.071 NA
ATOM     16  C   UNL     1      -6.157  -9.874  10.353  0.00  0.00    +0.343 A 
BRANCH  16  17
ATOM     17  O   UNL     1      -5.748  -9.336  10.828  0.00  0.00    -0.421 OA
BRANCH  17  18
ATOM     18  C   UNL     1      -4.926  -9.385  10.892  0.00  0.00    +0.149 A 
ATOM     19  C   UNL     1      -4.586  -9.849  11.484  0.00  0.00    +0.039 A 
ATOM     20  C   UNL     1      -3.766  -9.897  11.548  0.00  0.00    +0.022 A 
ATOM     21  C   UNL     1      -3.284  -9.482  11.022  0.00  0.00    +0.085 A 
ATOM     22  C   UNL     1      -3.625  -9.018  10.431  0.00  0.00    +0.022 A 
ATOM     23  C   UNL     1      -4.446  -8.970  10.366  0.00  0.00    +0.039 A 
BRANCH  21  24
ATOM     24  N   UNL     1      -2.463  -9.531  11.087  0.00  0.00    -0.208 N 
ATOM     25  C   UNL     1      -1.917  -9.053  10.694  0.00  0.00    +0.202 A 
ATOM     26  N   UNL     1      -1.161  -9.293  10.921  0.00  0.00    -0.200 NA
ATOM     27  C   UNL     1      -1.239  -9.918  11.452  0.00  0.00    +0.221 A 
ATOM     28  N   UNL     1      -2.045 -10.065  11.555  0.00  0.00    -0.141 NA
ENDBRANCH  21  24
ENDBRANCH  17  18
ENDBRANCH  16  17
ENDBRANCH   8  12
BRANCH   4   3
ATOM      1  O   UNL     1      -8.144  -9.819  14.295  0.00  0.00    -0.249 OA
ATOM      2  C   UNL     1      -8.885  -9.562  14.038  0.00  0.00    +0.344 C 
ATOM      3  N   UNL     1      -9.091  -9.626  13.243  0.00  0.00    -0.184 NA
ATOM     29  N   UNL     1      -9.420  -9.241  14.579  0.00  0.00    -0.161 NA
BRANCH  29  30
ATOM     30  C   UNL     1      -9.214  -9.177  15.375  0.00  0.00    +0.075 A 
ATOM     31  C   UNL     1      -8.642  -9.678  15.694  0.00  0.00    +0.017 A 
ATOM     32  C   UNL     1      -8.436  -9.614  16.492  0.00  0.00    +0.001 A 
ATOM     33  C   UNL     1      -8.802  -9.050  16.968  0.00  0.00    +0.000 A 
ATOM     34  C   UNL     1      -9.374  -8.549  16.649  0.00  0.00    +0.001 A 
ATOM     35  C   UNL     1      -9.741  -7.984  17.125  0.00  0.00    +0.000 A 
ATOM     36  C   UNL     1     -10.313  -7.483  16.806  0.00  0.00    +0.000 A 
ATOM     37  C   UNL     1     -10.519  -7.547  16.009  0.00  0.00    +0.000 A 
ATOM     38  C   UNL     1     -10.153  -8.112  15.532  0.00  0.00    +0.001 A 
ATOM     39  C   UNL     1      -9.580  -8.613  15.851  0.00  0.00    +0.015 A 
ENDBRANCH  29  30
ENDBRANCH   4   3
TORSDOF 6
ENDMDL
MODEL 6
REMARK VINA RESULT:      -8.0      2.221      7.104
REMARK  Name = 
REMARK  6 active torsions:
REMARK  status: ('A' for Active; 'I' for Inactive)
REMARK    1  A    between atoms: N_3  and  C_4
REMARK    2  A    between atoms: C_8  and  N_12
REMARK    3  A    between atoms: C_16  and  O_17
REMARK    4  A    between atoms: O_17  and  C_18
REMARK    5  A    between atoms: C_21  and  N_24
REMARK    6  A    between atoms: N_29  and  C_30
REMARK                            x       y       z     vdW  Elec       q    Type
REMARK                         _______ _______ _______ _____ _____    ______ ____
ROOT
ATOM      4  C   UNL     1      -3.126   0.644  23.873  0.00  0.00    +0.156 C 
ATOM      5  C   UNL     1      -3.257  -0.170  23.830  0.00  0.00    +0.166 C 
ATOM      6  O   UNL     1      -2.539  -0.551  23.972  0.00  0.00    -0.350 OA
ATOM      7  C   UNL     1      -1.964   0.028  24.102  0.00  0.00    +0.169 C 
ATOM      8  C   UNL     1      -1.166   0.149  24.270  0.00  0.00    +0.170 C 
ATOM      9  C   UNL     1      -1.036   0.962  24.312  0.00  0.00    +0.169 C 
ATOM     10  O   UNL     1      -1.754   1.344  24.171  0.00  0.00    -0.350 OA
ATOM     11  C   UNL     1      -2.327   0.766  24.041  0.00  0.00    +0.167 C 
ENDROOT
BRANCH   8  12
ATOM     12  N   UNL     1      -0.597  -0.439  24.376  0.00  0.00    -0.180 N 
ATOM     13  N   UNL     1      -0.624  -1.042  24.939  0.00  0.00    -0.040 NA
ATOM     14  N   UNL     1       0.055  -1.503  24.850  0.00  0.00    -0.020 NA
ATOM     15  N   UNL     1       0.500  -1.185  24.233  0.00  0.00    -0.071 NA
ATOM     16  C   UNL     1       0.097  -0.527  23.940  0.00  0.00    +0.343 A 
BRANCH  16  17
ATOM     17  O   UNL     1       0.345  -0.043  23.320  0.00  0.00    -0.421 OA
BRANCH  17  18
ATOM     18  C   UNL     1       1.151   0.068  23.180  0.00  0.00    +0.149 A 
ATOM     19  C   UNL     1       1.545  -0.413  22.639  0.00  0.00    +0.039 A 
ATOM     20  C   UNL     1       2.350  -0.301  22.499  0.00  0.00    +0.022 A 
ATOM     21  C   UNL     1       2.761   0.291  22.900  0.00  0.00    +0.085 A 
ATOM     22  C   UNL     1       2.366   0.772  23.442  0.00  0.00    +0.022 A 
ATOM     23  C   UNL     1       1.561   0.661  23.582  0.00  0.00    +0.039 A 
BRANCH  21  24
ATOM     24  N   UNL     1       3.567   0.402  22.760  0.00  0.00    -0.208 N 
ATOM     25  C   UNL     1       3.897   0.785  22.109  0.00  0.00    +0.202 A 
ATOM     26  N   UNL     1       4.717   0.769  22.194  0.00  0.00    -0.200 NA
ATOM     27  C   UNL     1       4.894   0.377  22.896  0.00  0.00    +0.221 A 
ATOM     28  N   UNL     1       4.183   0.150  23.247  0.00  0.00    -0.141 NA
ENDBRANCH  21  24
ENDBRANCH  17  18
ENDBRANCH  16  17
ENDBRANCH   8  12
BRANCH   4   3
ATOM      1  O   UNL     1      -4.197   0.985  25.081  0.00  0.00    -0.249 OA
ATOM      2  C   UNL     1      -4.230   1.403  24.370  0.00  0.00    +0.344 C 
ATOM      3  N   UNL     1      -3.695   1.233  23.767  0.00  0.00    -0.184 NA
ATOM     29  N   UNL     1      -4.798   1.991  24.264  0.00  0.00    -0.161 NA
BRANCH  29  30
ATOM     30  C   UNL     1      -5.333   2.162  24.868  0.00  0.00    +0.075 A 
ATOM     31  C   UNL     1      -5.808   1.564  25.179  0.00  0.00    +0.017 A 
ATOM     32  C   UNL     1      -6.344   1.735  25.784  0.00  0.00    +0.001 A 
ATOM     33  C   UNL     1      -6.404   2.504  26.076  0.00  0.00    +0.000 A 
ATOM     34  C   UNL     1      -5.929   3.102  25.765  0.00  0.00    +0.001 A 
ATOM     35  C   UNL     1      -5.989   3.871  26.057  0.00  0.00    +0.000 A 
ATOM     36  C   UNL     1      -5.515   4.469  25.746  0.00  0.00    +0.000 A 
ATOM     37  C   UNL     1      -4.979   4.298  25.141  0.00  0.00    +0.000 A 
ATOM     38  C   UNL     1      -4.919   3.530  24.849  0.00  0.00    +0.001 A 
ATOM     39  C   UNL     1      -5.394   2.931  25.160  0.00  0.00    +0.015 A 
ENDBRANCH  29  30
ENDBRANCH   4   3
TORSDOF 6
ENDMDL
MODEL 7
REMARK VINA RESULT:      -7.9      1.872      3.937
REMARK  Name = 
REMARK  6 active torsions:
REMARK  status: ('A' for Active; 'I' for Inactive)
REMARK    1  A    between atoms: N_3  and  C_4
REMARK    2  A    between atoms: C_8  and  N_12
REMARK    3  A    between atoms: C_16  and  O_17
REMARK    4  A    between atoms: O_17  and  C_18
REMARK    5  A    between atoms: C_21  and  N_24
REMARK    6  A    between atoms: N_29  and  C_30
REMARK                            x       y       z     vdW  Elec       q    Type
REMARK                         _______ _______ _______ _____ _____    ______ ____
ROOT
ATOM      4  C   UNL     1      -0.089   2.147  24.701  0.00  0.00    +0.156 C 
ATOM      5  C   UNL     1      -0.293   1.742  25.390  0.00  0.00    +0.166 C 
ATOM      6  O   UNL     1      -1.090   1.886  25.544  0.00  0.00    -0.350 OA
ATOM      7  C   UNL     1      -1.380   2.381  24.949  0.00  0.00    +0.169 C 
ATOM      8  C   UNL     1      -2.051   2.774  24.677  0.00  0.00    +0.170 C 
ATOM      9  C   UNL     1      -1.847   3.179  23.988  0.00  0.00    +0.169 C 
ATOM     10  O   UNL     1      -1.049   3.035  23.834  0.00  0.00    -0.350 OA
ATOM     11  C   UNL     1      -0.761   2.542  24.428  0.00  0.00    +0.167 C 
ENDROOT
BRANCH   8  12
ATOM     12  N   UNL     1      -2.796   2.766  25.031  0.00  0.00    -0.180 N 
ATOM     13  N   UNL     1      -3.005   3.153  25.730  0.00  0.00    -0.040 NA
ATOM     14  N   UNL     1      -3.800   2.995  25.880  0.00  0.00    -0.020 NA
ATOM     15  N   UNL     1      -4.084   2.511  25.275  0.00  0.00    -0.071 NA
ATOM     16  C   UNL     1      -3.462   2.370  24.751  0.00  0.00    +0.343 A 
BRANCH  16  17
ATOM     17  O   UNL     1      -3.501   1.913  24.065  0.00  0.00    -0.421 OA
BRANCH  17  18
ATOM     18  C   UNL     1      -3.620   1.098  24.119  0.00  0.00    +0.149 A 
ATOM     19  C   UNL     1      -4.107   0.790  24.710  0.00  0.00    +0.039 A 
ATOM     20  C   UNL     1      -4.225  -0.024  24.763  0.00  0.00    +0.022 A 
ATOM     21  C   UNL     1      -3.858  -0.531  24.226  0.00  0.00    +0.085 A 
ATOM     22  C   UNL     1      -3.372  -0.224  23.635  0.00  0.00    +0.022 A 
ATOM     23  C   UNL     1      -3.253   0.591  23.581  0.00  0.00    +0.039 A 
BRANCH  21  24
ATOM     24  N   UNL     1      -3.977  -1.346  24.279  0.00  0.00    -0.208 N 
ATOM     25  C   UNL     1      -3.671  -1.843  24.862  0.00  0.00    +0.202 A 
ATOM     26  N   UNL     1      -3.928  -2.611  24.702  0.00  0.00    -0.200 NA
ATOM     27  C   UNL     1      -4.392  -2.588  24.022  0.00  0.00    +0.221 A 
ATOM     28  N   UNL     1      -4.423  -1.806  23.760  0.00  0.00    -0.141 NA
ENDBRANCH  21  24
ENDBRANCH  17  18
ENDBRANCH  16  17
ENDBRANCH   8  12
BRANCH   4   3
ATOM      1  O   UNL     1       0.431   0.839  23.839  0.00  0.00    -0.249 OA
ATOM      2  C   UNL     1       0.916   1.503  23.915  0.00  0.00    +0.344 C 
ATOM      3  N   UNL     1       0.657   2.156  24.346  0.00  0.00    -0.184 NA
ATOM     29  N   UNL     1       1.661   1.512  23.561  0.00  0.00    -0.161 NA
BRANCH  29  30
ATOM     30  C   UNL     1       1.921   0.858  23.130  0.00  0.00    +0.075 A 
ATOM     31  C   UNL     1       1.382   0.283  22.889  0.00  0.00    +0.017 A 
ATOM     32  C   UNL     1       1.642  -0.372  22.458  0.00  0.00    +0.001 A 
ATOM     33  C   UNL     1       2.441  -0.450  22.268  0.00  0.00    +0.000 A 
ATOM     34  C   UNL     1       2.980   0.126  22.509  0.00  0.00    +0.001 A 
ATOM     35  C   UNL     1       3.779   0.048  22.320  0.00  0.00    +0.000 A 
ATOM     36  C   UNL     1       4.318   0.624  22.561  0.00  0.00    +0.000 A 
ATOM     37  C   UNL     1       4.058   1.279  22.992  0.00  0.00    +0.000 A 
ATOM     38  C   UNL     1       3.259   1.356  23.181  0.00  0.00    +0.001 A 
ATOM     39  C   UNL     1       2.719   0.780  22.940  0.00  0.00    +0.015 A 
ENDBRANCH  29  30
ENDBRANCH   4   3
TORSDOF 6
ENDMDL
MODEL 8
REMARK VINA RESULT:      -7.7      3.331      5.076
REMARK  Name = 
REMARK  6 active torsions:
REMARK  status: ('A' for Active; 'I' for Inactive)
REMARK    1  A    between atoms: N_3  and  C_4
REMARK    2  A    between atoms: C_8  and  N_12
REMARK    3  A    between atoms: C_16  and  O_17
REMARK    4  A    between atoms: O_17  and  C_18
REMARK    5  A    between atoms: C_21  and  N_24
REMARK    6  A    between atoms: N_29  and  C_30
REMARK                            x       y       z     vdW  Elec       q    Type
REMARK                         _______ _______ _______ _____ _____    ______ ____
ROOT
ATOM      4  C   UNL     1      -0.941   0.994  24.396  0.00  0.00    +0.156 C 
ATOM      5  C   UNL     1      -1.304   1.333  23.737  0.00  0.00    +0.166 C 
ATOM      6  O   UNL     1      -1.225   2.152  23.797  0.00  0.00    -0.350 OA
ATOM      7  C   UNL     1      -0.813   2.319  24.493  0.00  0.00    +0.169 C 
ATOM      8  C   UNL     1      -0.510   2.928  24.959  0.00  0.00    +0.170 C 
ATOM      9  C   UNL     1      -0.148   2.588  25.618  0.00  0.00    +0.169 C 
ATOM     10  O   UNL     1      -0.227   1.769  25.558  0.00  0.00    -0.350 OA
ATOM     11  C   UNL     1      -0.638   1.603  24.863  0.00  0.00    +0.167 C 
ENDROOT
BRANCH   8  12
ATOM     12  N   UNL     1      -0.561   3.735  24.797  0.00  0.00    -0.180 N 
ATOM     13  N   UNL     1      -0.180   4.129  24.179  0.00  0.00    -0.040 NA
ATOM     14  N   UNL     1      -0.384   4.927  24.224  0.00  0.00    -0.020 NA
ATOM     15  N   UNL     1      -0.890   5.027  24.867  0.00  0.00    -0.071 NA
ATOM     16  C   UNL     1      -0.999   4.289  25.221  0.00  0.00    +0.343 A 
BRANCH  16  17
ATOM     17  O   UNL     1      -1.464   4.134  25.885  0.00  0.00    -0.421 OA
BRANCH  17  18
ATOM     18  C   UNL     1      -2.287   4.109  25.815  0.00  0.00    +0.149 A 
ATOM     19  C   UNL     1      -2.658   4.483  25.181  0.00  0.00    +0.039 A 
ATOM     20  C   UNL     1      -3.480   4.458  25.111  0.00  0.00    +0.022 A 
ATOM     21  C   UNL     1      -3.930   4.059  25.676  0.00  0.00    +0.085 A 
ATOM     22  C   UNL     1      -3.558   3.685  26.311  0.00  0.00    +0.022 A 
ATOM     23  C   UNL     1      -2.736   3.710  26.380  0.00  0.00    +0.039 A 
BRANCH  21  24
ATOM     24  N   UNL     1      -4.752   4.034  25.607  0.00  0.00    -0.208 N 
ATOM     25  C   UNL     1      -5.223   3.359  25.668  0.00  0.00    +0.202 A 
ATOM     26  N   UNL     1      -6.008   3.588  25.563  0.00  0.00    -0.200 NA
ATOM     27  C   UNL     1      -6.023   4.402  25.437  0.00  0.00    +0.221 A 
ATOM     28  N   UNL     1      -5.246   4.678  25.464  0.00  0.00    -0.141 NA
ENDBRANCH  21  24
ENDBRANCH  17  18
ENDBRANCH  16  17
ENDBRANCH   8  12
BRANCH   4   3
ATOM      1  O   UNL     1      -2.292   0.155  24.837  0.00  0.00    -0.249 OA
ATOM      2  C   UNL     1      -1.565  -0.233  24.780  0.00  0.00    +0.344 C 
ATOM      3  N   UNL     1      -0.891   0.186  24.560  0.00  0.00    -0.184 NA
ATOM     29  N   UNL     1      -1.515  -1.040  24.943  0.00  0.00    -0.161 NA
BRANCH  29  30
ATOM     30  C   UNL     1      -2.190  -1.460  25.164  0.00  0.00    +0.075 A 
ATOM     31  C   UNL     1      -2.662  -1.186  25.782  0.00  0.00    +0.017 A 
ATOM     32  C   UNL     1      -3.338  -1.606  26.003  0.00  0.00    +0.001 A 
ATOM     33  C   UNL     1      -3.541  -2.299  25.605  0.00  0.00    +0.000 A 
ATOM     34  C   UNL     1      -3.069  -2.573  24.987  0.00  0.00    +0.001 A 
ATOM     35  C   UNL     1      -3.271  -3.266  24.589  0.00  0.00    +0.000 A 
ATOM     36  C   UNL     1      -2.799  -3.540  23.971  0.00  0.00    +0.000 A 
ATOM     37  C   UNL     1      -2.123  -3.120  23.750  0.00  0.00    +0.000 A 
ATOM     38  C   UNL     1      -1.921  -2.427  24.148  0.00  0.00    +0.001 A 
ATOM     39  C   UNL     1      -2.393  -2.153  24.766  0.00  0.00    +0.015 A 
ENDBRANCH  29  30
ENDBRANCH   4   3
TORSDOF 6
ENDMDL
MODEL 9
REMARK VINA RESULT:      -7.3     15.384     17.725
REMARK  Name = 
REMARK  6 active torsions:
REMARK  status: ('A' for Active; 'I' for Inactive)
REMARK    1  A    between atoms: N_3  and  C_4
REMARK    2  A    between atoms: C_8  and  N_12
REMARK    3  A    between atoms: C_16  and  O_17
REMARK    4  A    between atoms: O_17  and  C_18
REMARK    5  A    between atoms: C_21  and  N_24
REMARK    6  A    between atoms: N_29  and  C_30
REMARK                            x       y       z     vdW  Elec       q    Type
REMARK                         _______ _______ _______ _____ _____    ______ ____
ROOT
ATOM      4  C   UNL     1      -6.689  -9.643  12.630  0.00  0.00    +0.156 C 
ATOM      5  C   UNL     1      -6.462  -8.851  12.570  0.00  0.00    +0.166 C 
ATOM      6  O   UNL     1      -6.031  -8.762  11.872  0.00  0.00    -0.350 OA
ATOM      7  C   UNL     1      -5.991  -9.499  11.501  0.00  0.00    +0.169 C 
ATOM      8  C   UNL     1      -5.699  -9.898  10.841  0.00  0.00    +0.170 C 
ATOM      9  C   UNL     1      -5.925 -10.689  10.901  0.00  0.00    +0.169 C 
ATOM     10  O   UNL     1      -6.357 -10.778  11.599  0.00  0.00    -0.350 OA
ATOM     11  C   UNL     1      -6.397 -10.043  11.969  0.00  0.00    +0.167 C 
ENDROOT
BRANCH   8  12
ATOM     12  N   UNL     1      -5.259  -9.566  10.228  0.00  0.00    -0.180 N 
ATOM     13  N   UNL     1      -5.553  -9.082   9.627  0.00  0.00    -0.040 NA
ATOM     14  N   UNL     1      -4.923  -8.876   9.135  0.00  0.00    -0.020 NA
ATOM     15  N   UNL     1      -4.240  -9.231   9.431  0.00  0.00    -0.071 NA
ATOM     16  C   UNL     1      -4.449  -9.658  10.107  0.00  0.00    +0.343 A 
BRANCH  16  17
ATOM     17  O   UNL     1      -3.935 -10.099  10.578  0.00  0.00    -0.421 OA
BRANCH  17  18
ATOM     18  C   UNL     1      -3.173  -9.821  10.732  0.00  0.00    +0.149 A 
ATOM     19  C   UNL     1      -2.856  -9.213  10.272  0.00  0.00    +0.039 A 
ATOM     20  C   UNL     1      -2.095  -8.936  10.425  0.00  0.00    +0.022 A 
ATOM     21  C   UNL     1      -1.650  -9.265  11.038  0.00  0.00    +0.085 A 
ATOM     22  C   UNL     1      -1.968  -9.872  11.497  0.00  0.00    +0.022 A 
ATOM     23  C   UNL     1      -2.730 -10.150  11.344  0.00  0.00    +0.039 A 
BRANCH  21  24
ATOM     24  N   UNL     1      -0.889  -8.986  11.191  0.00  0.00    -0.208 N 
ATOM     25  C   UNL     1      -0.217  -9.139  10.738  0.00  0.00    +0.202 A 
ATOM     26  N   UNL     1       0.421  -8.753  11.091  0.00  0.00    -0.200 NA
ATOM     27  C   UNL     1       0.144  -8.363  11.762  0.00  0.00    +0.221 A 
ATOM     28  N   UNL     1      -0.666  -8.507  11.824  0.00  0.00    -0.141 NA
ENDBRANCH  21  24
ENDBRANCH  17  18
ENDBRANCH  16  17
ENDBRANCH   8  12
BRANCH   4   3
ATOM      1  O   UNL     1      -6.278  -9.341  14.199  0.00  0.00    -0.249 OA
ATOM      2  C   UNL     1      -6.924  -9.825  14.027  0.00  0.00    +0.344 C 
ATOM      3  N   UNL     1      -7.129  -9.976  13.243  0.00  0.00    -0.184 NA
ATOM     29  N   UNL     1      -7.364 -10.158  14.640  0.00  0.00    -0.161 NA
BRANCH  29  30
ATOM     30  C   UNL     1      -7.159 -10.007  15.425  0.00  0.00    +0.075 A 
ATOM     31  C   UNL     1      -6.367 -10.022  15.654  0.00  0.00    +0.017 A 
ATOM     32  C   UNL     1      -6.162  -9.871  16.439  0.00  0.00    +0.001 A 
ATOM     33  C   UNL     1      -6.749  -9.706  16.994  0.00  0.00    +0.000 A 
ATOM     34  C   UNL     1      -7.540  -9.692  16.766  0.00  0.00    +0.001 A 
ATOM     35  C   UNL     1      -8.128  -9.527  17.321  0.00  0.00    +0.000 A 
ATOM     36  C   UNL     1      -8.920  -9.513  17.092  0.00  0.00    +0.000 A 
ATOM     37  C   UNL     1      -9.126  -9.664  16.307  0.00  0.00    +0.000 A 
ATOM     38  C   UNL     1      -8.539  -9.828  15.752  0.00  0.00    +0.001 A 
ATOM     39  C   UNL     1      -7.746  -9.843  15.980  0.00  0.00    +0.015 A 
ENDBRANCH  29  30
ENDBRANCH   4   3
TORSDOF 6
ENDMDL
MODEL 10
REMARK VINA RESULT:      -7.2     16.808     19.052
REMARK  Name = 
REMARK  6 active torsions:
REMARK  status: ('A' for Active; 'I' for Inactive)
REMARK    1  A    between atoms: N_3  and  C_4
REMARK    2  A    between atoms: C_8  and  N_12
REMARK    3  A    between atoms: C_16  and  O_17
REMARK    4  A    between atoms: O_17  and  C_18
REMARK    5  A    between atoms: C_21  and  N_24
REMARK    6  A    between atoms: N_29  and  C_30
REMARK                            x       y       z     vdW  Elec       q    Type
REMARK                         _______ _______ _______ _____ _____    ______ ____
ROOT
ATOM      4  C   UNL     1     -10.163 -10.100  13.170  0.00  0.00    +0.156 C 
ATOM      5  C   UNL     1      -9.721 -10.777  13.003  0.00  0.00    +0.166 C 
ATOM      6  O   UNL     1      -9.557 -10.781  12.195  0.00  0.00    -0.350 OA
ATOM      7  C   UNL     1      -9.897 -10.106  11.861  0.00  0.00    +0.169 C 
ATOM      8  C   UNL     1     -10.006  -9.693  11.157  0.00  0.00    +0.170 C 
ATOM      9  C   UNL     1     -10.447  -9.017  11.323  0.00  0.00    +0.169 C 
ATOM     10  O   UNL     1     -10.612  -9.012  12.132  0.00  0.00    -0.350 OA
ATOM     11  C   UNL     1     -10.272  -9.686  12.464  0.00  0.00    +0.167 C 
ENDROOT
BRANCH   8  12
ATOM     12  N   UNL     1      -9.723  -9.916  10.414  0.00  0.00    -0.180 N 
ATOM     13  N   UNL     1     -10.077 -10.459   9.904  0.00  0.00    -0.040 NA
ATOM     14  N   UNL     1      -9.610 -10.514   9.226  0.00  0.00    -0.020 NA
ATOM     15  N   UNL     1      -8.967 -10.006   9.317  0.00  0.00    -0.071 NA
ATOM     16  C   UNL     1      -9.037  -9.637  10.052  0.00  0.00    +0.343 A 
BRANCH  16  17
ATOM     17  O   UNL     1      -8.512  -9.084  10.369  0.00  0.00    -0.421 OA
BRANCH  17  18
ATOM     18  C   UNL     1      -7.727  -9.067  10.114  0.00  0.00    +0.149 A 
ATOM     19  C   UNL     1      -7.225  -9.699  10.283  0.00  0.00    +0.039 A 
ATOM     20  C   UNL     1      -6.441  -9.682  10.029  0.00  0.00    +0.022 A 
ATOM     21  C   UNL     1      -6.158  -9.033   9.605  0.00  0.00    +0.085 A 
ATOM     22  C   UNL     1      -6.660  -8.400   9.437  0.00  0.00    +0.022 A 
ATOM     23  C   UNL     1      -7.445  -8.417   9.691  0.00  0.00    +0.039 A 
BRANCH  21  24
ATOM     24  N   UNL     1      -5.373  -9.016   9.351  0.00  0.00    -0.208 N 
ATOM     25  C   UNL     1      -4.764  -8.573   9.687  0.00  0.00    +0.202 A 
ATOM     26  N   UNL     1      -4.075  -8.722   9.260  0.00  0.00    -0.200 NA
ATOM     27  C   UNL     1      -4.258  -9.257   8.660  0.00  0.00    +0.221 A 
ATOM     28  N   UNL     1      -5.060  -9.438   8.716  0.00  0.00    -0.141 NA
ENDBRANCH  21  24
ENDBRANCH  17  18
ENDBRANCH  16  17
ENDBRANCH   8  12
BRANCH   4   3
ATOM      1  O   UNL     1      -9.105  -9.757  14.388  0.00  0.00    -0.249 OA
ATOM      2  C   UNL     1      -9.918  -9.705  14.521  0.00  0.00    +0.344 C 
ATOM      3  N   UNL     1     -10.446  -9.876  13.912  0.00  0.00    -0.184 NA
ATOM     29  N   UNL     1     -10.201  -9.481  15.263  0.00  0.00    -0.161 NA
BRANCH  29  30
ATOM     30  C   UNL     1      -9.672  -9.309  15.872  0.00  0.00    +0.075 A 
ATOM     31  C   UNL     1      -8.970  -9.737  15.941  0.00  0.00    +0.017 A 
ATOM     32  C   UNL     1      -8.440  -9.565  16.551  0.00  0.00    +0.001 A 
ATOM     33  C   UNL     1      -8.613  -8.966  17.091  0.00  0.00    +0.000 A 
ATOM     34  C   UNL     1      -9.315  -8.539  17.021  0.00  0.00    +0.001 A 
ATOM     35  C   UNL     1      -9.488  -7.939  17.561  0.00  0.00    +0.000 A 
ATOM     36  C   UNL     1     -10.190  -7.512  17.492  0.00  0.00    +0.000 A 
ATOM     37  C   UNL     1     -10.720  -7.684  16.882  0.00  0.00    +0.000 A 
ATOM     38  C   UNL     1     -10.547  -8.282  16.343  0.00  0.00    +0.001 A 
ATOM     39  C   UNL     1      -9.845  -8.711  16.411  0.00  0.00    +0.015 A 
ENDBRANCH  29  30
ENDBRANCH   4   3
TORSDOF 6
ENDMDL
