MODEL 1
REMARK VINA RESULT:     -10.1      0.000      0.000
REMARK  Name = 
REMARK  7 active torsions:
REMARK  status: ('A' for Active; 'I' for Inactive)
REMARK    1  A    between atoms: O_2  and  C_3
REMARK    2  A    between atoms: C_3  and  C_4
REMARK    3  A    between atoms: N_8  and  C_9
REMARK    4  A    between atoms: C_9  and  C_10
REMARK    5  A    between atoms: C_17  and  C_18
REMARK    6  A    between atoms: C_18  and  N_19
REMARK    7  A    between atoms: N_22  and  C_23
REMARK                            x       y       z     vdW  Elec       q    Type
REMARK                         _______ _______ _______ _____ _____    ______ ____
ROOT
ATOM     10  C   UNL     1      -3.114   2.897  25.204  0.00  0.00    +0.032 C 
ATOM     11  C   UNL     1      -2.730   2.296  24.893  0.00  0.00    +0.073 C 
ATOM     12  N   UNL     1      -3.549   2.365  24.967  0.00  0.00    -0.272 NA
ATOM     13  C   UNL     1      -3.742   3.288  25.426  0.00  0.00    +0.072 C 
ATOM     14  C   UNL     1      -4.164   3.728  25.661  0.00  0.00    +0.017 C 
ATOM     15  C   UNL     1      -3.919   2.957  25.274  0.00  0.00    +0.005 C 
ATOM     16  C   UNL     1      -4.571   2.417  25.044  0.00  0.00    +0.018 C 
ATOM     17  C   UNL     1      -4.233   1.808  24.731  0.00  0.00    +0.079 C 
ENDROOT
BRANCH  10   9
ATOM      9  C   UNL     1      -2.663   3.528  25.489  0.00  0.00    +0.073 C 
BRANCH   9   8
ATOM      4  C   UNL     1      -1.283   4.020  25.373  0.00  0.00    +0.087 C 
ATOM      5  C   UNL     1      -0.537   3.708  25.537  0.00  0.00    +0.020 C 
ATOM      6  C   UNL     1      -0.638   2.945  25.830  0.00  0.00    +0.019 C 
ATOM      7  C   UNL     1      -1.447   2.784  25.849  0.00  0.00    +0.072 C 
ATOM      8  N   UNL     1      -1.846   3.448  25.566  0.00  0.00    -0.272 NA
BRANCH   4   3
ATOM      3  C   UNL     1      -1.439   4.771  25.070  0.00  0.00    +0.158 C 
BRANCH   3   2
ATOM      1  C   UNL     1      -0.973   6.044  24.616  0.00  0.00    +0.174 C 
ATOM      2  O   UNL     1      -0.821   5.303  24.946  0.00  0.00    -0.350 OA
ENDBRANCH   3   2
ENDBRANCH   4   3
ENDBRANCH   9   8
ENDBRANCH  10   9
BRANCH  17  18
ATOM     18  C   UNL     1      -4.392   1.078  24.383  0.00  0.00    +0.133 C 
BRANCH  18  19
ATOM     19  N   UNL     1      -4.404   0.395  24.846  0.00  0.00    -0.185 NA
ATOM     20  C   UNL     1      -4.152  -0.323  24.530  0.00  0.00    +0.344 C 
ATOM     21  O   UNL     1      -3.887  -0.359  23.749  0.00  0.00    -0.249 OA
ATOM     22  N   UNL     1      -4.164  -1.006  24.993  0.00  0.00    -0.161 NA
BRANCH  22  23
ATOM     23  C   UNL     1      -3.911  -1.725  24.675  0.00  0.00    +0.075 A 
ATOM     24  C   UNL     1      -3.209  -2.068  24.938  0.00  0.00    +0.017 A 
ATOM     25  C   UNL     1      -2.957  -2.786  24.620  0.00  0.00    +0.001 A 
ATOM     26  C   UNL     1      -3.407  -3.162  24.040  0.00  0.00    +0.000 A 
ATOM     27  C   UNL     1      -4.109  -2.819  23.777  0.00  0.00    +0.001 A 
ATOM     28  C   UNL     1      -4.362  -2.100  24.095  0.00  0.00    +0.017 A 
ENDBRANCH  22  23
ENDBRANCH  18  19
ENDBRANCH  17  18
TORSDOF 7
ENDMDL
MODEL 2
REMARK VINA RESULT:     -10.0      1.303      2.213
REMARK  Name = 
REMARK  7 active torsions:
REMARK  status: ('A' for Active; 'I' for Inactive)
REMARK    1  A    between atoms: O_2  and  C_3
REMARK    2  A    between atoms: C_3  and  C_4
REMARK    3  A    between atoms: N_8  and  C_9
REMARK    4  A    between atoms: C_9  and  C_10
REMARK    5  A    between atoms: C_17  and  C_18
REMARK    6  A    between atoms: C_18  and  N_19
REMARK    7  A    between atoms: N_22  and  C_23
REMARK                            x       y       z     vdW  Elec       q    Type
REMARK                         _______ _______ _______ _____ _____    ______ ____
ROOT
ATOM     10  C   UNL     1      -1.170   2.417  25.676  0.00  0.00    +0.032 C 
ATOM     11  C   UNL     1      -1.788   2.169  25.274  0.00  0.00    +0.073 C 
ATOM     12  N   UNL     1      -1.147   1.709  25.514  0.00  0.00    -0.272 NA
ATOM     13  C   UNL     1      -0.489   2.340  26.032  0.00  0.00    +0.072 C 
ATOM     14  C   UNL     1       0.067   2.434  26.362  0.00  0.00    +0.017 C 
ATOM     15  C   UNL     1      -0.544   1.959  25.908  0.00  0.00    +0.005 C 
ATOM     16  C   UNL     1      -0.365   1.107  25.796  0.00  0.00    +0.018 C 
ATOM     17  C   UNL     1      -0.954   0.824  25.401  0.00  0.00    +0.079 C 
ENDROOT
BRANCH  10   9
ATOM      9  C   UNL     1      -1.150   3.216  25.884  0.00  0.00    +0.073 C 
BRANCH   9   8
ATOM      4  C   UNL     1      -1.914   4.402  25.473  0.00  0.00    +0.087 C 
ATOM      5  C   UNL     1      -2.693   4.656  25.568  0.00  0.00    +0.020 C 
ATOM      6  C   UNL     1      -3.098   4.081  25.998  0.00  0.00    +0.019 C 
ATOM      7  C   UNL     1      -2.569   3.471  26.169  0.00  0.00    +0.072 C 
ATOM      8  N   UNL     1      -1.837   3.670  25.844  0.00  0.00    -0.272 NA
BRANCH   4   3
ATOM      3  C   UNL     1      -1.316   4.810  25.076  0.00  0.00    +0.158 C 
BRANCH   3   2
ATOM      1  C   UNL     1      -0.746   6.040  24.624  0.00  0.00    +0.174 C 
ATOM      2  O   UNL     1      -1.340   5.632  25.026  0.00  0.00    -0.350 OA
ENDBRANCH   3   2
ENDBRANCH   4   3
ENDBRANCH   9   8
ENDBRANCH  10   9
BRANCH  17  18
ATOM     18  C   UNL     1      -1.245   0.128  25.069  0.00  0.00    +0.133 C 
BRANCH  18  19
ATOM     19  N   UNL     1      -1.938  -0.211  25.362  0.00  0.00    -0.185 NA
ATOM     20  C   UNL     1      -2.332  -0.790  24.927  0.00  0.00    +0.344 C 
ATOM     21  O   UNL     1      -2.032  -1.031  24.197  0.00  0.00    -0.249 OA
ATOM     22  N   UNL     1      -3.025  -1.128  25.220  0.00  0.00    -0.161 NA
BRANCH  22  23
ATOM     23  C   UNL     1      -3.418  -1.707  24.783  0.00  0.00    +0.075 A 
ATOM     24  C   UNL     1      -3.242  -2.504  24.903  0.00  0.00    +0.017 A 
ATOM     25  C   UNL     1      -3.635  -3.084  24.466  0.00  0.00    +0.001 A 
ATOM     26  C   UNL     1      -4.204  -2.866  23.909  0.00  0.00    +0.000 A 
ATOM     27  C   UNL     1      -4.379  -2.069  23.789  0.00  0.00    +0.001 A 
ATOM     28  C   UNL     1      -3.986  -1.490  24.226  0.00  0.00    +0.017 A 
ENDBRANCH  22  23
ENDBRANCH  18  19
ENDBRANCH  17  18
TORSDOF 7
ENDMDL
MODEL 3
REMARK VINA RESULT:      -9.7      1.959      6.101
REMARK  Name = 
REMARK  7 active torsions:
REMARK  status: ('A' for Active; 'I' for Inactive)
REMARK    1  A    between atoms: O_2  and  C_3
REMARK    2  A    between atoms: C_3  and  C_4
REMARK    3  A    between atoms: N_8  and  C_9
REMARK    4  A    between atoms: C_9  and  C_10
REMARK    5  A    between atoms: C_17  and  C_18
REMARK    6  A    between atoms: C_18  and  N_19
REMARK    7  A    between atoms: N_22  and  C_23
REMARK                            x       y       z     vdW  Elec       q    Type
REMARK                         _______ _______ _______ _____ _____    ______ ____
ROOT
ATOM     10  C   UNL     1      -1.427  -0.700  24.629  0.00  0.00    +0.032 C 
ATOM     11  C   UNL     1      -1.906  -0.087  24.623  0.00  0.00    +0.073 C 
ATOM     12  N   UNL     1      -1.101  -0.078  24.443  0.00  0.00    -0.272 NA
ATOM     13  C   UNL     1      -0.749  -1.060  24.544  0.00  0.00    +0.072 C 
ATOM     14  C   UNL     1      -0.263  -1.495  24.515  0.00  0.00    +0.017 C 
ATOM     15  C   UNL     1      -0.638  -0.683  24.451  0.00  0.00    +0.005 C 
ATOM     16  C   UNL     1      -0.102  -0.029  24.213  0.00  0.00    +0.018 C 
ATOM     17  C   UNL     1      -0.539   0.597  24.196  0.00  0.00    +0.079 C 
ENDROOT
BRANCH  10   9
ATOM      9  C   UNL     1      -1.752  -1.432  24.834  0.00  0.00    +0.073 C 
BRANCH   9   8
ATOM      4  C   UNL     1      -3.107  -1.953  25.058  0.00  0.00    +0.087 C 
ATOM      5  C   UNL     1      -3.705  -1.806  25.607  0.00  0.00    +0.020 C 
ATOM      6  C   UNL     1      -3.436  -1.229  26.129  0.00  0.00    +0.019 C 
ATOM      7  C   UNL     1      -2.671  -1.017  25.904  0.00  0.00    +0.072 C 
ATOM      8  N   UNL     1      -2.467  -1.465  25.241  0.00  0.00    -0.272 NA
BRANCH   4   3
ATOM      3  C   UNL     1      -3.143  -2.493  24.435  0.00  0.00    +0.158 C 
BRANCH   3   2
ATOM      1  C   UNL     1      -3.960  -3.278  23.565  0.00  0.00    +0.174 C 
ATOM      2  O   UNL     1      -3.834  -2.921  24.298  0.00  0.00    -0.350 OA
ENDBRANCH   3   2
ENDBRANCH   4   3
ENDBRANCH   9   8
ENDBRANCH  10   9
BRANCH  17  18
ATOM     18  C   UNL     1      -0.515   1.407  24.043  0.00  0.00    +0.133 C 
BRANCH  18  19
ATOM     19  N   UNL     1      -0.417   1.941  24.664  0.00  0.00    -0.185 NA
ATOM     20  C   UNL     1      -0.727   2.703  24.607  0.00  0.00    +0.344 C 
ATOM     21  O   UNL     1      -1.134   2.932  23.927  0.00  0.00    -0.249 OA
ATOM     22  N   UNL     1      -0.629   3.237  25.228  0.00  0.00    -0.161 NA
BRANCH  22  23
ATOM     23  C   UNL     1      -0.939   3.999  25.169  0.00  0.00    +0.075 A 
ATOM     24  C   UNL     1      -1.694   4.161  25.459  0.00  0.00    +0.017 A 
ATOM     25  C   UNL     1      -2.004   4.924  25.400  0.00  0.00    +0.001 A 
ATOM     26  C   UNL     1      -1.559   5.524  25.052  0.00  0.00    +0.000 A 
ATOM     27  C   UNL     1      -0.804   5.363  24.762  0.00  0.00    +0.001 A 
ATOM     28  C   UNL     1      -0.494   4.600  24.821  0.00  0.00    +0.017 A 
ENDBRANCH  22  23
ENDBRANCH  18  19
ENDBRANCH  17  18
TORSDOF 7
ENDMDL
MODEL 4
REMARK VINA RESULT:      -9.3      1.080      5.595
REMARK  Name = 
REMARK  7 active torsions:
REMARK  status: ('A' for Active; 'I' for Inactive)
REMARK    1  A    between atoms: O_2  and  C_3
REMARK    2  A    between atoms: C_3  and  C_4
REMARK    3  A    between atoms: N_8  and  C_9
REMARK    4  A    between atoms: C_9  and  C_10
REMARK    5  A    between atoms: C_17  and  C_18
REMARK    6  A    between atoms: C_18  and  N_19
REMARK    7  A    between atoms: N_22  and  C_23
REMARK                            x       y       z     vdW  Elec       q    Type
REMARK                         _______ _______ _______ _____ _____    ______ ____
ROOT
ATOM     10  C   UNL     1      -4.101   0.375  24.892  0.00  0.00    +0.032 C 
ATOM     11  C   UNL     1      -3.397   0.644  24.699  0.00  0.00    +0.073 C 
ATOM     12  N   UNL     1      -4.080   1.096  24.803  0.00  0.00    -0.272 NA
ATOM     13  C   UNL     1      -4.853   0.434  25.057  0.00  0.00    +0.072 C 
ATOM     14  C   UNL     1      -5.477   0.323  25.213  0.00  0.00    +0.017 C 
ATOM     15  C   UNL     1      -4.767   0.824  24.992  0.00  0.00    +0.005 C 
ATOM     16  C   UNL     1      -4.910   1.687  24.924  0.00  0.00    +0.018 C 
ATOM     17  C   UNL     1      -4.236   1.992  24.734  0.00  0.00    +0.079 C 
ENDROOT
BRANCH  10   9
ATOM      9  C   UNL     1      -4.176  -0.441  25.004  0.00  0.00    +0.073 C 
BRANCH   9   8
ATOM      4  C   UNL     1      -3.384  -1.658  24.778  0.00  0.00    +0.087 C 
ATOM      5  C   UNL     1      -2.637  -1.920  25.011  0.00  0.00    +0.020 C 
ATOM      6  C   UNL     1      -2.294  -1.331  25.475  0.00  0.00    +0.019 C 
ATOM      7  C   UNL     1      -2.828  -0.705  25.529  0.00  0.00    +0.072 C 
ATOM      8  N   UNL     1      -3.502  -0.907  25.098  0.00  0.00    -0.272 NA
BRANCH   4   3
ATOM      3  C   UNL     1      -3.919  -2.075  24.308  0.00  0.00    +0.158 C 
BRANCH   3   2
ATOM      1  C   UNL     1      -4.274  -3.257  23.589  0.00  0.00    +0.174 C 
ATOM      2  O   UNL     1      -3.760  -2.854  24.094  0.00  0.00    -0.350 OA
ENDBRANCH   3   2
ENDBRANCH   4   3
ENDBRANCH   9   8
ENDBRANCH  10   9
BRANCH  17  18
ATOM     18  C   UNL     1      -3.867   2.710  24.566  0.00  0.00    +0.133 C 
BRANCH  18  19
ATOM     19  N   UNL     1      -3.381   3.065  25.130  0.00  0.00    -0.185 NA
ATOM     20  C   UNL     1      -2.800   3.602  24.895  0.00  0.00    +0.344 C 
ATOM     21  O   UNL     1      -2.705   3.783  24.096  0.00  0.00    -0.249 OA
ATOM     22  N   UNL     1      -2.314   3.957  25.459  0.00  0.00    -0.161 NA
BRANCH  22  23
ATOM     23  C   UNL     1      -1.733   4.494  25.223  0.00  0.00    +0.075 A 
ATOM     24  C   UNL     1      -0.979   4.224  25.025  0.00  0.00    +0.017 A 
ATOM     25  C   UNL     1      -0.398   4.761  24.789  0.00  0.00    +0.001 A 
ATOM     26  C   UNL     1      -0.571   5.567  24.752  0.00  0.00    +0.000 A 
ATOM     27  C   UNL     1      -1.325   5.836  24.951  0.00  0.00    +0.001 A 
ATOM     28  C   UNL     1      -1.906   5.300  25.187  0.00  0.00    +0.017 A 
ENDBRANCH  22  23
ENDBRANCH  18  19
ENDBRANCH  17  18
TORSDOF 7
ENDMDL
MODEL 5
REMARK VINA RESULT:      -8.6      3.648      5.322
REMARK  Name = 
REMARK  7 active torsions:
REMARK  status: ('A' for Active; 'I' for Inactive)
REMARK    1  A    between atoms: O_2  and  C_3
REMARK    2  A    between atoms: C_3  and  C_4
REMARK    3  A    between atoms: N_8  and  C_9
REMARK    4  A    between atoms: C_9  and  C_10
REMARK    5  A    between atoms: C_17  and  C_18
REMARK    6  A    between atoms: C_18  and  N_19
REMARK    7  A    between atoms: N_22  and  C_23
REMARK                            x       y       z     vdW  Elec       q    Type
REMARK                         _______ _______ _______ _____ _____    ______ ____
ROOT
ATOM     10  C   UNL     1      -2.155   1.118  24.137  0.00  0.00    +0.032 C 
ATOM     11  C   UNL     1      -1.761   1.753  23.921  0.00  0.00    +0.073 C 
ATOM     12  N   UNL     1      -1.441   1.005  24.062  0.00  0.00    -0.272 NA
ATOM     13  C   UNL     1      -2.234   0.376  24.335  0.00  0.00    +0.072 C 
ATOM     14  C   UNL     1      -2.457  -0.211  24.514  0.00  0.00    +0.017 C 
ATOM     15  C   UNL     1      -1.834   0.387  24.274  0.00  0.00    +0.005 C 
ATOM     16  C   UNL     1      -1.010   0.089  24.228  0.00  0.00    +0.018 C 
ATOM     17  C   UNL     1      -0.587   0.689  24.016  0.00  0.00    +0.079 C 
ENDROOT
BRANCH  10   9
ATOM      9  C   UNL     1      -2.972   1.196  24.237  0.00  0.00    +0.073 C 
BRANCH   9   8
ATOM      4  C   UNL     1      -4.051   2.190  24.319  0.00  0.00    +0.087 C 
ATOM      5  C   UNL     1      -4.231   2.890  23.920  0.00  0.00    +0.020 C 
ATOM      6  C   UNL     1      -3.644   3.021  23.357  0.00  0.00    +0.019 C 
ATOM      7  C   UNL     1      -3.100   2.402  23.407  0.00  0.00    +0.072 C 
ATOM      8  N   UNL     1      -3.352   1.888  24.001  0.00  0.00    -0.272 NA
BRANCH   4   3
ATOM      3  C   UNL     1      -4.493   1.852  24.928  0.00  0.00    +0.158 C 
BRANCH   3   2
ATOM      1  C   UNL     1      -5.677   1.818  25.727  0.00  0.00    +0.174 C 
ATOM      2  O   UNL     1      -5.221   2.174  25.138  0.00  0.00    -0.350 OA
ENDBRANCH   3   2
ENDBRANCH   4   3
ENDBRANCH   9   8
ENDBRANCH  10   9
BRANCH  17  18
ATOM     18  C   UNL     1       0.187   0.915  23.847  0.00  0.00    +0.133 C 
BRANCH  18  19
ATOM     19  N   UNL     1       0.667   0.429  23.384  0.00  0.00    -0.185 NA
ATOM     20  C   UNL     1       1.481   0.558  23.356  0.00  0.00    +0.344 C 
ATOM     21  O   UNL     1       1.816   1.174  23.791  0.00  0.00    -0.249 OA
ATOM     22  N   UNL     1       1.961   0.072  22.893  0.00  0.00    -0.161 NA
BRANCH  22  23
ATOM     23  C   UNL     1       2.775   0.202  22.865  0.00  0.00    +0.075 A 
ATOM     24  C   UNL     1       3.076   0.846  22.446  0.00  0.00    +0.017 A 
ATOM     25  C   UNL     1       3.891   0.976  22.418  0.00  0.00    +0.001 A 
ATOM     26  C   UNL     1       4.404   0.462  22.810  0.00  0.00    +0.000 A 
ATOM     27  C   UNL     1       4.103  -0.181  23.229  0.00  0.00    +0.001 A 
ATOM     28  C   UNL     1       3.289  -0.311  23.257  0.00  0.00    +0.017 A 
ENDBRANCH  22  23
ENDBRANCH  18  19
ENDBRANCH  17  18
TORSDOF 7
ENDMDL
MODEL 6
REMARK VINA RESULT:      -8.3      2.753      4.465
REMARK  Name = 
REMARK  7 active torsions:
REMARK  status: ('A' for Active; 'I' for Inactive)
REMARK    1  A    between atoms: O_2  and  C_3
REMARK    2  A    between atoms: C_3  and  C_4
REMARK    3  A    between atoms: N_8  and  C_9
REMARK    4  A    between atoms: C_9  and  C_10
REMARK    5  A    between atoms: C_17  and  C_18
REMARK    6  A    between atoms: C_18  and  N_19
REMARK    7  A    between atoms: N_22  and  C_23
REMARK                            x       y       z     vdW  Elec       q    Type
REMARK                         _______ _______ _______ _____ _____    ______ ____
ROOT
ATOM     10  C   UNL     1      -0.441   1.747  24.144  0.00  0.00    +0.032 C 
ATOM     11  C   UNL     1      -1.115   1.419  23.936  0.00  0.00    +0.073 C 
ATOM     12  N   UNL     1      -1.018   2.178  24.246  0.00  0.00    -0.272 NA
ATOM     13  C   UNL     1       0.007   2.313  24.419  0.00  0.00    +0.072 C 
ATOM     14  C   UNL     1       0.504   2.684  24.624  0.00  0.00    +0.017 C 
ATOM     15  C   UNL     1      -0.354   2.493  24.448  0.00  0.00    +0.005 C 
ATOM     16  C   UNL     1      -0.935   3.126  24.628  0.00  0.00    +0.018 C 
ATOM     17  C   UNL     1      -1.616   2.840  24.436  0.00  0.00    +0.079 C 
ENDROOT
BRANCH  10   9
ATOM      9  C   UNL     1       0.245   1.297  24.048  0.00  0.00    +0.073 C 
BRANCH   9   8
ATOM      4  C   UNL     1       0.690   0.039  23.433  0.00  0.00    +0.087 C 
ATOM      5  C   UNL     1       0.434  -0.745  23.458  0.00  0.00    +0.020 C 
ATOM      6  C   UNL     1      -0.224  -0.783  23.953  0.00  0.00    +0.019 C 
ATOM      7  C   UNL     1      -0.375  -0.023  24.235  0.00  0.00    +0.072 C 
ATOM      8  N   UNL     1       0.189   0.486  23.913  0.00  0.00    -0.272 NA
BRANCH   4   3
ATOM      3  C   UNL     1       1.333   0.326  23.003  0.00  0.00    +0.158 C 
BRANCH   3   2
ATOM      1  C   UNL     1       2.561   0.085  22.313  0.00  0.00    +0.174 C 
ATOM      2  O   UNL     1       1.871  -0.200  22.666  0.00  0.00    -0.350 OA
ENDBRANCH   3   2
ENDBRANCH   4   3
ENDBRANCH   9   8
ENDBRANCH  10   9
BRANCH  17  18
ATOM     18  C   UNL     1      -2.420   3.023  24.413  0.00  0.00    +0.133 C 
BRANCH  18  19
ATOM     19  N   UNL     1      -2.900   2.851  25.062  0.00  0.00    -0.185 NA
ATOM     20  C   UNL     1      -3.707   2.720  24.955  0.00  0.00    +0.344 C 
ATOM     21  O   UNL     1      -4.034   2.760  24.199  0.00  0.00    -0.249 OA
ATOM     22  N   UNL     1      -4.187   2.548  25.603  0.00  0.00    -0.161 NA
BRANCH  22  23
ATOM     23  C   UNL     1      -4.995   2.416  25.495  0.00  0.00    +0.075 A 
ATOM     24  C   UNL     1      -5.535   3.022  25.646  0.00  0.00    +0.017 A 
ATOM     25  C   UNL     1      -6.342   2.890  25.538  0.00  0.00    +0.001 A 
ATOM     26  C   UNL     1      -6.610   2.154  25.280  0.00  0.00    +0.000 A 
ATOM     27  C   UNL     1      -6.070   1.548  25.130  0.00  0.00    +0.001 A 
ATOM     28  C   UNL     1      -5.262   1.680  25.237  0.00  0.00    +0.017 A 
ENDBRANCH  22  23
ENDBRANCH  18  19
ENDBRANCH  17  18
TORSDOF 7
ENDMDL
MODEL 7
REMARK VINA RESULT:      -8.1      2.617      4.472
REMARK  Name = 
REMARK  7 active torsions:
REMARK  status: ('A' for Active; 'I' for Inactive)
REMARK    1  A    between atoms: O_2  and  C_3
REMARK    2  A    between atoms: C_3  and  C_4
REMARK    3  A    between atoms: N_8  and  C_9
REMARK    4  A    between atoms: C_9  and  C_10
REMARK    5  A    between atoms: C_17  and  C_18
REMARK    6  A    between atoms: C_18  and  N_19
REMARK    7  A    between atoms: N_22  and  C_23
REMARK                            x       y       z     vdW  Elec       q    Type
REMARK                         _______ _______ _______ _____ _____    ______ ____
ROOT
ATOM     10  C   UNL     1      -1.249  -0.494  24.493  0.00  0.00    +0.032 C 
ATOM     11  C   UNL     1      -1.631   0.184  24.496  0.00  0.00    +0.073 C 
ATOM     12  N   UNL     1      -1.952  -0.558  24.667  0.00  0.00    -0.272 NA
ATOM     13  C   UNL     1      -1.178  -1.259  24.576  0.00  0.00    +0.072 C 
ATOM     14  C   UNL     1      -0.963  -1.875  24.605  0.00  0.00    +0.017 C 
ATOM     15  C   UNL     1      -1.571  -1.218  24.663  0.00  0.00    +0.005 C 
ATOM     16  C   UNL     1      -2.383  -1.462  24.886  0.00  0.00    +0.018 C 
ATOM     17  C   UNL     1      -2.795  -0.819  24.900  0.00  0.00    +0.079 C 
ENDROOT
BRANCH  10   9
ATOM      9  C   UNL     1      -0.446  -0.474  24.301  0.00  0.00    +0.073 C 
BRANCH   9   8
ATOM      4  C   UNL     1       0.534   0.421  23.670  0.00  0.00    +0.087 C 
ATOM      5  C   UNL     1       0.761   1.207  23.778  0.00  0.00    +0.020 C 
ATOM      6  C   UNL     1       0.307   1.521  24.390  0.00  0.00    +0.019 C 
ATOM      7  C   UNL     1      -0.201   0.930  24.661  0.00  0.00    +0.072 C 
ATOM      8  N   UNL     1      -0.060   0.249  24.216  0.00  0.00    -0.272 NA
BRANCH   4   3
ATOM      3  C   UNL     1       0.847  -0.102  23.114  0.00  0.00    +0.158 C 
BRANCH   3   2
ATOM      1  C   UNL     1       1.761  -0.344  22.042  0.00  0.00    +0.174 C 
ATOM      2  O   UNL     1       1.536   0.093  22.705  0.00  0.00    -0.350 OA
ENDBRANCH   3   2
ENDBRANCH   4   3
ENDBRANCH   9   8
ENDBRANCH  10   9
BRANCH  17  18
ATOM     18  C   UNL     1      -3.554  -0.531  25.041  0.00  0.00    +0.133 C 
BRANCH  18  19
ATOM     19  N   UNL     1      -3.828   0.129  24.629  0.00  0.00    -0.185 NA
ATOM     20  C   UNL     1      -4.350   0.655  24.991  0.00  0.00    +0.344 C 
ATOM     21  O   UNL     1      -4.598   0.521  25.766  0.00  0.00    -0.249 OA
ATOM     22  N   UNL     1      -4.624   1.315  24.578  0.00  0.00    -0.161 NA
BRANCH  22  23
ATOM     23  C   UNL     1      -5.146   1.841  24.941  0.00  0.00    +0.075 A 
ATOM     24  C   UNL     1      -5.952   1.669  24.967  0.00  0.00    +0.017 A 
ATOM     25  C   UNL     1      -6.475   2.195  25.330  0.00  0.00    +0.001 A 
ATOM     26  C   UNL     1      -6.190   2.893  25.667  0.00  0.00    +0.000 A 
ATOM     27  C   UNL     1      -5.384   3.064  25.641  0.00  0.00    +0.001 A 
ATOM     28  C   UNL     1      -4.862   2.538  25.278  0.00  0.00    +0.017 A 
ENDBRANCH  22  23
ENDBRANCH  18  19
ENDBRANCH  17  18
TORSDOF 7
ENDMDL
