MODEL 1
REMARK VINA RESULT:     -11.4      0.000      0.000
REMARK  Name = 
REMARK  9 active torsions:
REMARK  status: ('A' for Active; 'I' for Inactive)
REMARK    1  A    between atoms: O_2  and  C_3
REMARK    2  A    between atoms: C_3  and  C_4
REMARK    3  A    between atoms: C_4  and  N_5
REMARK    4  A    between atoms: N_5  and  C_6
REMARK    5  A    between atoms: C_7  and  C_12
REMARK    6  A    between atoms: C_15  and  C_17
REMARK    7  A    between atoms: N_21  and  C_22
REMARK    8  A    between atoms: C_22  and  C_23
REMARK    9  A    between atoms: C_26  and  N_29
REMARK                            x       y       z     vdW  Elec       q    Type
REMARK                         _______ _______ _______ _____ _____    ______ ____
ROOT
ATOM     12  C   UNL     1      -2.862   3.280  24.547  0.00  0.00    +0.206 A 
ATOM     13  N   UNL     1      -3.219   3.269  23.802  0.00  0.00    -0.056 NA
ATOM     14  O   UNL     1      -3.867   2.759  23.838  0.00  0.00    -0.336 OA
ATOM     15  C   UNL     1      -3.910   2.455  24.604  0.00  0.00    +0.251 A 
ATOM     16  N   UNL     1      -3.289   2.778  25.042  0.00  0.00    -0.190 NA
ENDROOT
BRANCH  12   7
ATOM      6  C   UNL     1      -1.442   3.396  24.657  0.00  0.00    +0.151 A 
ATOM      7  C   UNL     1      -2.195   3.718  24.758  0.00  0.00    +0.072 A 
ATOM      8  C   UNL     1      -2.282   4.476  25.070  0.00  0.00    +0.008 A 
ATOM      9  C   UNL     1      -1.615   4.913  25.282  0.00  0.00    +0.021 A 
ATOM     10  C   UNL     1      -0.862   4.593  25.181  0.00  0.00    +0.100 A 
ATOM     11  N   UNL     1      -0.775   3.833  24.868  0.00  0.00    -0.228 NA
BRANCH   6   5
ATOM      5  N   UNL     1      -1.356   2.638  24.344  0.00  0.00    -0.218 NA
BRANCH   5   4
ATOM      4  C   UNL     1      -0.616   2.272  24.347  0.00  0.00    +0.146 C 
BRANCH   4   3
ATOM      3  C   UNL     1      -0.500   1.573  23.926  0.00  0.00    +0.166 C 
BRANCH   3   2
ATOM      1  C   UNL     1      -0.022   0.228  23.867  0.00  0.00    +0.174 C 
ATOM      2  O   UNL     1      -0.148   0.923  24.292  0.00  0.00    -0.349 OA
ENDBRANCH   3   2
ENDBRANCH   4   3
ENDBRANCH   5   4
ENDBRANCH   6   5
ENDBRANCH  12   7
BRANCH  15  17
ATOM     17  C   UNL     1      -4.475   1.923  24.883  0.00  0.00    +0.138 C 
ATOM     18  C   UNL     1      -5.154   2.117  25.311  0.00  0.00    +0.027 C 
ATOM     19  C   UNL     1      -5.559   1.417  25.477  0.00  0.00    +0.019 C 
ATOM     20  C   UNL     1      -5.131   0.791  25.151  0.00  0.00    +0.073 C 
ATOM     21  N   UNL     1      -4.461   1.104  24.784  0.00  0.00    -0.263 NA
BRANCH  21  22
ATOM     22  C   UNL     1      -3.879   0.674  24.389  0.00  0.00    +0.099 C 
BRANCH  22  23
ATOM     23  C   UNL     1      -3.827  -0.143  24.494  0.00  0.00    -0.006 A 
ATOM     24  C   UNL     1      -4.178  -0.653  23.949  0.00  0.00    -0.001 A 
ATOM     25  C   UNL     1      -4.126  -1.469  24.054  0.00  0.00    +0.024 A 
ATOM     26  C   UNL     1      -3.722  -1.776  24.705  0.00  0.00    +0.143 A 
ATOM     27  C   UNL     1      -3.370  -1.266  25.250  0.00  0.00    +0.024 A 
ATOM     28  C   UNL     1      -3.423  -0.449  25.145  0.00  0.00    -0.001 A 
BRANCH  26  29
ATOM     29  N   UNL     1      -3.669  -2.593  24.810  0.00  0.00    +0.058 N 
ATOM     30  O   UNL     1      -3.457  -2.900  25.546  0.00  0.00    -0.126 OA
ATOM     31  O   UNL     1      -3.828  -3.102  24.180  0.00  0.00    -0.126 OA
ENDBRANCH  26  29
ENDBRANCH  22  23
ENDBRANCH  21  22
ENDBRANCH  15  17
TORSDOF 9
ENDMDL
MODEL 2
REMARK VINA RESULT:     -10.4      1.137      2.986
REMARK  Name = 
REMARK  9 active torsions:
REMARK  status: ('A' for Active; 'I' for Inactive)
REMARK    1  A    between atoms: O_2  and  C_3
REMARK    2  A    between atoms: C_3  and  C_4
REMARK    3  A    between atoms: C_4  and  N_5
REMARK    4  A    between atoms: N_5  and  C_6
REMARK    5  A    between atoms: C_7  and  C_12
REMARK    6  A    between atoms: C_15  and  C_17
REMARK    7  A    between atoms: N_21  and  C_22
REMARK    8  A    between atoms: C_22  and  C_23
REMARK    9  A    between atoms: C_26  and  N_29
REMARK                            x       y       z     vdW  Elec       q    Type
REMARK                         _______ _______ _______ _____ _____    ______ ____
ROOT
ATOM     12  C   UNL     1      -1.110   2.846  25.370  0.00  0.00    +0.206 A 
ATOM     13  N   UNL     1      -0.971   2.468  26.090  0.00  0.00    -0.056 NA
ATOM     14  O   UNL     1      -0.788   1.678  25.932  0.00  0.00    -0.336 OA
ATOM     15  C   UNL     1      -0.814   1.569  25.115  0.00  0.00    +0.251 A 
ATOM     16  N   UNL     1      -1.013   2.291  24.768  0.00  0.00    -0.190 NA
ENDROOT
BRANCH  12   7
ATOM      6  C   UNL     1      -2.101   3.873  25.304  0.00  0.00    +0.151 A 
ATOM      7  C   UNL     1      -1.310   3.640  25.271  0.00  0.00    +0.072 A 
ATOM      8  C   UNL     1      -0.720   4.201  25.138  0.00  0.00    +0.008 A 
ATOM      9  C   UNL     1      -0.920   4.995  25.039  0.00  0.00    +0.021 A 
ATOM     10  C   UNL     1      -1.711   5.229  25.072  0.00  0.00    +0.100 A 
ATOM     11  N   UNL     1      -2.301   4.667  25.205  0.00  0.00    -0.228 NA
BRANCH   6   5
ATOM      5  N   UNL     1      -2.691   3.313  25.437  0.00  0.00    -0.218 NA
BRANCH   5   4
ATOM      4  C   UNL     1      -3.484   3.513  25.325  0.00  0.00    +0.146 C 
BRANCH   4   3
ATOM      3  C   UNL     1      -4.079   3.011  25.597  0.00  0.00    +0.166 C 
BRANCH   3   2
ATOM      1  C   UNL     1      -5.368   2.428  25.400  0.00  0.00    +0.174 C 
ATOM      2  O   UNL     1      -4.690   2.783  25.093  0.00  0.00    -0.349 OA
ENDBRANCH   3   2
ENDBRANCH   4   3
ENDBRANCH   5   4
ENDBRANCH   6   5
ENDBRANCH  12   7
BRANCH  15  17
ATOM     17  C   UNL     1      -0.668   0.863  24.715  0.00  0.00    +0.138 C 
ATOM     18  C   UNL     1      -0.008   0.700  24.246  0.00  0.00    +0.027 C 
ATOM     19  C   UNL     1      -0.088  -0.069  23.954  0.00  0.00    +0.019 C 
ATOM     20  C   UNL     1      -0.795  -0.379  24.243  0.00  0.00    +0.073 C 
ATOM     21  N   UNL     1      -1.154   0.197  24.713  0.00  0.00    -0.263 NA
BRANCH  21  22
ATOM     22  C   UNL     1      -1.872   0.119  25.110  0.00  0.00    +0.099 C 
BRANCH  22  23
ATOM     23  C   UNL     1      -2.403  -0.472  24.891  0.00  0.00    -0.006 A 
ATOM     24  C   UNL     1      -2.974  -0.321  24.314  0.00  0.00    -0.001 A 
ATOM     25  C   UNL     1      -3.505  -0.912  24.094  0.00  0.00    +0.024 A 
ATOM     26  C   UNL     1      -3.467  -1.654  24.452  0.00  0.00    +0.143 A 
ATOM     27  C   UNL     1      -2.898  -1.806  25.029  0.00  0.00    +0.024 A 
ATOM     28  C   UNL     1      -2.366  -1.214  25.249  0.00  0.00    -0.001 A 
BRANCH  26  29
ATOM     29  N   UNL     1      -3.999  -2.246  24.232  0.00  0.00    +0.058 N 
ATOM     30  O   UNL     1      -3.817  -3.038  24.377  0.00  0.00    -0.126 OA
ATOM     31  O   UNL     1      -4.713  -2.046  23.869  0.00  0.00    -0.126 OA
ENDBRANCH  26  29
ENDBRANCH  22  23
ENDBRANCH  21  22
ENDBRANCH  15  17
TORSDOF 9
ENDMDL
MODEL 3
REMARK VINA RESULT:     -10.3      1.609      5.614
REMARK  Name = 
REMARK  9 active torsions:
REMARK  status: ('A' for Active; 'I' for Inactive)
REMARK    1  A    between atoms: O_2  and  C_3
REMARK    2  A    between atoms: C_3  and  C_4
REMARK    3  A    between atoms: C_4  and  N_5
REMARK    4  A    between atoms: N_5  and  C_6
REMARK    5  A    between atoms: C_7  and  C_12
REMARK    6  A    between atoms: C_15  and  C_17
REMARK    7  A    between atoms: N_21  and  C_22
REMARK    8  A    between atoms: C_22  and  C_23
REMARK    9  A    between atoms: C_26  and  N_29
REMARK                            x       y       z     vdW  Elec       q    Type
REMARK                         _______ _______ _______ _____ _____    ______ ____
ROOT
ATOM     12  C   UNL     1      -2.289  -0.938  24.854  0.00  0.00    +0.206 A 
ATOM     13  N   UNL     1      -1.982  -0.905  25.620  0.00  0.00    -0.056 NA
ATOM     14  O   UNL     1      -1.329  -0.400  25.611  0.00  0.00    -0.336 OA
ATOM     15  C   UNL     1      -1.232  -0.121  24.840  0.00  0.00    +0.251 A 
ATOM     16  N   UNL     1      -1.826  -0.454  24.373  0.00  0.00    -0.190 NA
ENDROOT
BRANCH  12   7
ATOM      6  C   UNL     1      -3.687  -1.021  24.571  0.00  0.00    +0.151 A 
ATOM      7  C   UNL     1      -2.944  -1.377  24.613  0.00  0.00    +0.072 A 
ATOM      8  C   UNL     1      -2.856  -2.173  24.414  0.00  0.00    +0.008 A 
ATOM      9  C   UNL     1      -3.511  -2.612  24.173  0.00  0.00    +0.021 A 
ATOM     10  C   UNL     1      -4.254  -2.257  24.131  0.00  0.00    +0.100 A 
ATOM     11  N   UNL     1      -4.342  -1.460  24.330  0.00  0.00    -0.228 NA
BRANCH   6   5
ATOM      5  N   UNL     1      -3.775  -0.225  24.770  0.00  0.00    -0.218 NA
BRANCH   5   4
ATOM      4  C   UNL     1      -4.498   0.153  24.649  0.00  0.00    +0.146 C 
BRANCH   4   3
ATOM      3  C   UNL     1      -4.673   0.849  25.055  0.00  0.00    +0.166 C 
BRANCH   3   2
ATOM      1  C   UNL     1      -5.365   2.099  25.096  0.00  0.00    +0.174 C 
ATOM      2  O   UNL     1      -5.043   1.474  24.664  0.00  0.00    -0.349 OA
ENDBRANCH   3   2
ENDBRANCH   4   3
ENDBRANCH   5   4
ENDBRANCH   6   5
ENDBRANCH  12   7
BRANCH  15  17
ATOM     17  C   UNL     1      -0.646   0.398  24.582  0.00  0.00    +0.138 C 
ATOM     18  C   UNL     1      -0.022   0.212  24.075  0.00  0.00    +0.027 C 
ATOM     19  C   UNL     1       0.429   0.894  23.965  0.00  0.00    +0.019 C 
ATOM     20  C   UNL     1       0.085   1.501  24.404  0.00  0.00    +0.073 C 
ATOM     21  N   UNL     1      -0.580   1.195  24.786  0.00  0.00    -0.263 NA
BRANCH  21  22
ATOM     22  C   UNL     1      -1.089   1.612  25.283  0.00  0.00    +0.099 C 
BRANCH  22  23
ATOM     23  C   UNL     1      -1.122   2.435  25.243  0.00  0.00    -0.006 A 
ATOM     24  C   UNL     1      -0.635   2.892  25.728  0.00  0.00    -0.001 A 
ATOM     25  C   UNL     1      -0.667   3.715  25.689  0.00  0.00    +0.024 A 
ATOM     26  C   UNL     1      -1.187   4.082  25.164  0.00  0.00    +0.143 A 
ATOM     27  C   UNL     1      -1.674   3.626  24.679  0.00  0.00    +0.024 A 
ATOM     28  C   UNL     1      -1.641   2.802  24.719  0.00  0.00    -0.001 A 
BRANCH  26  29
ATOM     29  N   UNL     1      -1.220   4.906  25.124  0.00  0.00    +0.058 N 
ATOM     30  O   UNL     1      -0.612   5.325  24.757  0.00  0.00    -0.126 OA
ATOM     31  O   UNL     1      -1.862   5.310  25.451  0.00  0.00    -0.126 OA
ENDBRANCH  26  29
ENDBRANCH  22  23
ENDBRANCH  21  22
ENDBRANCH  15  17
TORSDOF 9
ENDMDL
MODEL 4
REMARK VINA RESULT:     -10.2      1.515      4.831
REMARK  Name = 
REMARK  9 active torsions:
REMARK  status: ('A' for Active; 'I' for Inactive)
REMARK    1  A    between atoms: O_2  and  C_3
REMARK    2  A    between atoms: C_3  and  C_4
REMARK    3  A    between atoms: C_4  and  N_5
REMARK    4  A    between atoms: N_5  and  C_6
REMARK    5  A    between atoms: C_7  and  C_12
REMARK    6  A    between atoms: C_15  and  C_17
REMARK    7  A    between atoms: N_21  and  C_22
REMARK    8  A    between atoms: C_22  and  C_23
REMARK    9  A    between atoms: C_26  and  N_29
REMARK                            x       y       z     vdW  Elec       q    Type
REMARK                         _______ _______ _______ _____ _____    ______ ____
ROOT
ATOM     12  C   UNL     1      -3.619  -0.561  24.246  0.00  0.00    +0.206 A 
ATOM     13  N   UNL     1      -3.603  -0.185  23.512  0.00  0.00    -0.056 NA
ATOM     14  O   UNL     1      -3.840   0.599  23.622  0.00  0.00    -0.336 OA
ATOM     15  C   UNL     1      -4.002   0.706  24.423  0.00  0.00    +0.251 A 
ATOM     16  N   UNL     1      -3.865  -0.011  24.809  0.00  0.00    -0.190 NA
ENDROOT
BRANCH  12   7
ATOM      6  C   UNL     1      -2.636  -1.561  24.521  0.00  0.00    +0.151 A 
ATOM      7  C   UNL     1      -3.423  -1.349  24.391  0.00  0.00    +0.072 A 
ATOM      8  C   UNL     1      -4.014  -1.924  24.407  0.00  0.00    +0.008 A 
ATOM      9  C   UNL     1      -3.818  -2.712  24.552  0.00  0.00    +0.021 A 
ATOM     10  C   UNL     1      -3.032  -2.926  24.682  0.00  0.00    +0.100 A 
ATOM     11  N   UNL     1      -2.441  -2.349  24.666  0.00  0.00    -0.228 NA
BRANCH   6   5
ATOM      5  N   UNL     1      -2.046  -0.986  24.505  0.00  0.00    -0.218 NA
BRANCH   5   4
ATOM      4  C   UNL     1      -1.252  -1.209  24.524  0.00  0.00    +0.146 C 
BRANCH   4   3
ATOM      3  C   UNL     1      -0.662  -0.633  24.554  0.00  0.00    +0.166 C 
BRANCH   3   2
ATOM      1  C   UNL     1       0.297   0.034  23.731  0.00  0.00    +0.174 C 
ATOM      2  O   UNL     1      -0.028  -0.663  24.027  0.00  0.00    -0.349 OA
ENDBRANCH   3   2
ENDBRANCH   4   3
ENDBRANCH   5   4
ENDBRANCH   6   5
ENDBRANCH  12   7
BRANCH  15  17
ATOM     17  C   UNL     1      -4.255   1.406  24.777  0.00  0.00    +0.138 C 
ATOM     18  C   UNL     1      -5.028   1.580  25.010  0.00  0.00    +0.027 C 
ATOM     19  C   UNL     1      -5.031   2.338  25.338  0.00  0.00    +0.019 C 
ATOM     20  C   UNL     1      -4.261   2.631  25.308  0.00  0.00    +0.073 C 
ATOM     21  N   UNL     1      -3.782   2.056  24.962  0.00  0.00    -0.263 NA
BRANCH  21  22
ATOM     22  C   UNL     1      -2.971   2.120  24.824  0.00  0.00    +0.099 C 
BRANCH  22  23
ATOM     23  C   UNL     1      -2.593   2.847  24.914  0.00  0.00    -0.006 A 
ATOM     24  C   UNL     1      -2.137   2.995  25.586  0.00  0.00    -0.001 A 
ATOM     25  C   UNL     1      -1.759   3.722  25.676  0.00  0.00    +0.024 A 
ATOM     26  C   UNL     1      -1.836   4.302  25.095  0.00  0.00    +0.143 A 
ATOM     27  C   UNL     1      -2.292   4.155  24.423  0.00  0.00    +0.024 A 
ATOM     28  C   UNL     1      -2.670   3.427  24.333  0.00  0.00    -0.001 A 
BRANCH  26  29
ATOM     29  N   UNL     1      -1.458   5.030  25.185  0.00  0.00    +0.058 N 
ATOM     30  O   UNL     1      -1.871   5.673  25.495  0.00  0.00    -0.126 OA
ATOM     31  O   UNL     1      -0.667   5.115  24.964  0.00  0.00    -0.126 OA
ENDBRANCH  26  29
ENDBRANCH  22  23
ENDBRANCH  21  22
ENDBRANCH  15  17
TORSDOF 9
ENDMDL
MODEL 5
REMARK VINA RESULT:      -9.5      1.815      4.480
REMARK  Name = 
REMARK  9 active torsions:
REMARK  status: ('A' for Active; 'I' for Inactive)
REMARK    1  A    between atoms: O_2  and  C_3
REMARK    2  A    between atoms: C_3  and  C_4
REMARK    3  A    between atoms: C_4  and  N_5
REMARK    4  A    between atoms: N_5  and  C_6
REMARK    5  A    between atoms: C_7  and  C_12
REMARK    6  A    between atoms: C_15  and  C_17
REMARK    7  A    between atoms: N_21  and  C_22
REMARK    8  A    between atoms: C_22  and  C_23
REMARK    9  A    between atoms: C_26  and  N_29
REMARK                            x       y       z     vdW  Elec       q    Type
REMARK                         _______ _______ _______ _____ _____    ______ ____
ROOT
ATOM     12  C   UNL     1      -0.024   1.866  24.701  0.00  0.00    +0.206 A 
ATOM     13  N   UNL     1       0.203   1.995  25.484  0.00  0.00    -0.056 NA
ATOM     14  O   UNL     1      -0.126   2.710  25.731  0.00  0.00    -0.336 OA
ATOM     15  C   UNL     1      -0.556   3.024  25.100  0.00  0.00    +0.251 A 
ATOM     16  N   UNL     1      -0.493   2.502  24.464  0.00  0.00    -0.190 NA
ENDROOT
BRANCH  12   7
ATOM      6  C   UNL     1      -0.245   0.513  24.300  0.00  0.00    +0.151 A 
ATOM      7  C   UNL     1       0.182   1.216  24.237  0.00  0.00    +0.072 A 
ATOM      8  C   UNL     1       0.815   1.269  23.711  0.00  0.00    +0.008 A 
ATOM      9  C   UNL     1       1.021   0.618  23.247  0.00  0.00    +0.021 A 
ATOM     10  C   UNL     1       0.595  -0.085  23.309  0.00  0.00    +0.100 A 
ATOM     11  N   UNL     1      -0.039  -0.138  23.836  0.00  0.00    -0.228 NA
BRANCH   6   5
ATOM      5  N   UNL     1      -0.877   0.460  24.826  0.00  0.00    -0.218 NA
BRANCH   5   4
ATOM      4  C   UNL     1      -1.372  -0.201  24.812  0.00  0.00    +0.146 C 
BRANCH   4   3
ATOM      3  C   UNL     1      -1.903  -0.332  25.429  0.00  0.00    +0.166 C 
BRANCH   3   2
ATOM      1  C   UNL     1      -3.153  -0.972  25.694  0.00  0.00    +0.174 C 
ATOM      2  O   UNL     1      -2.708  -0.423  25.270  0.00  0.00    -0.349 OA
ENDBRANCH   3   2
ENDBRANCH   4   3
ENDBRANCH   5   4
ENDBRANCH   6   5
ENDBRANCH  12   7
BRANCH  15  17
ATOM     17  C   UNL     1      -0.975   3.734  25.104  0.00  0.00    +0.138 C 
ATOM     18  C   UNL     1      -0.689   4.468  24.857  0.00  0.00    +0.027 C 
ATOM     19  C   UNL     1      -1.292   5.023  24.956  0.00  0.00    +0.019 C 
ATOM     20  C   UNL     1      -1.950   4.632  25.265  0.00  0.00    +0.073 C 
ATOM     21  N   UNL     1      -1.754   3.836  25.357  0.00  0.00    -0.263 NA
BRANCH  21  22
ATOM     22  C   UNL     1      -2.250   3.246  25.649  0.00  0.00    +0.099 C 
BRANCH  22  23
ATOM     23  C   UNL     1      -3.069   3.339  25.614  0.00  0.00    -0.006 A 
ATOM     24  C   UNL     1      -3.491   3.042  24.969  0.00  0.00    -0.001 A 
ATOM     25  C   UNL     1      -4.309   3.136  24.934  0.00  0.00    +0.024 A 
ATOM     26  C   UNL     1      -4.707   3.527  25.542  0.00  0.00    +0.143 A 
ATOM     27  C   UNL     1      -4.286   3.824  26.186  0.00  0.00    +0.024 A 
ATOM     28  C   UNL     1      -3.466   3.730  26.221  0.00  0.00    -0.001 A 
BRANCH  26  29
ATOM     29  N   UNL     1      -5.526   3.621  25.506  0.00  0.00    +0.058 N 
ATOM     30  O   UNL     1      -6.009   2.968  25.362  0.00  0.00    -0.126 OA
ATOM     31  O   UNL     1      -5.861   4.367  25.615  0.00  0.00    -0.126 OA
ENDBRANCH  26  29
ENDBRANCH  22  23
ENDBRANCH  21  22
ENDBRANCH  15  17
TORSDOF 9
ENDMDL
MODEL 6
REMARK VINA RESULT:      -9.1      1.611      3.540
REMARK  Name = 
REMARK  9 active torsions:
REMARK  status: ('A' for Active; 'I' for Inactive)
REMARK    1  A    between atoms: O_2  and  C_3
REMARK    2  A    between atoms: C_3  and  C_4
REMARK    3  A    between atoms: C_4  and  N_5
REMARK    4  A    between atoms: N_5  and  C_6
REMARK    5  A    between atoms: C_7  and  C_12
REMARK    6  A    between atoms: C_15  and  C_17
REMARK    7  A    between atoms: N_21  and  C_22
REMARK    8  A    between atoms: C_22  and  C_23
REMARK    9  A    between atoms: C_26  and  N_29
REMARK                            x       y       z     vdW  Elec       q    Type
REMARK                         _______ _______ _______ _____ _____    ______ ____
ROOT
ATOM     12  C   UNL     1      -3.329   2.964  24.960  0.00  0.00    +0.206 A 
ATOM     13  N   UNL     1      -2.998   3.180  24.235  0.00  0.00    -0.056 NA
ATOM     14  O   UNL     1      -2.185   3.042  24.275  0.00  0.00    -0.336 OA
ATOM     15  C   UNL     1      -2.014   2.741  25.023  0.00  0.00    +0.251 A 
ATOM     16  N   UNL     1      -2.721   2.692  25.447  0.00  0.00    -0.190 NA
ENDROOT
BRANCH  12   7
ATOM      6  C   UNL     1      -4.619   2.358  25.051  0.00  0.00    +0.151 A 
ATOM      7  C   UNL     1      -4.127   3.011  25.162  0.00  0.00    +0.072 A 
ATOM      8  C   UNL     1      -4.433   3.710  25.474  0.00  0.00    +0.008 A 
ATOM      9  C   UNL     1      -5.231   3.757  25.676  0.00  0.00    +0.021 A 
ATOM     10  C   UNL     1      -5.724   3.105  25.565  0.00  0.00    +0.100 A 
ATOM     11  N   UNL     1      -5.418   2.405  25.253  0.00  0.00    -0.228 NA
BRANCH   6   5
ATOM      5  N   UNL     1      -4.314   1.658  24.739  0.00  0.00    -0.218 NA
BRANCH   5   4
ATOM      4  C   UNL     1      -4.758   0.964  24.768  0.00  0.00    +0.146 C 
BRANCH   4   3
ATOM      3  C   UNL     1      -4.553   0.322  24.293  0.00  0.00    +0.166 C 
BRANCH   3   2
ATOM      1  C   UNL     1      -4.349  -1.084  24.141  0.00  0.00    +0.174 C 
ATOM      2  O   UNL     1      -4.468  -0.428  24.626  0.00  0.00    -0.349 OA
ENDBRANCH   3   2
ENDBRANCH   4   3
ENDBRANCH   5   4
ENDBRANCH   6   5
ENDBRANCH  12   7
BRANCH  15  17
ATOM     17  C   UNL     1      -1.267   2.525  25.300  0.00  0.00    +0.138 C 
ATOM     18  C   UNL     1      -0.799   2.961  25.822  0.00  0.00    +0.027 C 
ATOM     19  C   UNL     1      -0.100   2.541  25.949  0.00  0.00    +0.019 C 
ATOM     20  C   UNL     1      -0.136   1.847  25.506  0.00  0.00    +0.073 C 
ATOM     21  N   UNL     1      -0.857   1.837  25.105  0.00  0.00    -0.263 NA
BRANCH  21  22
ATOM     22  C   UNL     1      -1.121   1.242  24.598  0.00  0.00    +0.099 C 
BRANCH  22  23
ATOM     23  C   UNL     1      -0.955   0.452  24.766  0.00  0.00    -0.006 A 
ATOM     24  C   UNL     1      -1.214   0.118  25.475  0.00  0.00    -0.001 A 
ATOM     25  C   UNL     1      -1.048  -0.672  25.643  0.00  0.00    +0.024 A 
ATOM     26  C   UNL     1      -0.624  -1.128  25.103  0.00  0.00    +0.143 A 
ATOM     27  C   UNL     1      -0.365  -0.795  24.394  0.00  0.00    +0.024 A 
ATOM     28  C   UNL     1      -0.531  -0.004  24.226  0.00  0.00    -0.001 A 
BRANCH  26  29
ATOM     29  N   UNL     1      -0.458  -1.919  25.271  0.00  0.00    +0.058 N 
ATOM     30  O   UNL     1       0.227  -2.117  25.687  0.00  0.00    -0.126 OA
ATOM     31  O   UNL     1      -0.976  -2.512  25.023  0.00  0.00    -0.126 OA
ENDBRANCH  26  29
ENDBRANCH  22  23
ENDBRANCH  21  22
ENDBRANCH  15  17
TORSDOF 9
ENDMDL
MODEL 7
REMARK VINA RESULT:      -9.0      1.691      3.852
REMARK  Name = 
REMARK  9 active torsions:
REMARK  status: ('A' for Active; 'I' for Inactive)
REMARK    1  A    between atoms: O_2  and  C_3
REMARK    2  A    between atoms: C_3  and  C_4
REMARK    3  A    between atoms: C_4  and  N_5
REMARK    4  A    between atoms: N_5  and  C_6
REMARK    5  A    between atoms: C_7  and  C_12
REMARK    6  A    between atoms: C_15  and  C_17
REMARK    7  A    between atoms: N_21  and  C_22
REMARK    8  A    between atoms: C_22  and  C_23
REMARK    9  A    between atoms: C_26  and  N_29
REMARK                            x       y       z     vdW  Elec       q    Type
REMARK                         _______ _______ _______ _____ _____    ______ ____
ROOT
ATOM     12  C   UNL     1      -0.790  -0.442  24.379  0.00  0.00    +0.206 A 
ATOM     13  N   UNL     1      -0.796  -0.773  25.135  0.00  0.00    -0.056 NA
ATOM     14  O   UNL     1      -1.558  -1.050  25.286  0.00  0.00    -0.336 OA
ATOM     15  C   UNL     1      -2.023  -0.891  24.623  0.00  0.00    +0.251 A 
ATOM     16  N   UNL     1      -1.548  -0.515  24.063  0.00  0.00    -0.190 NA
ENDROOT
BRANCH  12   7
ATOM      6  C   UNL     1       0.068   0.682  24.174  0.00  0.00    +0.151 A 
ATOM      7  C   UNL     1      -0.140  -0.098  24.005  0.00  0.00    +0.072 A 
ATOM      8  C   UNL     1       0.302  -0.535  23.462  0.00  0.00    +0.008 A 
ATOM      9  C   UNL     1       0.952  -0.191  23.089  0.00  0.00    +0.021 A 
ATOM     10  C   UNL     1       1.161   0.588  23.257  0.00  0.00    +0.100 A 
ATOM     11  N   UNL     1       0.719   1.025  23.800  0.00  0.00    -0.228 NA
BRANCH   6   5
ATOM      5  N   UNL     1      -0.373   1.119  24.717  0.00  0.00    -0.218 NA
BRANCH   5   4
ATOM      4  C   UNL     1      -0.230   1.926  24.811  0.00  0.00    +0.146 C 
BRANCH   4   3
ATOM      3  C   UNL     1      -0.610   2.345  25.411  0.00  0.00    +0.166 C 
BRANCH   3   2
ATOM      1  C   UNL     1      -1.408   3.454  25.832  0.00  0.00    +0.174 C 
ATOM      2  O   UNL     1      -1.003   3.050  25.238  0.00  0.00    -0.349 OA
ENDBRANCH   3   2
ENDBRANCH   4   3
ENDBRANCH   5   4
ENDBRANCH   6   5
ENDBRANCH  12   7
BRANCH  15  17
ATOM     17  C   UNL     1      -2.823  -1.074  24.536  0.00  0.00    +0.138 C 
ATOM     18  C   UNL     1      -3.128  -1.780  24.235  0.00  0.00    +0.027 C 
ATOM     19  C   UNL     1      -3.952  -1.727  24.247  0.00  0.00    +0.019 C 
ATOM     20  C   UNL     1      -4.155  -0.989  24.555  0.00  0.00    +0.073 C 
ATOM     21  N   UNL     1      -3.457  -0.586  24.734  0.00  0.00    -0.263 NA
BRANCH  21  22
ATOM     22  C   UNL     1      -3.404   0.172  25.054  0.00  0.00    +0.099 C 
BRANCH  22  23
ATOM     23  C   UNL     1      -4.060   0.672  25.042  0.00  0.00    -0.006 A 
ATOM     24  C   UNL     1      -4.114   1.268  24.474  0.00  0.00    -0.001 A 
ATOM     25  C   UNL     1      -4.770   1.768  24.462  0.00  0.00    +0.024 A 
ATOM     26  C   UNL     1      -5.372   1.672  25.018  0.00  0.00    +0.143 A 
ATOM     27  C   UNL     1      -5.319   1.077  25.586  0.00  0.00    +0.024 A 
ATOM     28  C   UNL     1      -4.662   0.576  25.598  0.00  0.00    -0.001 A 
BRANCH  26  29
ATOM     29  N   UNL     1      -6.029   2.173  25.006  0.00  0.00    +0.058 N 
ATOM     30  O   UNL     1      -5.973   2.933  25.322  0.00  0.00    -0.126 OA
ATOM     31  O   UNL     1      -6.740   1.912  24.678  0.00  0.00    -0.126 OA
ENDBRANCH  26  29
ENDBRANCH  22  23
ENDBRANCH  21  22
ENDBRANCH  15  17
TORSDOF 9
ENDMDL
MODEL 8
REMARK VINA RESULT:      -8.8      1.763      4.293
REMARK  Name = 
REMARK  9 active torsions:
REMARK  status: ('A' for Active; 'I' for Inactive)
REMARK    1  A    between atoms: O_2  and  C_3
REMARK    2  A    between atoms: C_3  and  C_4
REMARK    3  A    between atoms: C_4  and  N_5
REMARK    4  A    between atoms: N_5  and  C_6
REMARK    5  A    between atoms: C_7  and  C_12
REMARK    6  A    between atoms: C_15  and  C_17
REMARK    7  A    between atoms: N_21  and  C_22
REMARK    8  A    between atoms: C_22  and  C_23
REMARK    9  A    between atoms: C_26  and  N_29
REMARK                            x       y       z     vdW  Elec       q    Type
REMARK                         _______ _______ _______ _____ _____    ______ ____
ROOT
ATOM     12  C   UNL     1      -3.816   1.264  24.731  0.00  0.00    +0.206 A 
ATOM     13  N   UNL     1      -3.737   0.983  23.959  0.00  0.00    -0.056 NA
ATOM     14  O   UNL     1      -3.092   0.469  23.939  0.00  0.00    -0.336 OA
ATOM     15  C   UNL     1      -2.773   0.431  24.699  0.00  0.00    +0.251 A 
ATOM     16  N   UNL     1      -3.221   0.922  25.188  0.00  0.00    -0.190 NA
ENDROOT
BRANCH  12   7
ATOM      6  C   UNL     1      -4.200   2.588  25.104  0.00  0.00    +0.151 A 
ATOM      7  C   UNL     1      -4.390   1.792  24.998  0.00  0.00    +0.072 A 
ATOM      8  C   UNL     1      -5.153   1.525  25.160  0.00  0.00    +0.008 A 
ATOM      9  C   UNL     1      -5.727   2.054  25.427  0.00  0.00    +0.021 A 
ATOM     10  C   UNL     1      -5.538   2.850  25.533  0.00  0.00    +0.100 A 
ATOM     11  N   UNL     1      -4.774   3.117  25.371  0.00  0.00    -0.228 NA
BRANCH   6   5
ATOM      5  N   UNL     1      -3.437   2.856  24.943  0.00  0.00    -0.218 NA
BRANCH   5   4
ATOM      4  C   UNL     1      -3.228   3.636  25.110  0.00  0.00    +0.146 C 
BRANCH   4   3
ATOM      3  C   UNL     1      -2.470   3.907  24.935  0.00  0.00    +0.166 C 
BRANCH   3   2
ATOM      1  C   UNL     1      -1.416   4.851  25.137  0.00  0.00    +0.174 C 
ATOM      2  O   UNL     1      -2.165   4.565  25.329  0.00  0.00    -0.349 OA
ENDBRANCH   3   2
ENDBRANCH   4   3
ENDBRANCH   5   4
ENDBRANCH   6   5
ENDBRANCH  12   7
BRANCH  15  17
ATOM     17  C   UNL     1      -2.121  -0.019  24.930  0.00  0.00    +0.138 C 
ATOM     18  C   UNL     1      -2.124  -0.624  25.491  0.00  0.00    +0.027 C 
ATOM     19  C   UNL     1      -1.356  -0.922  25.548  0.00  0.00    +0.019 C 
ATOM     20  C   UNL     1      -0.880  -0.501  25.023  0.00  0.00    +0.073 C 
ATOM     21  N   UNL     1      -1.353   0.057  24.641  0.00  0.00    -0.263 NA
BRANCH  21  22
ATOM     22  C   UNL     1      -1.100   0.596  24.070  0.00  0.00    +0.099 C 
BRANCH  22  23
ATOM     23  C   UNL     1      -0.316   0.590  23.814  0.00  0.00    -0.006 A 
ATOM     24  C   UNL     1      -0.055  -0.000  23.299  0.00  0.00    -0.001 A 
ATOM     25  C   UNL     1       0.729  -0.006  23.044  0.00  0.00    +0.024 A 
ATOM     26  C   UNL     1       1.252   0.577  23.302  0.00  0.00    +0.143 A 
ATOM     27  C   UNL     1       0.991   1.167  23.816  0.00  0.00    +0.024 A 
ATOM     28  C   UNL     1       0.207   1.173  24.072  0.00  0.00    -0.001 A 
BRANCH  26  29
ATOM     29  N   UNL     1       2.037   0.570  23.046  0.00  0.00    +0.058 N 
ATOM     30  O   UNL     1       2.288   0.002  22.503  0.00  0.00    -0.126 OA
ATOM     31  O   UNL     1       2.569   1.132  23.333  0.00  0.00    -0.126 OA
ENDBRANCH  26  29
ENDBRANCH  22  23
ENDBRANCH  21  22
ENDBRANCH  15  17
TORSDOF 9
ENDMDL
