MODEL 1
REMARK VINA RESULT:      -8.9      0.000      0.000
REMARK  Name = 
REMARK  5 active torsions:
REMARK  status: ('A' for Active; 'I' for Inactive)
REMARK    1  A    between atoms: O_2  and  C_3
REMARK    2  A    between atoms: C_6  and  C_9
REMARK    3  A    between atoms: N_14  and  C_15
REMARK    4  A    between atoms: C_19  and  N_23
REMARK    5  A    between atoms: C_24  and  C_26
REMARK                            x       y       z     vdW  Elec       q    Type
REMARK                         _______ _______ _______ _____ _____    ______ ____
ROOT
ATOM      9  C   UNL     1       0.817   0.212  23.439  0.00  0.00    +0.086 A 
ATOM     10  C   UNL     1       0.518  -0.543  23.583  0.00  0.00    +0.040 A 
ATOM     11  C   UNL     1      -0.228  -0.633  23.924  0.00  0.00    +0.103 A 
ATOM     12  N   UNL     1      -0.675   0.031  24.122  0.00  0.00    -0.211 NA
ATOM     13  C   UNL     1      -0.375   0.787  23.977  0.00  0.00    +0.237 A 
ATOM     14  N   UNL     1      -0.822   1.452  24.175  0.00  0.00    -0.200 NA
ATOM     30  N   UNL     1       0.370   0.877  23.636  0.00  0.00    -0.212 NA
ENDROOT
BRANCH  14  15
ATOM     15  C   UNL     1      -1.568   1.361  24.516  0.00  0.00    +0.154 C 
ATOM     16  C   UNL     1      -1.752   0.878  25.159  0.00  0.00    +0.166 C 
ATOM     17  O   UNL     1      -2.558   0.956  25.314  0.00  0.00    -0.350 OA
ATOM     18  C   UNL     1      -2.873   1.488  24.769  0.00  0.00    +0.166 C 
ATOM     19  C   UNL     1      -3.565   1.866  24.527  0.00  0.00    +0.154 C 
ATOM     20  C   UNL     1      -3.382   2.349  23.885  0.00  0.00    +0.166 C 
ATOM     21  O   UNL     1      -2.576   2.271  23.729  0.00  0.00    -0.350 OA
ATOM     22  C   UNL     1      -2.261   1.738  24.276  0.00  0.00    +0.166 C 
BRANCH  19  23
ATOM     23  N   UNL     1      -4.311   1.775  24.869  0.00  0.00    -0.202 NA
ATOM     24  C   UNL     1      -4.818   2.423  24.930  0.00  0.00    +0.241 C 
ATOM     25  O   UNL     1      -4.580   3.161  24.650  0.00  0.00    -0.273 OA
BRANCH  24  26
ATOM     26  C   UNL     1      -5.563   2.333  25.271  0.00  0.00    +0.071 C 
ATOM     27  C   UNL     1      -6.309   2.243  25.613  0.00  0.00    +0.009 C 
ATOM     28  C   UNL     1      -5.740   1.738  24.728  0.00  0.00    +0.009 C 
ATOM     29  C   UNL     1      -5.386   2.928  25.815  0.00  0.00    +0.009 C 
ENDBRANCH  24  26
ENDBRANCH  19  23
ENDBRANCH  14  15
BRANCH   9   6
ATOM      3  C   UNL     1       3.054   0.483  22.414  0.00  0.00    +0.139 A 
ATOM      4  C   UNL     1       2.514  -0.052  22.092  0.00  0.00    +0.037 A 
ATOM      5  C   UNL     1       1.769  -0.142  22.434  0.00  0.00    +0.005 A 
ATOM      6  C   UNL     1       1.562   0.303  23.097  0.00  0.00    +0.018 A 
ATOM      7  C   UNL     1       2.101   0.838  23.419  0.00  0.00    +0.005 A 
ATOM      8  C   UNL     1       2.847   0.928  23.078  0.00  0.00    +0.037 A 
BRANCH   3   2
ATOM      1  C   UNL     1       4.472   0.582  22.550  0.00  0.00    +0.252 C 
ATOM      2  O   UNL     1       3.799   0.574  22.073  0.00  0.00    -0.471 OA
ENDBRANCH   3   2
ENDBRANCH   9   6
TORSDOF 5
ENDMDL
MODEL 2
REMARK VINA RESULT:      -8.7      1.424      6.715
REMARK  Name = 
REMARK  5 active torsions:
REMARK  status: ('A' for Active; 'I' for Inactive)
REMARK    1  A    between atoms: O_2  and  C_3
REMARK    2  A    between atoms: C_6  and  C_9
REMARK    3  A    between atoms: N_14  and  C_15
REMARK    4  A    between atoms: C_19  and  N_23
REMARK    5  A    between atoms: C_24  and  C_26
REMARK                            x       y       z     vdW  Elec       q    Type
REMARK                         _______ _______ _______ _____ _____    ______ ____
ROOT
ATOM      9  C   UNL     1      -2.846   2.741  24.822  0.00  0.00    +0.086 A 
ATOM     10  C   UNL     1      -2.480   3.480  24.827  0.00  0.00    +0.040 A 
ATOM     11  C   UNL     1      -1.661   3.535  24.743  0.00  0.00    +0.103 A 
ATOM     12  N   UNL     1      -1.208   2.851  24.653  0.00  0.00    -0.211 NA
ATOM     13  C   UNL     1      -1.575   2.112  24.648  0.00  0.00    +0.237 A 
ATOM     14  N   UNL     1      -1.122   1.428  24.559  0.00  0.00    -0.200 NA
ATOM     30  N   UNL     1      -2.393   2.057  24.732  0.00  0.00    -0.212 NA
ENDROOT
BRANCH  14  15
ATOM     15  C   UNL     1      -0.303   1.483  24.474  0.00  0.00    +0.154 C 
ATOM     16  C   UNL     1       0.194   1.992  24.892  0.00  0.00    +0.166 C 
ATOM     17  O   UNL     1       0.966   1.862  24.633  0.00  0.00    -0.350 OA
ATOM     18  C   UNL     1       0.947   1.274  24.057  0.00  0.00    +0.166 C 
ATOM     19  C   UNL     1       1.412   0.829  23.540  0.00  0.00    +0.154 C 
ATOM     20  C   UNL     1       0.915   0.320  23.122  0.00  0.00    +0.166 C 
ATOM     21  O   UNL     1       0.143   0.450  23.381  0.00  0.00    -0.350 OA
ATOM     22  C   UNL     1       0.162   1.040  23.958  0.00  0.00    +0.166 C 
BRANCH  19  23
ATOM     23  N   UNL     1       2.231   0.884  23.455  0.00  0.00    -0.202 NA
ATOM     24  C   UNL     1       2.616   0.449  22.870  0.00  0.00    +0.241 C 
ATOM     25  O   UNL     1       2.182  -0.041  22.368  0.00  0.00    -0.273 OA
BRANCH  24  26
ATOM     26  C   UNL     1       3.434   0.504  22.785  0.00  0.00    +0.071 C 
ATOM     27  C   UNL     1       4.254   0.560  22.701  0.00  0.00    +0.009 C 
ATOM     28  C   UNL     1       3.515  -0.268  23.063  0.00  0.00    +0.009 C 
ATOM     29  C   UNL     1       3.354   1.277  22.507  0.00  0.00    +0.009 C 
ENDBRANCH  24  26
ENDBRANCH  19  23
ENDBRANCH  14  15
BRANCH   9   6
ATOM      3  C   UNL     1      -5.303   2.576  25.074  0.00  0.00    +0.139 A 
ATOM      4  C   UNL     1      -4.881   3.145  25.499  0.00  0.00    +0.037 A 
ATOM      5  C   UNL     1      -4.063   3.200  25.414  0.00  0.00    +0.005 A 
ATOM      6  C   UNL     1      -3.664   2.686  24.906  0.00  0.00    +0.018 A 
ATOM      7  C   UNL     1      -4.085   2.118  24.482  0.00  0.00    +0.005 A 
ATOM      8  C   UNL     1      -4.904   2.063  24.566  0.00  0.00    +0.037 A 
BRANCH   3   2
ATOM      1  C   UNL     1      -6.503   1.803  25.018  0.00  0.00    +0.252 C 
ATOM      2  O   UNL     1      -6.121   2.521  25.158  0.00  0.00    -0.471 OA
ENDBRANCH   3   2
ENDBRANCH   9   6
TORSDOF 5
ENDMDL
MODEL 3
REMARK VINA RESULT:      -8.1      1.820      2.516
REMARK  Name = 
REMARK  5 active torsions:
REMARK  status: ('A' for Active; 'I' for Inactive)
REMARK    1  A    between atoms: O_2  and  C_3
REMARK    2  A    between atoms: C_6  and  C_9
REMARK    3  A    between atoms: N_14  and  C_15
REMARK    4  A    between atoms: C_19  and  N_23
REMARK    5  A    between atoms: C_24  and  C_26
REMARK                            x       y       z     vdW  Elec       q    Type
REMARK                         _______ _______ _______ _____ _____    ______ ____
ROOT
ATOM      9  C   UNL     1       2.386   0.206  22.887  0.00  0.00    +0.086 A 
ATOM     10  C   UNL     1       2.039  -0.159  22.234  0.00  0.00    +0.040 A 
ATOM     11  C   UNL     1       1.217  -0.179  22.160  0.00  0.00    +0.103 A 
ATOM     12  N   UNL     1       0.742   0.166  22.740  0.00  0.00    -0.211 NA
ATOM     13  C   UNL     1       1.091   0.531  23.394  0.00  0.00    +0.237 A 
ATOM     14  N   UNL     1       0.616   0.877  23.974  0.00  0.00    -0.200 NA
ATOM     30  N   UNL     1       1.912   0.551  23.467  0.00  0.00    -0.212 NA
ENDROOT
BRANCH  14  15
ATOM     15  C   UNL     1      -0.206   0.857  23.901  0.00  0.00    +0.154 C 
ATOM     16  C   UNL     1      -0.648   1.222  23.308  0.00  0.00    +0.166 C 
ATOM     17  O   UNL     1      -1.445   1.059  23.449  0.00  0.00    -0.350 OA
ATOM     18  C   UNL     1      -1.495   0.595  24.128  0.00  0.00    +0.166 C 
ATOM     19  C   UNL     1      -2.017   0.206  24.635  0.00  0.00    +0.154 C 
ATOM     20  C   UNL     1      -1.574  -0.158  25.228  0.00  0.00    +0.166 C 
ATOM     21  O   UNL     1      -0.778   0.004  25.087  0.00  0.00    -0.350 OA
ATOM     22  C   UNL     1      -0.728   0.469  24.407  0.00  0.00    +0.166 C 
BRANCH  19  23
ATOM     23  N   UNL     1      -2.839   0.187  24.562  0.00  0.00    -0.202 NA
ATOM     24  C   UNL     1      -3.252  -0.505  24.739  0.00  0.00    +0.241 C 
ATOM     25  O   UNL     1      -2.844  -1.177  24.989  0.00  0.00    -0.273 OA
BRANCH  24  26
ATOM     26  C   UNL     1      -4.073  -0.525  24.666  0.00  0.00    +0.071 C 
ATOM     27  C   UNL     1      -4.895  -0.545  24.592  0.00  0.00    +0.009 C 
ATOM     28  C   UNL     1      -4.140   0.038  25.265  0.00  0.00    +0.009 C 
ATOM     29  C   UNL     1      -4.006  -1.088  24.066  0.00  0.00    +0.009 C 
ENDBRANCH  24  26
ENDBRANCH  19  23
ENDBRANCH  14  15
BRANCH   9   6
ATOM      3  C   UNL     1       4.851   0.263  23.106  0.00  0.00    +0.139 A 
ATOM      4  C   UNL     1       4.446   0.922  22.817  0.00  0.00    +0.037 A 
ATOM      5  C   UNL     1       3.625   0.903  22.744  0.00  0.00    +0.005 A 
ATOM      6  C   UNL     1       3.207   0.225  22.960  0.00  0.00    +0.018 A 
ATOM      7  C   UNL     1       3.611  -0.434  23.249  0.00  0.00    +0.005 A 
ATOM      8  C   UNL     1       4.433  -0.414  23.322  0.00  0.00    +0.037 A 
BRANCH   3   2
ATOM      1  C   UNL     1       6.037  -0.071  23.828  0.00  0.00    +0.252 C 
ATOM      2  O   UNL     1       5.672   0.283  23.179  0.00  0.00    -0.471 OA
ENDBRANCH   3   2
ENDBRANCH   9   6
TORSDOF 5
ENDMDL
MODEL 4
REMARK VINA RESULT:      -7.7      1.384      6.647
REMARK  Name = 
REMARK  5 active torsions:
REMARK  status: ('A' for Active; 'I' for Inactive)
REMARK    1  A    between atoms: O_2  and  C_3
REMARK    2  A    between atoms: C_6  and  C_9
REMARK    3  A    between atoms: N_14  and  C_15
REMARK    4  A    between atoms: C_19  and  N_23
REMARK    5  A    between atoms: C_24  and  C_26
REMARK                            x       y       z     vdW  Elec       q    Type
REMARK                         _______ _______ _______ _____ _____    ______ ____
ROOT
ATOM      9  C   UNL     1      -2.534   1.103  24.947  0.00  0.00    +0.086 A 
ATOM     10  C   UNL     1      -2.195   0.933  25.679  0.00  0.00    +0.040 A 
ATOM     11  C   UNL     1      -1.373   0.927  25.762  0.00  0.00    +0.103 A 
ATOM     12  N   UNL     1      -0.892   1.090  25.112  0.00  0.00    -0.211 NA
ATOM     13  C   UNL     1      -1.232   1.259  24.379  0.00  0.00    +0.237 A 
ATOM     14  N   UNL     1      -0.751   1.422  23.729  0.00  0.00    -0.200 NA
ATOM     30  N   UNL     1      -2.053   1.266  24.297  0.00  0.00    -0.212 NA
ENDROOT
BRANCH  14  15
ATOM     15  C   UNL     1       0.070   1.416  23.811  0.00  0.00    +0.154 C 
ATOM     16  C   UNL     1       0.513   1.921  24.290  0.00  0.00    +0.166 C 
ATOM     17  O   UNL     1       1.308   1.720  24.204  0.00  0.00    -0.350 OA
ATOM     18  C   UNL     1       1.357   1.092  23.672  0.00  0.00    +0.166 C 
ATOM     19  C   UNL     1       1.878   0.579  23.290  0.00  0.00    +0.154 C 
ATOM     20  C   UNL     1       1.436   0.075  22.811  0.00  0.00    +0.166 C 
ATOM     21  O   UNL     1       0.640   0.275  22.897  0.00  0.00    -0.350 OA
ATOM     22  C   UNL     1       0.592   0.904  23.430  0.00  0.00    +0.166 C 
BRANCH  19  23
ATOM     23  N   UNL     1       2.700   0.573  23.372  0.00  0.00    -0.202 NA
ATOM     24  C   UNL     1       3.177   0.370  22.731  0.00  0.00    +0.241 C 
ATOM     25  O   UNL     1       2.834   0.173  22.007  0.00  0.00    -0.273 OA
BRANCH  24  26
ATOM     26  C   UNL     1       3.998   0.363  22.813  0.00  0.00    +0.071 C 
ATOM     27  C   UNL     1       4.819   0.357  22.895  0.00  0.00    +0.009 C 
ATOM     28  C   UNL     1       3.957  -0.381  23.164  0.00  0.00    +0.009 C 
ATOM     29  C   UNL     1       4.039   1.109  22.461  0.00  0.00    +0.009 C 
ENDBRANCH  24  26
ENDBRANCH  19  23
ENDBRANCH  14  15
BRANCH   9   6
ATOM      3  C   UNL     1      -4.997   1.122  24.700  0.00  0.00    +0.139 A 
ATOM      4  C   UNL     1      -4.590   0.404  24.731  0.00  0.00    +0.037 A 
ATOM      5  C   UNL     1      -3.770   0.398  24.813  0.00  0.00    +0.005 A 
ATOM      6  C   UNL     1      -3.355   1.109  24.865  0.00  0.00    +0.018 A 
ATOM      7  C   UNL     1      -3.760   1.827  24.834  0.00  0.00    +0.005 A 
ATOM      8  C   UNL     1      -4.582   1.833  24.752  0.00  0.00    +0.037 A 
BRANCH   3   2
ATOM      1  C   UNL     1      -6.256   1.766  24.906  0.00  0.00    +0.252 C 
ATOM      2  O   UNL     1      -5.817   1.128  24.618  0.00  0.00    -0.471 OA
ENDBRANCH   3   2
ENDBRANCH   9   6
TORSDOF 5
ENDMDL
