MODEL 1
REMARK VINA RESULT:      -8.4      0.000      0.000
REMARK  Name = 
REMARK  7 active torsions:
REMARK  status: ('A' for Active; 'I' for Inactive)
REMARK    1  A    between atoms: C_2  and  C_4
REMARK    2  A    between atoms: C_4  and  S_5
REMARK    3  A    between atoms: S_5  and  C_6
REMARK    4  A    between atoms: C_6  and  C_7
REMARK    5  A    between atoms: N_9  and  C_10
REMARK    6  A    between atoms: C_14  and  N_18
REMARK    7  A    between atoms: C_21  and  C_25
REMARK                            x       y       z     vdW  Elec       q    Type
REMARK                         _______ _______ _______ _____ _____    ______ ____
ROOT
ATOM     10  C   UNL     1       1.038   0.802  23.480  0.00  0.00    +0.154 C 
ATOM     11  C   UNL     1       0.625   0.132  23.233  0.00  0.00    +0.166 C 
ATOM     12  O   UNL     1      -0.129   0.159  23.568  0.00  0.00    -0.350 OA
ATOM     13  C   UNL     1      -0.181   0.846  24.023  0.00  0.00    +0.166 C 
ATOM     14  C   UNL     1      -0.679   1.287  24.511  0.00  0.00    +0.154 C 
ATOM     15  C   UNL     1      -0.265   1.957  24.757  0.00  0.00    +0.166 C 
ATOM     16  O   UNL     1       0.488   1.930  24.422  0.00  0.00    -0.350 OA
ATOM     17  C   UNL     1       0.540   1.244  23.968  0.00  0.00    +0.166 C 
ENDROOT
BRANCH  14  18
ATOM     18  N   UNL     1      -1.454   1.093  24.716  0.00  0.00    -0.200 NA
ATOM     19  C   UNL     1      -2.063   1.634  24.586  0.00  0.00    +0.237 A 
ATOM     20  N   UNL     1      -2.838   1.440  24.791  0.00  0.00    -0.212 NA
ATOM     21  C   UNL     1      -3.447   1.980  24.661  0.00  0.00    +0.092 A 
ATOM     22  C   UNL     1      -3.281   2.716  24.326  0.00  0.00    +0.040 A 
ATOM     23  C   UNL     1      -2.506   2.911  24.121  0.00  0.00    +0.103 A 
ATOM     24  N   UNL     1      -1.897   2.369  24.251  0.00  0.00    -0.211 NA
BRANCH  21  25
ATOM     25  C   UNL     1      -4.223   1.786  24.866  0.00  0.00    +0.047 A 
ATOM     26  C   UNL     1      -4.555   1.031  24.844  0.00  0.00    +0.009 A 
ATOM     27  C   UNL     1      -5.339   1.091  25.093  0.00  0.00    +0.008 A 
ATOM     28  C   UNL     1      -5.492   1.882  25.269  0.00  0.00    +0.035 A 
ATOM     29  S   UNL     1      -4.802   2.312  25.128  0.00  0.00    -0.085 S 
ENDBRANCH  21  25
ENDBRANCH  14  18
BRANCH  10   9
ATOM      7  C   UNL     1       2.286   0.447  22.882  0.00  0.00    +0.252 C 
ATOM      8  O   UNL     1       1.984  -0.298  22.693  0.00  0.00    -0.272 OA
ATOM      9  N   UNL     1       1.813   0.997  23.275  0.00  0.00    -0.201 NA
BRANCH   7   6
ATOM      6  C   UNL     1       3.061   0.642  22.677  0.00  0.00    +0.145 C 
BRANCH   6   5
ATOM      5  S   UNL     1       3.693   0.263  23.050  0.00  0.00    -0.119 S 
BRANCH   5   4
ATOM      4  C   UNL     1       4.464   0.527  22.922  0.00  0.00    +0.172 C 
BRANCH   4   2
ATOM      1  O   UNL     1       5.436  -0.431  23.344  0.00  0.00    -0.245 OA
ATOM      2  C   UNL     1       5.068   0.301  23.438  0.00  0.00    +0.376 C 
ATOM      3  O   UNL     1       5.302   0.806  24.046  0.00  0.00    -0.245 OA
ENDBRANCH   4   2
ENDBRANCH   5   4
ENDBRANCH   6   5
ENDBRANCH   7   6
ENDBRANCH  10   9
TORSDOF 7
ENDMDL
MODEL 2
REMARK VINA RESULT:      -7.5      2.046      6.913
REMARK  Name = 
REMARK  7 active torsions:
REMARK  status: ('A' for Active; 'I' for Inactive)
REMARK    1  A    between atoms: C_2  and  C_4
REMARK    2  A    between atoms: C_4  and  S_5
REMARK    3  A    between atoms: S_5  and  C_6
REMARK    4  A    between atoms: C_6  and  C_7
REMARK    5  A    between atoms: N_9  and  C_10
REMARK    6  A    between atoms: C_14  and  N_18
REMARK    7  A    between atoms: C_21  and  C_25
REMARK                            x       y       z     vdW  Elec       q    Type
REMARK                         _______ _______ _______ _____ _____    ______ ____
ROOT
ATOM     10  C   UNL     1      -1.909   2.068  24.050  0.00  0.00    +0.154 C 
ATOM     11  C   UNL     1      -1.490   2.774  23.975  0.00  0.00    +0.166 C 
ATOM     12  O   UNL     1      -0.685   2.592  23.966  0.00  0.00    -0.350 OA
ATOM     13  C   UNL     1      -0.607   1.773  24.036  0.00  0.00    +0.166 C 
ATOM     14  C   UNL     1      -0.062   1.155  24.073  0.00  0.00    +0.154 C 
ATOM     15  C   UNL     1      -0.483   0.449  24.148  0.00  0.00    +0.166 C 
ATOM     16  O   UNL     1      -1.287   0.631  24.157  0.00  0.00    -0.350 OA
ATOM     17  C   UNL     1      -1.364   1.449  24.088  0.00  0.00    +0.166 C 
ENDROOT
BRANCH  14  18
ATOM     18  N   UNL     1       0.758   1.230  24.041  0.00  0.00    -0.200 NA
ATOM     19  C   UNL     1       1.193   0.777  23.507  0.00  0.00    +0.237 A 
ATOM     20  N   UNL     1       2.015   0.851  23.475  0.00  0.00    -0.212 NA
ATOM     21  C   UNL     1       2.449   0.398  22.941  0.00  0.00    +0.092 A 
ATOM     22  C   UNL     1       2.064  -0.131  22.439  0.00  0.00    +0.040 A 
ATOM     23  C   UNL     1       1.243  -0.206  22.470  0.00  0.00    +0.103 A 
ATOM     24  N   UNL     1       0.807   0.248  23.005  0.00  0.00    -0.211 NA
BRANCH  21  25
ATOM     25  C   UNL     1       3.271   0.472  22.909  0.00  0.00    +0.047 A 
ATOM     26  C   UNL     1       3.687   1.141  22.663  0.00  0.00    +0.009 A 
ATOM     27  C   UNL     1       4.493   0.973  22.719  0.00  0.00    +0.008 A 
ATOM     28  C   UNL     1       4.575   0.201  22.999  0.00  0.00    +0.035 A 
ATOM     29  S   UNL     1       3.820  -0.108  23.116  0.00  0.00    -0.085 S 
ENDBRANCH  21  25
ENDBRANCH  14  18
BRANCH  10   9
ATOM      7  C   UNL     1      -3.186   2.590  24.424  0.00  0.00    +0.252 C 
ATOM      8  O   UNL     1      -2.820   3.262  24.733  0.00  0.00    -0.272 OA
ATOM      9  N   UNL     1      -2.730   1.992  24.082  0.00  0.00    -0.201 NA
BRANCH   7   6
ATOM      6  C   UNL     1      -4.007   2.515  24.456  0.00  0.00    +0.145 C 
BRANCH   6   5
ATOM      5  S   UNL     1      -4.433   2.902  25.047  0.00  0.00    -0.119 S 
BRANCH   5   4
ATOM      4  C   UNL     1      -5.232   2.729  25.159  0.00  0.00    +0.172 C 
BRANCH   4   2
ATOM      1  O   UNL     1      -5.870   3.875  25.728  0.00  0.00    -0.245 OA
ATOM      2  C   UNL     1      -5.647   3.082  25.780  0.00  0.00    +0.376 C 
ATOM      3  O   UNL     1      -5.839   2.643  26.451  0.00  0.00    -0.245 OA
ENDBRANCH   4   2
ENDBRANCH   5   4
ENDBRANCH   6   5
ENDBRANCH   7   6
ENDBRANCH  10   9
TORSDOF 7
ENDMDL
MODEL 3
REMARK VINA RESULT:      -6.0     15.458     17.101
REMARK  Name = 
REMARK  7 active torsions:
REMARK  status: ('A' for Active; 'I' for Inactive)
REMARK    1  A    between atoms: C_2  and  C_4
REMARK    2  A    between atoms: C_4  and  S_5
REMARK    3  A    between atoms: S_5  and  C_6
REMARK    4  A    between atoms: C_6  and  C_7
REMARK    5  A    between atoms: N_9  and  C_10
REMARK    6  A    between atoms: C_14  and  N_18
REMARK    7  A    between atoms: C_21  and  C_25
REMARK                            x       y       z     vdW  Elec       q    Type
REMARK                         _______ _______ _______ _____ _____    ______ ____
ROOT
ATOM     10  C   UNL     1      -6.790 -10.062  15.498  0.00  0.00    +0.154 C 
ATOM     11  C   UNL     1      -6.007  -9.898  15.696  0.00  0.00    +0.166 C 
ATOM     12  O   UNL     1      -5.559  -9.921  15.004  0.00  0.00    -0.350 OA
ATOM     13  C   UNL     1      -6.066 -10.099  14.377  0.00  0.00    +0.166 C 
ATOM     14  C   UNL     1      -6.102 -10.224  13.563  0.00  0.00    +0.154 C 
ATOM     15  C   UNL     1      -6.887 -10.388  13.365  0.00  0.00    +0.166 C 
ATOM     16  O   UNL     1      -7.334 -10.364  14.058  0.00  0.00    -0.350 OA
ATOM     17  C   UNL     1      -6.827 -10.186  14.683  0.00  0.00    +0.166 C 
ENDROOT
BRANCH  14  18
ATOM     18  N   UNL     1      -5.467 -10.190  13.038  0.00  0.00    -0.200 NA
ATOM     19  C   UNL     1      -5.518  -9.727  12.358  0.00  0.00    +0.237 A 
ATOM     20  N   UNL     1      -4.882  -9.694  11.833  0.00  0.00    -0.212 NA
ATOM     21  C   UNL     1      -4.933  -9.231  11.152  0.00  0.00    +0.092 A 
ATOM     22  C   UNL     1      -5.619  -8.800  10.997  0.00  0.00    +0.040 A 
ATOM     23  C   UNL     1      -6.255  -8.833  11.521  0.00  0.00    +0.103 A 
ATOM     24  N   UNL     1      -6.204  -9.297  12.202  0.00  0.00    -0.211 NA
BRANCH  21  25
ATOM     25  C   UNL     1      -4.297  -9.197  10.627  0.00  0.00    +0.047 A 
ATOM     26  C   UNL     1      -3.525  -9.441  10.785  0.00  0.00    +0.009 A 
ATOM     27  C   UNL     1      -3.073  -9.308  10.108  0.00  0.00    +0.008 A 
ATOM     28  C   UNL     1      -3.564  -8.982   9.532  0.00  0.00    +0.035 A 
ATOM     29  S   UNL     1      -4.321  -8.913   9.853  0.00  0.00    -0.085 S 
ENDBRANCH  21  25
ENDBRANCH  14  18
BRANCH  10   9
ATOM      7  C   UNL     1      -7.472  -9.561  16.650  0.00  0.00    +0.252 C 
ATOM      8  O   UNL     1      -6.881  -8.994  16.753  0.00  0.00    -0.272 OA
ATOM      9  N   UNL     1      -7.426 -10.095  16.022  0.00  0.00    -0.201 NA
BRANCH   7   6
ATOM      6  C   UNL     1      -8.108  -9.595  17.174  0.00  0.00    +0.145 C 
BRANCH   6   5
ATOM      5  S   UNL     1      -8.693  -9.013  17.150  0.00  0.00    -0.119 S 
BRANCH   5   4
ATOM      4  C   UNL     1      -9.314  -9.031  17.693  0.00  0.00    +0.172 C 
BRANCH   4   2
ATOM      1  O   UNL     1      -9.913  -7.740  17.558  0.00  0.00    -0.245 OA
ATOM      2  C   UNL     1      -9.983  -8.562  17.569  0.00  0.00    +0.376 C 
ATOM      3  O   UNL     1     -10.720  -8.916  17.458  0.00  0.00    -0.245 OA
ENDBRANCH   4   2
ENDBRANCH   5   4
ENDBRANCH   6   5
ENDBRANCH   7   6
ENDBRANCH  10   9
TORSDOF 7
ENDMDL
MODEL 4
REMARK VINA RESULT:      -5.9     14.978     15.781
REMARK  Name = 
REMARK  7 active torsions:
REMARK  status: ('A' for Active; 'I' for Inactive)
REMARK    1  A    between atoms: C_2  and  C_4
REMARK    2  A    between atoms: C_4  and  S_5
REMARK    3  A    between atoms: S_5  and  C_6
REMARK    4  A    between atoms: C_6  and  C_7
REMARK    5  A    between atoms: N_9  and  C_10
REMARK    6  A    between atoms: C_14  and  N_18
REMARK    7  A    between atoms: C_21  and  C_25
REMARK                            x       y       z     vdW  Elec       q    Type
REMARK                         _______ _______ _______ _____ _____    ______ ____
ROOT
ATOM     10  C   UNL     1      -5.439 -10.221  13.425  0.00  0.00    +0.154 C 
ATOM     11  C   UNL     1      -5.970  -9.760  12.995  0.00  0.00    +0.166 C 
ATOM     12  O   UNL     1      -6.642  -9.644  13.460  0.00  0.00    -0.350 OA
ATOM     13  C   UNL     1      -6.525 -10.034  14.178  0.00  0.00    +0.166 C 
ATOM     14  C   UNL     1      -6.869 -10.204  14.909  0.00  0.00    +0.154 C 
ATOM     15  C   UNL     1      -6.337 -10.666  15.339  0.00  0.00    +0.166 C 
ATOM     16  O   UNL     1      -5.666 -10.781  14.873  0.00  0.00    -0.350 OA
ATOM     17  C   UNL     1      -5.782 -10.391  14.157  0.00  0.00    +0.166 C 
ENDROOT
BRANCH  14  18
ATOM     18  N   UNL     1      -7.612  -9.955  15.165  0.00  0.00    -0.200 NA
ATOM     19  C   UNL     1      -7.714  -9.686  15.937  0.00  0.00    +0.237 A 
ATOM     20  N   UNL     1      -8.458  -9.438  16.194  0.00  0.00    -0.212 NA
ATOM     21  C   UNL     1      -8.560  -9.169  16.966  0.00  0.00    +0.092 A 
ATOM     22  C   UNL     1      -7.918  -9.148  17.484  0.00  0.00    +0.040 A 
ATOM     23  C   UNL     1      -7.173  -9.396  17.228  0.00  0.00    +0.103 A 
ATOM     24  N   UNL     1      -7.072  -9.665  16.455  0.00  0.00    -0.211 NA
BRANCH  21  25
ATOM     25  C   UNL     1      -9.304  -8.920  17.223  0.00  0.00    +0.047 A 
ATOM     26  C   UNL     1      -9.618  -8.162  17.135  0.00  0.00    +0.009 A 
ATOM     27  C   UNL     1     -10.372  -8.159  17.470  0.00  0.00    +0.008 A 
ATOM     28  C   UNL     1     -10.524  -8.914  17.764  0.00  0.00    +0.035 A 
ATOM     29  S   UNL     1      -9.864  -9.384  17.612  0.00  0.00    -0.085 S 
ENDBRANCH  21  25
ENDBRANCH  14  18
BRANCH  10   9
ATOM      7  C   UNL     1      -4.437 -10.283  12.409  0.00  0.00    +0.252 C 
ATOM      8  O   UNL     1      -4.922  -9.847  11.904  0.00  0.00    -0.272 OA
ATOM      9  N   UNL     1      -4.695 -10.470  13.170  0.00  0.00    -0.201 NA
BRANCH   7   6
ATOM      6  C   UNL     1      -3.693 -10.531  12.153  0.00  0.00    +0.145 C 
BRANCH   6   5
ATOM      5  S   UNL     1      -3.221 -10.025  11.703  0.00  0.00    -0.119 S 
BRANCH   5   4
ATOM      4  C   UNL     1      -2.469 -10.267  11.464  0.00  0.00    +0.172 C 
BRANCH   4   2
ATOM      1  O   UNL     1      -1.203  -9.608  11.523  0.00  0.00    -0.245 OA
ATOM      2  C   UNL     1      -1.936  -9.714  11.161  0.00  0.00    +0.376 C 
ATOM      3  O   UNL     1      -2.136  -9.269  10.496  0.00  0.00    -0.245 OA
ENDBRANCH   4   2
ENDBRANCH   5   4
ENDBRANCH   6   5
ENDBRANCH   7   6
ENDBRANCH  10   9
TORSDOF 7
ENDMDL
MODEL 5
REMARK VINA RESULT:      -5.8     15.279     16.167
REMARK  Name = 
REMARK  7 active torsions:
REMARK  status: ('A' for Active; 'I' for Inactive)
REMARK    1  A    between atoms: C_2  and  C_4
REMARK    2  A    between atoms: C_4  and  S_5
REMARK    3  A    between atoms: S_5  and  C_6
REMARK    4  A    between atoms: C_6  and  C_7
REMARK    5  A    between atoms: N_9  and  C_10
REMARK    6  A    between atoms: C_14  and  N_18
REMARK    7  A    between atoms: C_21  and  C_25
REMARK                            x       y       z     vdW  Elec       q    Type
REMARK                         _______ _______ _______ _____ _____    ______ ____
ROOT
ATOM     10  C   UNL     1      -3.878 -10.647  12.841  0.00  0.00    +0.154 C 
ATOM     11  C   UNL     1      -3.196 -10.730  13.297  0.00  0.00    +0.166 C 
ATOM     12  O   UNL     1      -3.422 -10.775  14.089  0.00  0.00    -0.350 OA
ATOM     13  C   UNL     1      -4.245 -10.718  14.123  0.00  0.00    +0.166 C 
ATOM     14  C   UNL     1      -4.893 -10.711  14.634  0.00  0.00    +0.154 C 
ATOM     15  C   UNL     1      -5.576 -10.626  14.177  0.00  0.00    +0.166 C 
ATOM     16  O   UNL     1      -5.349 -10.582  13.385  0.00  0.00    -0.350 OA
ATOM     17  C   UNL     1      -4.527 -10.639  13.351  0.00  0.00    +0.166 C 
ENDROOT
BRANCH  14  18
ATOM     18  N   UNL     1      -4.865 -10.775  15.455  0.00  0.00    -0.200 NA
ATOM     19  C   UNL     1      -5.499 -10.514  15.912  0.00  0.00    +0.237 A 
ATOM     20  N   UNL     1      -5.470 -10.579  16.734  0.00  0.00    -0.212 NA
ATOM     21  C   UNL     1      -6.105 -10.317  17.191  0.00  0.00    +0.092 A 
ATOM     22  C   UNL     1      -6.769  -9.990  16.826  0.00  0.00    +0.040 A 
ATOM     23  C   UNL     1      -6.798  -9.925  16.004  0.00  0.00    +0.103 A 
ATOM     24  N   UNL     1      -6.163 -10.187  15.547  0.00  0.00    -0.211 NA
BRANCH  21  25
ATOM     25  C   UNL     1      -6.076 -10.382  18.013  0.00  0.00    +0.047 A 
ATOM     26  C   UNL     1      -5.405 -10.550  18.463  0.00  0.00    +0.009 A 
ATOM     27  C   UNL     1      -5.627 -10.562  19.257  0.00  0.00    +0.008 A 
ATOM     28  C   UNL     1      -6.435 -10.401  19.299  0.00  0.00    +0.035 A 
ATOM     29  S   UNL     1      -6.713 -10.289  18.530  0.00  0.00    -0.085 S 
ENDBRANCH  21  25
ENDBRANCH  14  18
BRANCH  10   9
ATOM      7  C   UNL     1      -3.313 -10.176  11.616  0.00  0.00    +0.252 C 
ATOM      8  O   UNL     1      -2.689  -9.835  12.035  0.00  0.00    -0.272 OA
ATOM      9  N   UNL     1      -3.908 -10.582  12.019  0.00  0.00    -0.201 NA
BRANCH   7   6
ATOM      6  C   UNL     1      -3.342 -10.111  10.795  0.00  0.00    +0.145 C 
BRANCH   6   5
ATOM      5  S   UNL     1      -3.660  -9.433  10.446  0.00  0.00    -0.119 S 
BRANCH   5   4
ATOM      4  C   UNL     1      -3.653  -9.350   9.625  0.00  0.00    +0.172 C 
BRANCH   4   2
ATOM      1  O   UNL     1      -4.454  -8.167   9.602  0.00  0.00    -0.245 OA
ATOM      2  C   UNL     1      -4.219  -8.877   9.254  0.00  0.00    +0.376 C 
ATOM      3  O   UNL     1      -4.548  -9.114   8.535  0.00  0.00    -0.245 OA
ENDBRANCH   4   2
ENDBRANCH   5   4
ENDBRANCH   6   5
ENDBRANCH   7   6
ENDBRANCH  10   9
TORSDOF 7
ENDMDL
MODEL 6
REMARK VINA RESULT:      -5.6     16.341     17.821
REMARK  Name = 
REMARK  7 active torsions:
REMARK  status: ('A' for Active; 'I' for Inactive)
REMARK    1  A    between atoms: C_2  and  C_4
REMARK    2  A    between atoms: C_4  and  S_5
REMARK    3  A    between atoms: S_5  and  C_6
REMARK    4  A    between atoms: C_6  and  C_7
REMARK    5  A    between atoms: N_9  and  C_10
REMARK    6  A    between atoms: C_14  and  N_18
REMARK    7  A    between atoms: C_21  and  C_25
REMARK                            x       y       z     vdW  Elec       q    Type
REMARK                         _______ _______ _______ _____ _____    ______ ____
ROOT
ATOM     10  C   UNL     1      -6.262  -9.787  11.536  0.00  0.00    +0.154 C 
ATOM     11  C   UNL     1      -6.570  -9.511  12.249  0.00  0.00    +0.166 C 
ATOM     12  O   UNL     1      -6.024  -9.679  12.845  0.00  0.00    -0.350 OA
ATOM     13  C   UNL     1      -5.378 -10.061  12.498  0.00  0.00    +0.166 C 
ATOM     14  C   UNL     1      -4.643 -10.400  12.653  0.00  0.00    +0.154 C 
ATOM     15  C   UNL     1      -4.336 -10.677  11.938  0.00  0.00    +0.166 C 
ATOM     16  O   UNL     1      -4.882 -10.508  11.344  0.00  0.00    -0.350 OA
ATOM     17  C   UNL     1      -5.526 -10.127  11.690  0.00  0.00    +0.166 C 
ENDROOT
BRANCH  14  18
ATOM     18  N   UNL     1      -4.278 -10.454  13.390  0.00  0.00    -0.200 NA
ATOM     19  C   UNL     1      -3.456 -10.426  13.447  0.00  0.00    +0.237 A 
ATOM     20  N   UNL     1      -3.091 -10.480  14.185  0.00  0.00    -0.212 NA
ATOM     21  C   UNL     1      -2.269 -10.453  14.242  0.00  0.00    +0.092 A 
ATOM     22  C   UNL     1      -1.811 -10.372  13.561  0.00  0.00    +0.040 A 
ATOM     23  C   UNL     1      -2.175 -10.318  12.823  0.00  0.00    +0.103 A 
ATOM     24  N   UNL     1      -2.998 -10.345  12.766  0.00  0.00    -0.211 NA
BRANCH  21  25
ATOM     25  C   UNL     1      -1.904 -10.506  14.980  0.00  0.00    +0.047 A 
ATOM     26  C   UNL     1      -1.125 -10.294  15.152  0.00  0.00    +0.009 A 
ATOM     27  C   UNL     1      -0.993 -10.438  15.953  0.00  0.00    +0.008 A 
ATOM     28  C   UNL     1      -1.689 -10.739  16.278  0.00  0.00    +0.035 A 
ATOM     29  S   UNL     1      -2.252 -10.781  15.676  0.00  0.00    -0.085 S 
ENDBRANCH  21  25
ENDBRANCH  14  18
BRANCH  10   9
ATOM      7  C   UNL     1      -7.380  -9.403  10.733  0.00  0.00    +0.252 C 
ATOM      8  O   UNL     1      -7.768  -9.125  11.405  0.00  0.00    -0.272 OA
ATOM      9  N   UNL     1      -6.626  -9.734  10.798  0.00  0.00    -0.201 NA
BRANCH   7   6
ATOM      6  C   UNL     1      -7.744  -9.350   9.994  0.00  0.00    +0.145 C 
BRANCH   6   5
ATOM      5  S   UNL     1      -7.717  -8.641   9.572  0.00  0.00    -0.119 S 
BRANCH   5   4
ATOM      4  C   UNL     1      -8.153  -8.559   8.876  0.00  0.00    +0.172 C 
BRANCH   4   2
ATOM      1  O   UNL     1      -7.502  -7.518   8.145  0.00  0.00    -0.245 OA
ATOM      2  C   UNL     1      -8.183  -7.829   8.492  0.00  0.00    +0.376 C 
ATOM      3  O   UNL     1      -8.894  -7.412   8.454  0.00  0.00    -0.245 OA
ENDBRANCH   4   2
ENDBRANCH   5   4
ENDBRANCH   6   5
ENDBRANCH   7   6
ENDBRANCH  10   9
TORSDOF 7
ENDMDL
MODEL 7
REMARK VINA RESULT:      -5.3     17.828     18.497
REMARK  Name = 
REMARK  7 active torsions:
REMARK  status: ('A' for Active; 'I' for Inactive)
REMARK    1  A    between atoms: C_2  and  C_4
REMARK    2  A    between atoms: C_4  and  S_5
REMARK    3  A    between atoms: S_5  and  C_6
REMARK    4  A    between atoms: C_6  and  C_7
REMARK    5  A    between atoms: N_9  and  C_10
REMARK    6  A    between atoms: C_14  and  N_18
REMARK    7  A    between atoms: C_21  and  C_25
REMARK                            x       y       z     vdW  Elec       q    Type
REMARK                         _______ _______ _______ _____ _____    ______ ____
ROOT
ATOM     10  C   UNL     1      -6.020  -9.927  10.574  0.00  0.00    +0.154 C 
ATOM     11  C   UNL     1      -6.540  -9.741  11.186  0.00  0.00    +0.166 C 
ATOM     12  O   UNL     1      -7.166  -9.309  10.867  0.00  0.00    -0.350 OA
ATOM     13  C   UNL     1      -7.032  -9.228  10.056  0.00  0.00    +0.166 C 
ATOM     14  C   UNL     1      -7.336  -8.910   9.358  0.00  0.00    +0.154 C 
ATOM     15  C   UNL     1      -6.815  -9.097   8.746  0.00  0.00    +0.166 C 
ATOM     16  O   UNL     1      -6.189  -9.529   9.066  0.00  0.00    -0.350 OA
ATOM     17  C   UNL     1      -6.324  -9.610   9.875  0.00  0.00    +0.166 C 
ENDROOT
BRANCH  14  18
ATOM     18  N   UNL     1      -8.037  -8.483   9.284  0.00  0.00    -0.200 NA
ATOM     19  C   UNL     1      -8.036  -7.752   8.903  0.00  0.00    +0.237 A 
ATOM     20  N   UNL     1      -8.738  -7.323   8.829  0.00  0.00    -0.212 NA
ATOM     21  C   UNL     1      -8.737  -6.592   8.448  0.00  0.00    +0.092 A 
ATOM     22  C   UNL     1      -8.035  -6.289   8.140  0.00  0.00    +0.040 A 
ATOM     23  C   UNL     1      -7.333  -6.716   8.213  0.00  0.00    +0.103 A 
ATOM     24  N   UNL     1      -7.334  -7.448   8.595  0.00  0.00    -0.211 NA
BRANCH  21  25
ATOM     25  C   UNL     1      -9.438  -6.164   8.374  0.00  0.00    +0.047 A 
ATOM     26  C   UNL     1     -10.177  -6.475   8.178  0.00  0.00    +0.009 A 
ATOM     27  C   UNL     1     -10.720  -5.853   8.166  0.00  0.00    +0.008 A 
ATOM     28  C   UNL     1     -10.317  -5.158   8.355  0.00  0.00    +0.035 A 
ATOM     29  S   UNL     1      -9.525  -5.351   8.484  0.00  0.00    -0.085 S 
ENDBRANCH  21  25
ENDBRANCH  14  18
BRANCH  10   9
ATOM      7  C   UNL     1      -4.808 -10.206  11.279  0.00  0.00    +0.252 C 
ATOM      8  O   UNL     1      -5.000  -9.630  11.837  0.00  0.00    -0.272 OA
ATOM      9  N   UNL     1      -5.318 -10.355  10.647  0.00  0.00    -0.201 NA
BRANCH   7   6
ATOM      6  C   UNL     1      -4.107 -10.634  11.352  0.00  0.00    +0.145 C 
BRANCH   6   5
ATOM      5  S   UNL     1      -3.391 -10.237  11.459  0.00  0.00    -0.119 S 
BRANCH   5   4
ATOM      4  C   UNL     1      -2.752 -10.626  11.807  0.00  0.00    +0.172 C 
BRANCH   4   2
ATOM      1  O   UNL     1      -1.382 -10.614  12.213  0.00  0.00    -0.245 OA
ATOM      2  C   UNL     1      -1.995 -10.300  11.759  0.00  0.00    +0.376 C 
ATOM      3  O   UNL     1      -1.852  -9.660  11.258  0.00  0.00    -0.245 OA
ENDBRANCH   4   2
ENDBRANCH   5   4
ENDBRANCH   6   5
ENDBRANCH   7   6
ENDBRANCH  10   9
TORSDOF 7
ENDMDL
MODEL 8
REMARK VINA RESULT:      -4.7     16.492     17.656
REMARK  Name = 
REMARK  7 active torsions:
REMARK  status: ('A' for Active; 'I' for Inactive)
REMARK    1  A    between atoms: C_2  and  C_4
REMARK    2  A    between atoms: C_4  and  S_5
REMARK    3  A    between atoms: S_5  and  C_6
REMARK    4  A    between atoms: C_6  and  C_7
REMARK    5  A    between atoms: N_9  and  C_10
REMARK    6  A    between atoms: C_14  and  N_18
REMARK    7  A    between atoms: C_21  and  C_25
REMARK                            x       y       z     vdW  Elec       q    Type
REMARK                         _______ _______ _______ _____ _____    ______ ____
ROOT
ATOM     10  C   UNL     1      -5.928  -9.335  10.641  0.00  0.00    +0.154 C 
ATOM     11  C   UNL     1      -5.181  -8.994  10.713  0.00  0.00    +0.166 C 
ATOM     12  O   UNL     1      -4.838  -9.274  11.410  0.00  0.00    -0.350 OA
ATOM     13  C   UNL     1      -5.375  -9.789  11.768  0.00  0.00    +0.166 C 
ATOM     14  C   UNL     1      -5.494 -10.280  12.421  0.00  0.00    +0.154 C 
ATOM     15  C   UNL     1      -6.243 -10.621  12.348  0.00  0.00    +0.166 C 
ATOM     16  O   UNL     1      -6.584 -10.341  11.651  0.00  0.00    -0.350 OA
ATOM     17  C   UNL     1      -6.048  -9.827  11.293  0.00  0.00    +0.166 C 
ENDROOT
BRANCH  14  18
ATOM     18  N   UNL     1      -4.961 -10.407  13.036  0.00  0.00    -0.200 NA
ATOM     19  C   UNL     1      -5.206 -10.319  13.819  0.00  0.00    +0.237 A 
ATOM     20  N   UNL     1      -4.672 -10.446  14.435  0.00  0.00    -0.212 NA
ATOM     21  C   UNL     1      -4.917 -10.358  15.218  0.00  0.00    +0.092 A 
ATOM     22  C   UNL     1      -5.695 -10.143  15.385  0.00  0.00    +0.040 A 
ATOM     23  C   UNL     1      -6.229 -10.015  14.769  0.00  0.00    +0.103 A 
ATOM     24  N   UNL     1      -5.984 -10.103  13.986  0.00  0.00    -0.211 NA
BRANCH  21  25
ATOM     25  C   UNL     1      -4.383 -10.486  15.834  0.00  0.00    +0.047 A 
ATOM     26  C   UNL     1      -3.596 -10.722  15.753  0.00  0.00    +0.009 A 
ATOM     27  C   UNL     1      -3.270 -10.781  16.508  0.00  0.00    +0.008 A 
ATOM     28  C   UNL     1      -3.853 -10.582  17.056  0.00  0.00    +0.035 A 
ATOM     29  S   UNL     1      -4.542 -10.400  16.639  0.00  0.00    -0.085 S 
ENDBRANCH  21  25
ENDBRANCH  14  18
BRANCH  10   9
ATOM      7  C   UNL     1      -6.377  -8.550   9.535  0.00  0.00    +0.252 C 
ATOM      8  O   UNL     1      -5.758  -8.019   9.661  0.00  0.00    -0.272 OA
ATOM      9  N   UNL     1      -6.462  -9.208  10.025  0.00  0.00    -0.201 NA
BRANCH   7   6
ATOM      6  C   UNL     1      -6.911  -8.423   8.919  0.00  0.00    +0.145 C 
BRANCH   6   5
ATOM      5  S   UNL     1      -7.356  -7.728   8.897  0.00  0.00    -0.119 S 
BRANCH   5   4
ATOM      4  C   UNL     1      -7.871  -7.589   8.267  0.00  0.00    +0.172 C 
BRANCH   4   2
ATOM      1  O   UNL     1      -8.071  -6.181   8.126  0.00  0.00    -0.245 OA
ATOM      2  C   UNL     1      -8.372  -6.933   8.282  0.00  0.00    +0.376 C 
ATOM      3  O   UNL     1      -9.173  -7.030   8.452  0.00  0.00    -0.245 OA
ENDBRANCH   4   2
ENDBRANCH   5   4
ENDBRANCH   6   5
ENDBRANCH   7   6
ENDBRANCH  10   9
TORSDOF 7
ENDMDL
