MODEL 1
REMARK VINA RESULT:     -13.2      0.000      0.000
REMARK  Name = 
REMARK  3 active torsions:
REMARK  status: ('A' for Active; 'I' for Inactive)
REMARK    1  A    between atoms: C_7  and  C_9
REMARK    2  A    between atoms: N_12  and  C_13
REMARK    3  A    between atoms: C_13  and  C_14
REMARK                            x       y       z     vdW  Elec       q    Type
REMARK                         _______ _______ _______ _____ _____    ______ ____
ROOT
ATOM      9  C   UNL     1      -4.465   0.826  24.835  0.00  0.00    +0.076 C 
ATOM     10  C   UNL     1      -5.119   1.136  25.233  0.00  0.00    +0.026 C 
ATOM     11  C   UNL     1      -5.123   1.952  25.119  0.00  0.00    +0.073 C 
ATOM     12  N   UNL     1      -4.473   2.148  24.651  0.00  0.00    -0.269 NA
ATOM     23  C   UNL     1      -4.066   1.451  24.476  0.00  0.00    +0.080 C 
ENDROOT
BRANCH   9   7
ATOM      1  F   UNL     1      -3.708  -3.327  23.929  0.00  0.00    -0.204 F 
ATOM      2  C   UNL     1      -3.720  -2.605  24.329  0.00  0.00    +0.142 A 
ATOM      3  C   UNL     1      -4.082  -1.949  23.984  0.00  0.00    +0.050 A 
ATOM      4  C   UNL     1      -4.093  -1.228  24.383  0.00  0.00    +0.102 A 
ATOM      5  C   UNL     1      -3.742  -1.161  25.128  0.00  0.00    +0.100 A 
ATOM      6  N   UNL     1      -3.839  -0.385  25.387  0.00  0.00    -0.229 NA
ATOM      7  C   UNL     1      -4.250   0.030  24.804  0.00  0.00    +0.140 A 
ATOM      8  N   UNL     1      -4.407  -0.490  24.184  0.00  0.00    -0.229 NA
ATOM     24  C   UNL     1      -3.381  -1.818  25.471  0.00  0.00    +0.023 A 
ATOM     25  C   UNL     1      -3.369  -2.540  25.072  0.00  0.00    +0.031 A 
ENDBRANCH   9   7
BRANCH  12  13
ATOM     13  C   UNL     1      -4.265   2.906  24.401  0.00  0.00    +0.099 C 
BRANCH  13  14
ATOM     14  C   UNL     1      -3.647   3.309  24.774  0.00  0.00    -0.003 A 
ATOM     15  C   UNL     1      -3.785   3.713  25.480  0.00  0.00    +0.000 A 
ATOM     16  C   UNL     1      -3.168   4.115  25.851  0.00  0.00    +0.040 A 
ATOM     17  C   UNL     1      -2.413   4.113  25.518  0.00  0.00    +0.176 A 
ATOM     18  O   UNL     1      -1.703   4.456  25.756  0.00  0.00    -0.435 OA
ATOM     19  C   UNL     1      -1.127   4.265  25.198  0.00  0.00    +0.429 C 
ATOM     20  O   UNL     1      -1.481   3.802  24.614  0.00  0.00    -0.435 OA
ATOM     21  C   UNL     1      -2.276   3.708  24.812  0.00  0.00    +0.176 A 
ATOM     22  C   UNL     1      -2.893   3.306  24.439  0.00  0.00    +0.037 A 
ENDBRANCH  13  14
ENDBRANCH  12  13
TORSDOF 3
ENDMDL
MODEL 2
REMARK VINA RESULT:     -13.0      2.936      5.427
REMARK  Name = 
REMARK  3 active torsions:
REMARK  status: ('A' for Active; 'I' for Inactive)
REMARK    1  A    between atoms: C_7  and  C_9
REMARK    2  A    between atoms: N_12  and  C_13
REMARK    3  A    between atoms: C_13  and  C_14
REMARK                            x       y       z     vdW  Elec       q    Type
REMARK                         _______ _______ _______ _____ _____    ______ ____
ROOT
ATOM      9  C   UNL     1      -3.033   1.937  24.296  0.00  0.00    +0.076 C 
ATOM     10  C   UNL     1      -3.098   1.595  23.548  0.00  0.00    +0.026 C 
ATOM     11  C   UNL     1      -3.602   0.945  23.607  0.00  0.00    +0.073 C 
ATOM     12  N   UNL     1      -3.849   0.885  24.392  0.00  0.00    -0.269 NA
ATOM     23  C   UNL     1      -3.497   1.499  24.818  0.00  0.00    +0.080 C 
ENDROOT
BRANCH   9   7
ATOM      1  F   UNL     1      -1.412   5.781  25.407  0.00  0.00    -0.204 F 
ATOM      2  C   UNL     1      -1.456   4.989  25.178  0.00  0.00    +0.142 A 
ATOM      3  C   UNL     1      -2.192   4.631  25.075  0.00  0.00    +0.050 A 
ATOM      4  C   UNL     1      -2.236   3.840  24.846  0.00  0.00    +0.102 A 
ATOM      5  C   UNL     1      -1.544   3.407  24.719  0.00  0.00    +0.100 A 
ATOM      6  N   UNL     1      -1.759   2.642  24.498  0.00  0.00    -0.229 NA
ATOM      7  C   UNL     1      -2.583   2.602  24.487  0.00  0.00    +0.140 A 
ATOM      8  N   UNL     1      -2.878   3.341  24.702  0.00  0.00    -0.229 NA
ATOM     24  C   UNL     1      -0.809   3.766  24.822  0.00  0.00    +0.023 A 
ATOM     25  C   UNL     1      -0.765   4.558  25.051  0.00  0.00    +0.031 A 
ENDBRANCH   9   7
BRANCH  12  13
ATOM     13  C   UNL     1      -4.358   0.312  24.698  0.00  0.00    +0.099 C 
BRANCH  13  14
ATOM     14  C   UNL     1      -4.080  -0.450  24.848  0.00  0.00    -0.003 A 
ATOM     15  C   UNL     1      -3.711  -0.621  25.566  0.00  0.00    +0.000 A 
ATOM     16  C   UNL     1      -3.433  -1.383  25.715  0.00  0.00    +0.040 A 
ATOM     17  C   UNL     1      -3.523  -1.975  25.147  0.00  0.00    +0.176 A 
ATOM     18  O   UNL     1      -3.306  -2.770  25.138  0.00  0.00    -0.435 OA
ATOM     19  C   UNL     1      -3.540  -3.091  24.416  0.00  0.00    +0.429 C 
ATOM     20  O   UNL     1      -3.902  -2.493  23.977  0.00  0.00    -0.435 OA
ATOM     21  C   UNL     1      -3.891  -1.803  24.429  0.00  0.00    +0.176 A 
ATOM     22  C   UNL     1      -4.170  -1.041  24.279  0.00  0.00    +0.037 A 
ENDBRANCH  13  14
ENDBRANCH  12  13
TORSDOF 3
ENDMDL
MODEL 3
REMARK VINA RESULT:     -11.8      1.779      2.502
REMARK  Name = 
REMARK  3 active torsions:
REMARK  status: ('A' for Active; 'I' for Inactive)
REMARK    1  A    between atoms: C_7  and  C_9
REMARK    2  A    between atoms: N_12  and  C_13
REMARK    3  A    between atoms: C_13  and  C_14
REMARK                            x       y       z     vdW  Elec       q    Type
REMARK                         _______ _______ _______ _____ _____    ______ ____
ROOT
ATOM      9  C   UNL     1      -1.485   0.237  24.782  0.00  0.00    +0.076 C 
ATOM     10  C   UNL     1      -0.814   0.367  24.321  0.00  0.00    +0.026 C 
ATOM     11  C   UNL     1      -0.401   1.003  24.644  0.00  0.00    +0.073 C 
ATOM     12  N   UNL     1      -0.817   1.267  25.305  0.00  0.00    -0.269 NA
ATOM     23  C   UNL     1      -1.487   0.793  25.391  0.00  0.00    +0.080 C 
ENDROOT
BRANCH   9   7
ATOM      1  F   UNL     1      -3.887  -3.333  24.425  0.00  0.00    -0.204 F 
ATOM      2  C   UNL     1      -3.655  -2.542  24.390  0.00  0.00    +0.142 A 
ATOM      3  C   UNL     1      -2.901  -2.322  24.642  0.00  0.00    +0.050 A 
ATOM      4  C   UNL     1      -2.669  -1.532  24.607  0.00  0.00    +0.102 A 
ATOM      5  C   UNL     1      -3.191  -0.960  24.320  0.00  0.00    +0.100 A 
ATOM      6  N   UNL     1      -2.811  -0.229  24.350  0.00  0.00    -0.229 NA
ATOM      7  C   UNL     1      -2.054  -0.347  24.657  0.00  0.00    +0.140 A 
ATOM      8  N   UNL     1      -1.967  -1.152  24.815  0.00  0.00    -0.229 NA
ATOM     24  C   UNL     1      -3.944  -1.181  24.067  0.00  0.00    +0.023 A 
ATOM     25  C   UNL     1      -4.176  -1.972  24.102  0.00  0.00    +0.031 A 
ENDBRANCH   9   7
BRANCH  12  13
ATOM     13  C   UNL     1      -0.601   1.894  25.796  0.00  0.00    +0.099 C 
BRANCH  13  14
ATOM     14  C   UNL     1      -0.821   2.666  25.600  0.00  0.00    -0.003 A 
ATOM     15  C   UNL     1      -0.327   3.129  25.129  0.00  0.00    +0.000 A 
ATOM     16  C   UNL     1      -0.547   3.899  24.934  0.00  0.00    +0.040 A 
ATOM     17  C   UNL     1      -1.261   4.208  25.210  0.00  0.00    +0.176 A 
ATOM     18  O   UNL     1      -1.621   4.942  25.109  0.00  0.00    -0.435 OA
ATOM     19  C   UNL     1      -2.337   4.934  25.517  0.00  0.00    +0.429 C 
ATOM     20  O   UNL     1      -2.420   4.193  25.871  0.00  0.00    -0.435 OA
ATOM     21  C   UNL     1      -1.755   3.745  25.681  0.00  0.00    +0.176 A 
ATOM     22  C   UNL     1      -1.535   2.973  25.876  0.00  0.00    +0.037 A 
ENDBRANCH  13  14
ENDBRANCH  12  13
TORSDOF 3
ENDMDL
MODEL 4
REMARK VINA RESULT:     -11.1      2.567      4.951
REMARK  Name = 
REMARK  3 active torsions:
REMARK  status: ('A' for Active; 'I' for Inactive)
REMARK    1  A    between atoms: C_7  and  C_9
REMARK    2  A    between atoms: N_12  and  C_13
REMARK    3  A    between atoms: C_13  and  C_14
REMARK                            x       y       z     vdW  Elec       q    Type
REMARK                         _______ _______ _______ _____ _____    ______ ____
ROOT
ATOM      9  C   UNL     1      -4.431   0.439  24.839  0.00  0.00    +0.076 C 
ATOM     10  C   UNL     1      -4.648   0.002  24.173  0.00  0.00    +0.026 C 
ATOM     11  C   UNL     1      -4.390  -0.773  24.281  0.00  0.00    +0.073 C 
ATOM     12  N   UNL     1      -4.014  -0.817  25.014  0.00  0.00    -0.269 NA
ATOM     23  C   UNL     1      -4.040  -0.067  25.359  0.00  0.00    +0.080 C 
ENDROOT
BRANCH   9   7
ATOM      1  F   UNL     1      -5.963   4.378  25.720  0.00  0.00    -0.204 F 
ATOM      2  C   UNL     1      -5.450   3.774  25.489  0.00  0.00    +0.142 A 
ATOM      3  C   UNL     1      -5.705   2.989  25.506  0.00  0.00    +0.050 A 
ATOM      4  C   UNL     1      -5.193   2.385  25.276  0.00  0.00    +0.102 A 
ATOM      5  C   UNL     1      -4.426   2.565  25.028  0.00  0.00    +0.100 A 
ATOM      6  N   UNL     1      -4.048   1.858  24.835  0.00  0.00    -0.229 NA
ATOM      7  C   UNL     1      -4.580   1.241  24.962  0.00  0.00    +0.140 A 
ATOM      8  N   UNL     1      -5.287   1.566  25.234  0.00  0.00    -0.229 NA
ATOM     24  C   UNL     1      -4.172   3.349  25.012  0.00  0.00    +0.023 A 
ATOM     25  C   UNL     1      -4.685   3.954  25.243  0.00  0.00    +0.031 A 
ENDBRANCH   9   7
BRANCH  12  13
ATOM     13  C   UNL     1      -3.673  -1.491  25.345  0.00  0.00    +0.099 C 
BRANCH  13  14
ATOM     14  C   UNL     1      -2.901  -1.704  25.144  0.00  0.00    -0.003 A 
ATOM     15  C   UNL     1      -2.767  -2.318  24.609  0.00  0.00    +0.000 A 
ATOM     16  C   UNL     1      -1.996  -2.530  24.409  0.00  0.00    +0.040 A 
ATOM     17  C   UNL     1      -1.357  -2.129  24.744  0.00  0.00    +0.176 A 
ATOM     18  O   UNL     1      -0.543  -2.214  24.653  0.00  0.00    -0.435 OA
ATOM     19  C   UNL     1      -0.172  -1.654  25.131  0.00  0.00    +0.429 C 
ATOM     20  O   UNL     1      -0.758  -1.222  25.518  0.00  0.00    -0.435 OA
ATOM     21  C   UNL     1      -1.491  -1.515  25.279  0.00  0.00    +0.176 A 
ATOM     22  C   UNL     1      -2.263  -1.302  25.479  0.00  0.00    +0.037 A 
ENDBRANCH  13  14
ENDBRANCH  12  13
TORSDOF 3
ENDMDL
MODEL 5
REMARK VINA RESULT:     -11.0      1.758      2.258
REMARK  Name = 
REMARK  3 active torsions:
REMARK  status: ('A' for Active; 'I' for Inactive)
REMARK    1  A    between atoms: C_7  and  C_9
REMARK    2  A    between atoms: N_12  and  C_13
REMARK    3  A    between atoms: C_13  and  C_14
REMARK                            x       y       z     vdW  Elec       q    Type
REMARK                         _______ _______ _______ _____ _____    ______ ____
ROOT
ATOM      9  C   UNL     1      -1.735   0.486  25.020  0.00  0.00    +0.076 C 
ATOM     10  C   UNL     1      -1.090   0.720  25.478  0.00  0.00    +0.026 C 
ATOM     11  C   UNL     1      -1.020   1.540  25.419  0.00  0.00    +0.073 C 
ATOM     12  N   UNL     1      -1.622   1.812  24.926  0.00  0.00    -0.269 NA
ATOM     23  C   UNL     1      -2.064   1.160  24.679  0.00  0.00    +0.080 C 
ENDROOT
BRANCH   9   7
ATOM      1  F   UNL     1      -3.881  -3.247  24.701  0.00  0.00    -0.204 F 
ATOM      2  C   UNL     1      -3.265  -2.698  24.693  0.00  0.00    +0.142 A 
ATOM      3  C   UNL     1      -3.416  -1.907  24.872  0.00  0.00    +0.050 A 
ATOM      4  C   UNL     1      -2.801  -1.358  24.864  0.00  0.00    +0.102 A 
ATOM      5  C   UNL     1      -2.034  -1.600  24.677  0.00  0.00    +0.100 A 
ATOM      6  N   UNL     1      -1.542  -0.939  24.713  0.00  0.00    -0.229 NA
ATOM      7  C   UNL     1      -2.004  -0.288  24.922  0.00  0.00    +0.140 A 
ATOM      8  N   UNL     1      -2.781  -0.547  25.015  0.00  0.00    -0.229 NA
ATOM     24  C   UNL     1      -1.884  -2.391  24.499  0.00  0.00    +0.023 A 
ATOM     25  C   UNL     1      -2.500  -2.940  24.507  0.00  0.00    +0.031 A 
ENDBRANCH   9   7
BRANCH  12  13
ATOM     13  C   UNL     1      -1.759   2.598  24.715  0.00  0.00    +0.099 C 
BRANCH  13  14
ATOM     14  C   UNL     1      -2.391   3.011  25.049  0.00  0.00    -0.003 A 
ATOM     15  C   UNL     1      -2.266   3.500  25.702  0.00  0.00    +0.000 A 
ATOM     16  C   UNL     1      -2.897   3.912  26.035  0.00  0.00    +0.040 A 
ATOM     17  C   UNL     1      -3.655   3.837  25.716  0.00  0.00    +0.176 A 
ATOM     18  O   UNL     1      -4.378   4.172  25.924  0.00  0.00    -0.435 OA
ATOM     19  C   UNL     1      -4.950   3.892  25.401  0.00  0.00    +0.429 C 
ATOM     20  O   UNL     1      -4.580   3.383  24.868  0.00  0.00    -0.435 OA
ATOM     21  C   UNL     1      -3.779   3.348  25.063  0.00  0.00    +0.176 A 
ATOM     22  C   UNL     1      -3.147   2.935  24.729  0.00  0.00    +0.037 A 
ENDBRANCH  13  14
ENDBRANCH  12  13
TORSDOF 3
ENDMDL
MODEL 6
REMARK VINA RESULT:     -10.6      2.551      3.237
REMARK  Name = 
REMARK  3 active torsions:
REMARK  status: ('A' for Active; 'I' for Inactive)
REMARK    1  A    between atoms: C_7  and  C_9
REMARK    2  A    between atoms: N_12  and  C_13
REMARK    3  A    between atoms: C_13  and  C_14
REMARK                            x       y       z     vdW  Elec       q    Type
REMARK                         _______ _______ _______ _____ _____    ______ ____
ROOT
ATOM      9  C   UNL     1      -1.926   1.658  24.326  0.00  0.00    +0.076 C 
ATOM     10  C   UNL     1      -1.587   2.409  24.362  0.00  0.00    +0.026 C 
ATOM     11  C   UNL     1      -2.177   2.963  24.204  0.00  0.00    +0.073 C 
ATOM     12  N   UNL     1      -2.881   2.555  24.071  0.00  0.00    -0.269 NA
ATOM     23  C   UNL     1      -2.725   1.747  24.147  0.00  0.00    +0.080 C 
ENDROOT
BRANCH   9   7
ATOM      1  F   UNL     1      -0.332  -2.128  25.658  0.00  0.00    -0.204 F 
ATOM      2  C   UNL     1      -0.461  -1.453  25.201  0.00  0.00    +0.142 A 
ATOM      3  C   UNL     1      -1.012  -0.889  25.445  0.00  0.00    +0.050 A 
ATOM      4  C   UNL     1      -1.141  -0.214  24.989  0.00  0.00    +0.102 A 
ATOM      5  C   UNL     1      -0.719  -0.103  24.287  0.00  0.00    +0.100 A 
ATOM      6  N   UNL     1      -0.962   0.611  23.955  0.00  0.00    -0.229 NA
ATOM      7  C   UNL     1      -1.533   0.942  24.449  0.00  0.00    +0.140 A 
ATOM      8  N   UNL     1      -1.644   0.432  25.088  0.00  0.00    -0.229 NA
ATOM     24  C   UNL     1      -0.169  -0.667  24.044  0.00  0.00    +0.023 A 
ATOM     25  C   UNL     1      -0.040  -1.342  24.501  0.00  0.00    +0.031 A 
ENDBRANCH   9   7
BRANCH  12  13
ATOM     13  C   UNL     1      -3.612   2.893  23.893  0.00  0.00    +0.099 C 
BRANCH  13  14
ATOM     14  C   UNL     1      -4.192   2.952  24.477  0.00  0.00    -0.003 A 
ATOM     15  C   UNL     1      -4.226   3.620  24.960  0.00  0.00    +0.000 A 
ATOM     16  C   UNL     1      -4.806   3.679  25.543  0.00  0.00    +0.040 A 
ATOM     17  C   UNL     1      -5.353   3.069  25.644  0.00  0.00    +0.176 A 
ATOM     18  O   UNL     1      -5.982   2.973  26.168  0.00  0.00    -0.435 OA
ATOM     19  C   UNL     1      -6.337   2.246  26.010  0.00  0.00    +0.429 C 
ATOM     20  O   UNL     1      -5.928   1.892  25.387  0.00  0.00    -0.435 OA
ATOM     21  C   UNL     1      -5.320   2.401  25.161  0.00  0.00    +0.176 A 
ATOM     22  C   UNL     1      -4.739   2.342  24.577  0.00  0.00    +0.037 A 
ENDBRANCH  13  14
ENDBRANCH  12  13
TORSDOF 3
ENDMDL
MODEL 7
REMARK VINA RESULT:     -10.0      2.700      3.331
REMARK  Name = 
REMARK  3 active torsions:
REMARK  status: ('A' for Active; 'I' for Inactive)
REMARK    1  A    between atoms: C_7  and  C_9
REMARK    2  A    between atoms: N_12  and  C_13
REMARK    3  A    between atoms: C_13  and  C_14
REMARK                            x       y       z     vdW  Elec       q    Type
REMARK                         _______ _______ _______ _____ _____    ______ ____
ROOT
ATOM      9  C   UNL     1      -2.931   0.027  24.709  0.00  0.00    +0.076 C 
ATOM     10  C   UNL     1      -3.290  -0.408  25.310  0.00  0.00    +0.026 C 
ATOM     11  C   UNL     1      -4.085  -0.194  25.340  0.00  0.00    +0.073 C 
ATOM     12  N   UNL     1      -4.219   0.374  24.757  0.00  0.00    -0.269 NA
ATOM     23  C   UNL     1      -3.504   0.511  24.367  0.00  0.00    +0.080 C 
ENDROOT
BRANCH   9   7
ATOM      1  F   UNL     1       1.124   0.608  23.344  0.00  0.00    -0.204 F 
ATOM      2  C   UNL     1       0.448   0.247  23.651  0.00  0.00    +0.142 A 
ATOM      3  C   UNL     1      -0.251   0.679  23.726  0.00  0.00    +0.050 A 
ATOM      4  C   UNL     1      -0.926   0.319  24.033  0.00  0.00    +0.102 A 
ATOM      5  C   UNL     1      -0.903  -0.473  24.265  0.00  0.00    +0.100 A 
ATOM      6  N   UNL     1      -1.651  -0.678  24.546  0.00  0.00    -0.229 NA
ATOM      7  C   UNL     1      -2.136  -0.014  24.488  0.00  0.00    +0.140 A 
ATOM      8  N   UNL     1      -1.689   0.602  24.171  0.00  0.00    -0.229 NA
ATOM     24  C   UNL     1      -0.204  -0.904  24.189  0.00  0.00    +0.023 A 
ATOM     25  C   UNL     1       0.472  -0.543  23.882  0.00  0.00    +0.031 A 
ENDBRANCH   9   7
BRANCH  12  13
ATOM     13  C   UNL     1      -4.939   0.741  24.593  0.00  0.00    +0.099 C 
BRANCH  13  14
ATOM     14  C   UNL     1      -5.135   1.452  24.965  0.00  0.00    -0.003 A 
ATOM     15  C   UNL     1      -5.649   1.452  25.610  0.00  0.00    +0.000 A 
ATOM     16  C   UNL     1      -5.844   2.161  25.982  0.00  0.00    +0.040 A 
ATOM     17  C   UNL     1      -5.525   2.872  25.709  0.00  0.00    +0.176 A 
ATOM     18  O   UNL     1      -5.616   3.651  25.961  0.00  0.00    -0.435 OA
ATOM     19  C   UNL     1      -5.158   4.133  25.473  0.00  0.00    +0.429 C 
ATOM     20  O   UNL     1      -4.784   3.651  24.918  0.00  0.00    -0.435 OA
ATOM     21  C   UNL     1      -5.011   2.872  25.064  0.00  0.00    +0.176 A 
ATOM     22  C   UNL     1      -4.815   2.161  24.692  0.00  0.00    +0.037 A 
ENDBRANCH  13  14
ENDBRANCH  12  13
TORSDOF 3
ENDMDL
MODEL 8
REMARK VINA RESULT:      -9.9      3.061      4.884
REMARK  Name = 
REMARK  3 active torsions:
REMARK  status: ('A' for Active; 'I' for Inactive)
REMARK    1  A    between atoms: C_7  and  C_9
REMARK    2  A    between atoms: N_12  and  C_13
REMARK    3  A    between atoms: C_13  and  C_14
REMARK                            x       y       z     vdW  Elec       q    Type
REMARK                         _______ _______ _______ _____ _____    ______ ____
ROOT
ATOM      9  C   UNL     1      -2.739   2.009  24.300  0.00  0.00    +0.076 C 
ATOM     10  C   UNL     1      -2.482   2.029  23.516  0.00  0.00    +0.026 C 
ATOM     11  C   UNL     1      -1.759   1.635  23.475  0.00  0.00    +0.073 C 
ATOM     12  N   UNL     1      -1.569   1.372  24.233  0.00  0.00    -0.269 NA
ATOM     23  C   UNL     1      -2.175   1.603  24.743  0.00  0.00    +0.080 C 
ENDROOT
BRANCH   9   7
ATOM      1  F   UNL     1      -5.994   4.451  25.746  0.00  0.00    -0.204 F 
ATOM      2  C   UNL     1      -5.556   3.789  25.516  0.00  0.00    +0.142 A 
ATOM      3  C   UNL     1      -4.783   3.882  25.244  0.00  0.00    +0.050 A 
ATOM      4  C   UNL     1      -4.346   3.221  25.015  0.00  0.00    +0.102 A 
ATOM      5  C   UNL     1      -4.682   2.468  25.056  0.00  0.00    +0.100 A 
ATOM      6  N   UNL     1      -4.121   1.923  24.794  0.00  0.00    -0.229 NA
ATOM      7  C   UNL     1      -3.438   2.338  24.590  0.00  0.00    +0.140 A 
ATOM      8  N   UNL     1      -3.577   3.140  24.726  0.00  0.00    -0.229 NA
ATOM     24  C   UNL     1      -5.455   2.377  25.328  0.00  0.00    +0.023 A 
ATOM     25  C   UNL     1      -5.893   3.038  25.558  0.00  0.00    +0.031 A 
ENDBRANCH   9   7
BRANCH  12  13
ATOM     13  C   UNL     1      -0.891   0.951  24.444  0.00  0.00    +0.099 C 
BRANCH  13  14
ATOM     14  C   UNL     1      -0.955   0.171  24.706  0.00  0.00    -0.003 A 
ATOM     15  C   UNL     1      -0.921   0.003  25.514  0.00  0.00    +0.000 A 
ATOM     16  C   UNL     1      -0.985  -0.776  25.775  0.00  0.00    +0.040 A 
ATOM     17  C   UNL     1      -1.082  -1.389  25.231  0.00  0.00    +0.176 A 
ATOM     18  O   UNL     1      -1.160  -2.204  25.324  0.00  0.00    -0.435 OA
ATOM     19  C   UNL     1      -1.242  -2.540  24.576  0.00  0.00    +0.429 C 
ATOM     20  O   UNL     1      -1.215  -1.932  24.019  0.00  0.00    -0.435 OA
ATOM     21  C   UNL     1      -1.116  -1.221  24.424  0.00  0.00    +0.176 A 
ATOM     22  C   UNL     1      -1.052  -0.441  24.161  0.00  0.00    +0.037 A 
ENDBRANCH  13  14
ENDBRANCH  12  13
TORSDOF 3
ENDMDL
