MODEL 1
REMARK VINA RESULT:     -13.8      0.000      0.000
REMARK  Name = 
REMARK  5 active torsions:
REMARK  status: ('A' for Active; 'I' for Inactive)
REMARK    1  A    between atoms: C_2  and  N_4
REMARK    2  A    between atoms: N_7  and  C_8
REMARK    3  A    between atoms: C_10  and  C_13
REMARK    4  A    between atoms: N_16  and  C_20
REMARK    5  A    between atoms: C_23  and  C_26
REMARK                            x       y       z     vdW  Elec       q    Type
REMARK                         _______ _______ _______ _____ _____    ______ ____
ROOT
ATOM     13  C   UNL     1      -4.384   1.765  24.933  0.00  0.00    +0.010 A 
ATOM     14  C   UNL     1      -3.956   1.091  24.724  0.00  0.00    +0.058 A 
ATOM     15  C   UNL     1      -3.201   1.079  24.393  0.00  0.00    +0.052 C 
ATOM     16  N   UNL     1      -4.417   0.431  24.905  0.00  0.00    -0.234 N 
ATOM     17  N   UNL     1      -5.129   0.696  25.226  0.00  0.00    -0.170 NA
ATOM     18  C   UNL     1      -5.109   1.521  25.243  0.00  0.00    +0.077 A 
ATOM     19  C   UNL     1      -5.708   2.015  25.522  0.00  0.00    +0.054 C 
ENDROOT
BRANCH  16  20
ATOM     20  C   UNL     1      -4.203  -0.358  24.786  0.00  0.00    +0.082 A 
ATOM     21  C   UNL     1      -3.833  -0.779  25.391  0.00  0.00    +0.019 A 
ATOM     22  C   UNL     1      -3.619  -1.567  25.273  0.00  0.00    -0.003 A 
ATOM     23  C   UNL     1      -3.775  -1.933  24.550  0.00  0.00    -0.023 A 
ATOM     24  C   UNL     1      -4.145  -1.511  23.946  0.00  0.00    -0.003 A 
ATOM     25  C   UNL     1      -4.359  -0.723  24.064  0.00  0.00    +0.019 A 
BRANCH  23  26
ATOM     26  C   UNL     1      -3.561  -2.721  24.432  0.00  0.00    +0.019 C 
ATOM     27  C   UNL     1      -3.348  -3.509  24.314  0.00  0.00    +0.004 C 
ATOM     28  C   UNL     1      -2.921  -2.624  24.942  0.00  0.00    +0.004 C 
ATOM     29  C   UNL     1      -4.202  -2.818  23.921  0.00  0.00    +0.004 C 
ENDBRANCH  23  26
ENDBRANCH  16  20
BRANCH  13  10
ATOM      8  C   UNL     1      -3.487   3.699  25.035  0.00  0.00    +0.119 C 
ATOM      9  C   UNL     1      -3.569   2.928  25.315  0.00  0.00    +0.035 C 
ATOM     10  C   UNL     1      -4.131   2.545  24.847  0.00  0.00    +0.048 C 
ATOM     11  C   UNL     1      -4.396   3.081  24.278  0.00  0.00    -0.025 C 
ATOM     12  C   UNL     1      -3.998   3.794  24.394  0.00  0.00    -0.009 C 
BRANCH   8   7
ATOM      4  N   UNL     1      -1.718   4.943  25.338  0.00  0.00    -0.189 NA
ATOM      5  C   UNL     1      -2.224   4.366  25.031  0.00  0.00    +0.339 C 
ATOM      6  O   UNL     1      -1.970   3.882  24.414  0.00  0.00    -0.249 OA
ATOM      7  N   UNL     1      -2.982   4.276  25.342  0.00  0.00    -0.184 NA
BRANCH   4   2
ATOM      1  C   UNL     1      -0.765   5.719  24.610  0.00  0.00    +0.023 C 
ATOM      2  C   UNL     1      -0.960   5.033  25.027  0.00  0.00    +0.097 C 
ATOM      3  C   UNL     1      -0.397   4.441  25.132  0.00  0.00    +0.023 C 
ENDBRANCH   4   2
ENDBRANCH   8   7
ENDBRANCH  13  10
TORSDOF 5
ENDMDL
MODEL 2
REMARK VINA RESULT:     -11.3      1.441      5.658
REMARK  Name = 
REMARK  5 active torsions:
REMARK  status: ('A' for Active; 'I' for Inactive)
REMARK    1  A    between atoms: C_2  and  N_4
REMARK    2  A    between atoms: N_7  and  C_8
REMARK    3  A    between atoms: C_10  and  C_13
REMARK    4  A    between atoms: N_16  and  C_20
REMARK    5  A    between atoms: C_23  and  C_26
REMARK                            x       y       z     vdW  Elec       q    Type
REMARK                         _______ _______ _______ _____ _____    ______ ____
ROOT
ATOM     13  C   UNL     1      -4.157   1.648  25.057  0.00  0.00    +0.010 A 
ATOM     14  C   UNL     1      -3.444   2.044  24.926  0.00  0.00    +0.058 A 
ATOM     15  C   UNL     1      -2.752   1.710  24.629  0.00  0.00    +0.052 C 
ATOM     16  N   UNL     1      -3.548   2.833  25.145  0.00  0.00    -0.234 N 
ATOM     17  N   UNL     1      -4.323   2.925  25.411  0.00  0.00    -0.170 NA
ATOM     18  C   UNL     1      -4.700   2.192  25.356  0.00  0.00    +0.077 A 
ATOM     19  C   UNL     1      -5.482   2.032  25.565  0.00  0.00    +0.054 C 
ENDROOT
BRANCH  16  20
ATOM     20  C   UNL     1      -2.976   3.427  25.105  0.00  0.00    +0.082 A 
ATOM     21  C   UNL     1      -2.491   3.576  25.756  0.00  0.00    +0.019 A 
ATOM     22  C   UNL     1      -1.919   4.169  25.716  0.00  0.00    -0.003 A 
ATOM     23  C   UNL     1      -1.832   4.613  25.026  0.00  0.00    -0.023 A 
ATOM     24  C   UNL     1      -2.317   4.463  24.376  0.00  0.00    -0.003 A 
ATOM     25  C   UNL     1      -2.889   3.870  24.415  0.00  0.00    +0.019 A 
BRANCH  23  26
ATOM     26  C   UNL     1      -1.260   5.207  24.987  0.00  0.00    +0.019 C 
ATOM     27  C   UNL     1      -0.689   5.800  24.947  0.00  0.00    +0.004 C 
ATOM     28  C   UNL     1      -1.840   5.775  25.133  0.00  0.00    +0.004 C 
ATOM     29  C   UNL     1      -0.681   4.638  24.841  0.00  0.00    +0.004 C 
ENDBRANCH  23  26
ENDBRANCH  16  20
BRANCH  13  10
ATOM      8  C   UNL     1      -4.265  -0.483  24.999  0.00  0.00    +0.119 C 
ATOM      9  C   UNL     1      -3.970   0.215  25.326  0.00  0.00    +0.035 C 
ATOM     10  C   UNL     1      -4.300   0.849  24.914  0.00  0.00    +0.048 C 
ATOM     11  C   UNL     1      -4.799   0.542  24.332  0.00  0.00    -0.025 C 
ATOM     12  C   UNL     1      -4.777  -0.281  24.385  0.00  0.00    -0.009 C 
BRANCH   8   7
ATOM      4  N   UNL     1      -3.410  -2.491  25.022  0.00  0.00    -0.189 NA
ATOM      5  C   UNL     1      -3.595  -1.725  24.777  0.00  0.00    +0.339 C 
ATOM      6  O   UNL     1      -3.295  -1.436  24.066  0.00  0.00    -0.249 OA
ATOM      7  N   UNL     1      -4.080  -1.249  25.245  0.00  0.00    -0.184 NA
BRANCH   4   2
ATOM      1  C   UNL     1      -2.106  -2.863  24.571  0.00  0.00    +0.023 C 
ATOM      2  C   UNL     1      -2.925  -2.967  24.555  0.00  0.00    +0.097 C 
ATOM      3  C   UNL     1      -3.257  -3.547  24.073  0.00  0.00    +0.023 C 
ENDBRANCH   4   2
ENDBRANCH   8   7
ENDBRANCH  13  10
TORSDOF 5
ENDMDL
MODEL 3
REMARK VINA RESULT:     -10.9      2.580      6.404
REMARK  Name = 
REMARK  5 active torsions:
REMARK  status: ('A' for Active; 'I' for Inactive)
REMARK    1  A    between atoms: C_2  and  N_4
REMARK    2  A    between atoms: N_7  and  C_8
REMARK    3  A    between atoms: C_10  and  C_13
REMARK    4  A    between atoms: N_16  and  C_20
REMARK    5  A    between atoms: C_23  and  C_26
REMARK                            x       y       z     vdW  Elec       q    Type
REMARK                         _______ _______ _______ _____ _____    ______ ____
ROOT
ATOM     13  C   UNL     1      -0.481   0.484  24.485  0.00  0.00    +0.010 A 
ATOM     14  C   UNL     1      -0.884   1.140  24.783  0.00  0.00    +0.058 A 
ATOM     15  C   UNL     1      -1.533   1.120  25.291  0.00  0.00    +0.052 C 
ATOM     16  N   UNL     1      -0.524   1.818  24.482  0.00  0.00    -0.234 N 
ATOM     17  N   UNL     1       0.101   1.583  23.998  0.00  0.00    -0.170 NA
ATOM     18  C   UNL     1       0.128   0.758  24.000  0.00  0.00    +0.077 A 
ATOM     19  C   UNL     1       0.669   0.289  23.590  0.00  0.00    +0.054 C 
ENDROOT
BRANCH  16  20
ATOM     20  C   UNL     1      -0.750   2.597  24.636  0.00  0.00    +0.082 A 
ATOM     21  C   UNL     1      -1.301   2.971  24.149  0.00  0.00    +0.019 A 
ATOM     22  C   UNL     1      -1.527   3.749  24.304  0.00  0.00    -0.003 A 
ATOM     23  C   UNL     1      -1.202   4.153  24.945  0.00  0.00    -0.023 A 
ATOM     24  C   UNL     1      -0.651   3.779  25.432  0.00  0.00    -0.003 A 
ATOM     25  C   UNL     1      -0.425   3.001  25.277  0.00  0.00    +0.019 A 
BRANCH  23  26
ATOM     26  C   UNL     1      -1.428   4.932  25.099  0.00  0.00    +0.019 C 
ATOM     27  C   UNL     1      -1.654   5.710  25.254  0.00  0.00    +0.004 C 
ATOM     28  C   UNL     1      -0.746   5.204  24.725  0.00  0.00    +0.004 C 
ATOM     29  C   UNL     1      -2.110   4.659  25.474  0.00  0.00    +0.004 C 
ENDBRANCH  23  26
ENDBRANCH  16  20
BRANCH  13  10
ATOM      8  C   UNL     1      -1.164  -1.537  24.554  0.00  0.00    +0.119 C 
ATOM      9  C   UNL     1      -1.146  -0.795  24.195  0.00  0.00    +0.035 C 
ATOM     10  C   UNL     1      -0.656  -0.305  24.644  0.00  0.00    +0.048 C 
ATOM     11  C   UNL     1      -0.372  -0.746  25.282  0.00  0.00    -0.025 C 
ATOM     12  C   UNL     1      -0.686  -1.507  25.226  0.00  0.00    -0.009 C 
BRANCH   8   7
ATOM      4  N   UNL     1      -2.818  -2.910  24.176  0.00  0.00    -0.189 NA
ATOM      5  C   UNL     1      -2.395  -2.253  24.442  0.00  0.00    +0.339 C 
ATOM      6  O   UNL     1      -2.780  -1.657  24.860  0.00  0.00    -0.249 OA
ATOM      7  N   UNL     1      -1.587  -2.194  24.288  0.00  0.00    -0.184 NA
BRANCH   4   2
ATOM      1  C   UNL     1      -3.890  -3.369  25.002  0.00  0.00    +0.023 C 
ATOM      2  C   UNL     1      -3.627  -2.969  24.329  0.00  0.00    +0.097 C 
ATOM      3  C   UNL     1      -4.171  -2.630  23.812  0.00  0.00    +0.023 C 
ENDBRANCH   4   2
ENDBRANCH   8   7
ENDBRANCH  13  10
TORSDOF 5
ENDMDL
MODEL 4
REMARK VINA RESULT:      -9.9      2.053      2.876
REMARK  Name = 
REMARK  5 active torsions:
REMARK  status: ('A' for Active; 'I' for Inactive)
REMARK    1  A    between atoms: C_2  and  N_4
REMARK    2  A    between atoms: N_7  and  C_8
REMARK    3  A    between atoms: C_10  and  C_13
REMARK    4  A    between atoms: N_16  and  C_20
REMARK    5  A    between atoms: C_23  and  C_26
REMARK                            x       y       z     vdW  Elec       q    Type
REMARK                         _______ _______ _______ _____ _____    ______ ____
ROOT
ATOM     13  C   UNL     1      -0.793   0.783  24.834  0.00  0.00    +0.010 A 
ATOM     14  C   UNL     1      -1.487   0.353  24.958  0.00  0.00    +0.058 A 
ATOM     15  C   UNL     1      -2.090   0.548  25.485  0.00  0.00    +0.052 C 
ATOM     16  N   UNL     1      -1.470  -0.305  24.461  0.00  0.00    -0.234 N 
ATOM     17  N   UNL     1      -0.767  -0.283  24.030  0.00  0.00    -0.170 NA
ATOM     18  C   UNL     1      -0.348   0.390  24.261  0.00  0.00    +0.077 A 
ATOM     19  C   UNL     1       0.386   0.628  23.970  0.00  0.00    +0.054 C 
ENDROOT
BRANCH  16  20
ATOM     20  C   UNL     1      -2.055  -0.885  24.404  0.00  0.00    +0.082 A 
ATOM     21  C   UNL     1      -2.798  -0.693  24.101  0.00  0.00    +0.019 A 
ATOM     22  C   UNL     1      -3.382  -1.273  24.044  0.00  0.00    -0.003 A 
ATOM     23  C   UNL     1      -3.223  -2.044  24.290  0.00  0.00    -0.023 A 
ATOM     24  C   UNL     1      -2.480  -2.236  24.593  0.00  0.00    -0.003 A 
ATOM     25  C   UNL     1      -1.896  -1.656  24.650  0.00  0.00    +0.019 A 
BRANCH  23  26
ATOM     26  C   UNL     1      -3.808  -2.624  24.233  0.00  0.00    +0.019 C 
ATOM     27  C   UNL     1      -4.392  -3.203  24.176  0.00  0.00    +0.004 C 
ATOM     28  C   UNL     1      -4.285  -2.101  23.809  0.00  0.00    +0.004 C 
ATOM     29  C   UNL     1      -3.331  -3.147  24.657  0.00  0.00    +0.004 C 
ENDBRANCH  23  26
ENDBRANCH  16  20
BRANCH  13  10
ATOM      8  C   UNL     1      -0.326   2.770  25.457  0.00  0.00    +0.119 C 
ATOM      9  C   UNL     1      -0.569   2.236  24.878  0.00  0.00    +0.035 C 
ATOM     10  C   UNL     1      -0.582   1.482  25.216  0.00  0.00    +0.048 C 
ATOM     11  C   UNL     1      -0.347   1.553  26.004  0.00  0.00    -0.025 C 
ATOM     12  C   UNL     1      -0.189   2.349  26.153  0.00  0.00    -0.009 C 
BRANCH   8   7
ATOM      4  N   UNL     1      -0.809   4.876  25.140  0.00  0.00    -0.189 NA
ATOM      5  C   UNL     1      -0.899   4.061  25.240  0.00  0.00    +0.339 C 
ATOM      6  O   UNL     1      -1.651   3.724  25.221  0.00  0.00    -0.249 OA
ATOM      7  N   UNL     1      -0.236   3.585  25.358  0.00  0.00    -0.184 NA
BRANCH   4   2
ATOM      1  C   UNL     1      -1.499   5.869  24.378  0.00  0.00    +0.023 C 
ATOM      2  C   UNL     1      -1.472   5.352  25.022  0.00  0.00    +0.097 C 
ATOM      3  C   UNL     1      -2.107   5.312  25.545  0.00  0.00    +0.023 C 
ENDBRANCH   4   2
ENDBRANCH   8   7
ENDBRANCH  13  10
TORSDOF 5
ENDMDL
MODEL 5
REMARK VINA RESULT:      -9.8      3.440      4.841
REMARK  Name = 
REMARK  5 active torsions:
REMARK  status: ('A' for Active; 'I' for Inactive)
REMARK    1  A    between atoms: C_2  and  N_4
REMARK    2  A    between atoms: N_7  and  C_8
REMARK    3  A    between atoms: C_10  and  C_13
REMARK    4  A    between atoms: N_16  and  C_20
REMARK    5  A    between atoms: C_23  and  C_26
REMARK                            x       y       z     vdW  Elec       q    Type
REMARK                         _______ _______ _______ _____ _____    ______ ____
ROOT
ATOM     13  C   UNL     1      -1.210   0.893  24.522  0.00  0.00    +0.010 A 
ATOM     14  C   UNL     1      -2.020   0.842  24.373  0.00  0.00    +0.058 A 
ATOM     15  C   UNL     1      -2.384   0.327  23.843  0.00  0.00    +0.052 C 
ATOM     16  N   UNL     1      -2.401   1.399  24.848  0.00  0.00    -0.234 N 
ATOM     17  N   UNL     1      -1.827   1.794  25.290  0.00  0.00    -0.170 NA
ATOM     18  C   UNL     1      -1.091   1.480  25.089  0.00  0.00    +0.077 A 
ATOM     19  C   UNL     1      -0.363   1.714  25.399  0.00  0.00    +0.054 C 
ENDROOT
BRANCH  16  20
ATOM     20  C   UNL     1      -3.214   1.538  24.876  0.00  0.00    +0.082 A 
ATOM     21  C   UNL     1      -3.709   1.010  25.273  0.00  0.00    +0.019 A 
ATOM     22  C   UNL     1      -4.521   1.148  25.301  0.00  0.00    -0.003 A 
ATOM     23  C   UNL     1      -4.840   1.814  24.932  0.00  0.00    -0.023 A 
ATOM     24  C   UNL     1      -4.345   2.342  24.536  0.00  0.00    -0.003 A 
ATOM     25  C   UNL     1      -3.532   2.204  24.508  0.00  0.00    +0.019 A 
BRANCH  23  26
ATOM     26  C   UNL     1      -5.653   1.952  24.961  0.00  0.00    +0.019 C 
ATOM     27  C   UNL     1      -6.465   2.091  24.989  0.00  0.00    +0.004 C 
ATOM     28  C   UNL     1      -5.515   2.691  25.301  0.00  0.00    +0.004 C 
ATOM     29  C   UNL     1      -5.790   1.213  24.621  0.00  0.00    +0.004 C 
ENDBRANCH  23  26
ENDBRANCH  16  20
BRANCH  13  10
ATOM      8  C   UNL     1       0.370   0.043  23.366  0.00  0.00    +0.119 C 
ATOM      9  C   UNL     1      -0.133   0.671  23.546  0.00  0.00    +0.035 C 
ATOM     10  C   UNL     1      -0.623   0.436  24.167  0.00  0.00    +0.048 C 
ATOM     11  C   UNL     1      -0.421  -0.339  24.370  0.00  0.00    -0.025 C 
ATOM     12  C   UNL     1       0.193  -0.581  23.875  0.00  0.00    -0.009 C 
BRANCH   8   7
ATOM      4  N   UNL     1       2.320   0.168  22.391  0.00  0.00    -0.189 NA
ATOM      5  C   UNL     1       1.740   0.171  22.978  0.00  0.00    +0.339 C 
ATOM      6  O   UNL     1       1.949   0.306  23.764  0.00  0.00    -0.249 OA
ATOM      7  N   UNL     1       0.950   0.040  22.778  0.00  0.00    -0.184 NA
BRANCH   4   2
ATOM      1  C   UNL     1       3.599  -0.339  22.777  0.00  0.00    +0.023 C 
ATOM      2  C   UNL     1       3.109   0.299  22.591  0.00  0.00    +0.097 C 
ATOM      3  C   UNL     1       3.409   1.067  22.606  0.00  0.00    +0.023 C 
ENDBRANCH   4   2
ENDBRANCH   8   7
ENDBRANCH  13  10
TORSDOF 5
ENDMDL
