MODEL 1
REMARK VINA RESULT:      -9.6      0.000      0.000
REMARK  Name = 
REMARK  4 active torsions:
REMARK  status: ('A' for Active; 'I' for Inactive)
REMARK    1  A    between atoms: C_3  and  C_8
REMARK    2  A    between atoms: C_11  and  C_13
REMARK    3  A    between atoms: N_17  and  C_18
REMARK    4  A    between atoms: C_18  and  C_19
REMARK                            x       y       z     vdW  Elec       q    Type
REMARK                         _______ _______ _______ _____ _____    ______ ____
ROOT
ATOM      8  C   UNL     1      -4.276   1.591  24.549  0.00  0.00    +0.208 A 
ATOM      9  N   UNL     1      -3.899   1.610  23.817  0.00  0.00    -0.056 NA
ATOM     10  O   UNL     1      -3.628   0.849  23.650  0.00  0.00    -0.336 OA
ATOM     11  C   UNL     1      -3.838   0.360  24.281  0.00  0.00    +0.251 A 
ATOM     12  N   UNL     1      -4.239   0.819  24.837  0.00  0.00    -0.189 NA
ENDROOT
BRANCH   8   3
ATOM      1  N   UNL     1      -3.357   2.875  25.029  0.00  0.00    -0.107 NA
ATOM      2  C   UNL     1      -4.171   2.875  25.169  0.00  0.00    +0.176 A 
ATOM      3  C   UNL     1      -4.630   2.233  24.929  0.00  0.00    +0.093 A 
ATOM      4  C   UNL     1      -5.443   2.233  25.070  0.00  0.00    +0.107 A 
ATOM      5  N   UNL     1      -5.797   2.874  25.449  0.00  0.00    -0.222 NA
ATOM      6  C   UNL     1      -5.336   3.516  25.689  0.00  0.00    +0.200 A 
ATOM      7  N   UNL     1      -4.524   3.516  25.549  0.00  0.00    -0.206 NA
ENDBRANCH   8   3
BRANCH  11  13
ATOM     13  C   UNL     1      -3.676  -0.447  24.344  0.00  0.00    +0.138 C 
ATOM     14  C   UNL     1      -4.198  -1.061  24.171  0.00  0.00    +0.027 C 
ATOM     15  C   UNL     1      -3.807  -1.774  24.311  0.00  0.00    +0.019 C 
ATOM     16  C   UNL     1      -3.043  -1.600  24.570  0.00  0.00    +0.073 C 
ATOM     17  N   UNL     1      -2.962  -0.780  24.590  0.00  0.00    -0.260 NA
BRANCH  17  18
ATOM     18  C   UNL     1      -2.286  -0.365  24.818  0.00  0.00    +0.139 C 
BRANCH  18  19
ATOM     19  C   UNL     1      -1.571  -0.763  24.913  0.00  0.00    +0.155 A 
ATOM     20  N   UNL     1      -0.994  -0.870  24.332  0.00  0.00    -0.226 NA
ATOM     21  C   UNL     1      -0.372  -1.298  24.667  0.00  0.00    +0.121 A 
ATOM     22  C   UNL     1      -0.565  -1.455  25.453  0.00  0.00    +0.121 A 
ATOM     23  N   UNL     1      -1.305  -1.125  25.606  0.00  0.00    -0.226 NA
ENDBRANCH  18  19
ENDBRANCH  17  18
ENDBRANCH  11  13
TORSDOF 4
ENDMDL
MODEL 2
REMARK VINA RESULT:      -9.5      1.796      3.893
REMARK  Name = 
REMARK  4 active torsions:
REMARK  status: ('A' for Active; 'I' for Inactive)
REMARK    1  A    between atoms: C_3  and  C_8
REMARK    2  A    between atoms: C_11  and  C_13
REMARK    3  A    between atoms: N_17  and  C_18
REMARK    4  A    between atoms: C_18  and  C_19
REMARK                            x       y       z     vdW  Elec       q    Type
REMARK                         _______ _______ _______ _____ _____    ______ ____
ROOT
ATOM      8  C   UNL     1      -4.028  -0.237  24.785  0.00  0.00    +0.208 A 
ATOM      9  N   UNL     1      -4.432   0.102  25.417  0.00  0.00    -0.056 NA
ATOM     10  O   UNL     1      -4.386   0.923  25.338  0.00  0.00    -0.336 OA
ATOM     11  C   UNL     1      -3.952   1.089  24.657  0.00  0.00    +0.251 A 
ATOM     12  N   UNL     1      -3.730   0.371  24.314  0.00  0.00    -0.189 NA
ENDROOT
BRANCH   8   3
ATOM      1  N   UNL     1      -3.229  -1.177  25.881  0.00  0.00    -0.107 NA
ATOM      2  C   UNL     1      -3.537  -1.516  25.194  0.00  0.00    +0.176 A 
ATOM      3  C   UNL     1      -3.936  -1.046  24.646  0.00  0.00    +0.093 A 
ATOM      4  C   UNL     1      -4.244  -1.384  23.959  0.00  0.00    +0.107 A 
ATOM      5  N   UNL     1      -4.152  -2.192  23.820  0.00  0.00    -0.222 NA
ATOM      6  C   UNL     1      -3.752  -2.662  24.369  0.00  0.00    +0.200 A 
ATOM      7  N   UNL     1      -3.445  -2.324  25.055  0.00  0.00    -0.206 NA
ENDBRANCH   8   3
BRANCH  11  13
ATOM     13  C   UNL     1      -3.771   1.841  24.368  0.00  0.00    +0.138 C 
ATOM     14  C   UNL     1      -4.245   2.296  23.871  0.00  0.00    +0.027 C 
ATOM     15  C   UNL     1      -3.852   3.005  23.722  0.00  0.00    +0.019 C 
ATOM     16  C   UNL     1      -3.133   2.988  24.128  0.00  0.00    +0.073 C 
ATOM     17  N   UNL     1      -3.084   2.269  24.527  0.00  0.00    -0.260 NA
BRANCH  17  18
ATOM     18  C   UNL     1      -2.457   2.020  25.003  0.00  0.00    +0.139 C 
BRANCH  18  19
ATOM     19  C   UNL     1      -1.786   2.493  25.082  0.00  0.00    +0.155 A 
ATOM     20  N   UNL     1      -1.665   3.069  25.661  0.00  0.00    -0.226 NA
ATOM     21  C   UNL     1      -0.923   3.407  25.533  0.00  0.00    +0.121 A 
ATOM     22  C   UNL     1      -0.586   3.040  24.876  0.00  0.00    +0.121 A 
ATOM     23  N   UNL     1      -1.119   2.476  24.597  0.00  0.00    -0.226 NA
ENDBRANCH  18  19
ENDBRANCH  17  18
ENDBRANCH  11  13
TORSDOF 4
ENDMDL
MODEL 3
REMARK VINA RESULT:      -9.2      1.848      2.614
REMARK  Name = 
REMARK  4 active torsions:
REMARK  status: ('A' for Active; 'I' for Inactive)
REMARK    1  A    between atoms: C_3  and  C_8
REMARK    2  A    between atoms: C_11  and  C_13
REMARK    3  A    between atoms: N_17  and  C_18
REMARK    4  A    between atoms: C_18  and  C_19
REMARK                            x       y       z     vdW  Elec       q    Type
REMARK                         _______ _______ _______ _____ _____    ______ ____
ROOT
ATOM      8  C   UNL     1      -3.489   2.613  24.830  0.00  0.00    +0.208 A 
ATOM      9  N   UNL     1      -3.183   3.073  24.218  0.00  0.00    -0.056 NA
ATOM     10  O   UNL     1      -2.360   3.046  24.266  0.00  0.00    -0.336 OA
ATOM     11  C   UNL     1      -2.158   2.569  24.909  0.00  0.00    +0.251 A 
ATOM     12  N   UNL     1      -2.856   2.301  25.258  0.00  0.00    -0.189 NA
ENDROOT
BRANCH   8   3
ATOM      1  N   UNL     1      -4.357   3.750  25.653  0.00  0.00    -0.107 NA
ATOM      2  C   UNL     1      -4.723   3.055  25.399  0.00  0.00    +0.176 A 
ATOM      3  C   UNL     1      -4.289   2.487  24.988  0.00  0.00    +0.093 A 
ATOM      4  C   UNL     1      -4.655   1.792  24.735  0.00  0.00    +0.107 A 
ATOM      5  N   UNL     1      -5.455   1.665  24.893  0.00  0.00    -0.222 NA
ATOM      6  C   UNL     1      -5.888   2.234  25.304  0.00  0.00    +0.200 A 
ATOM      7  N   UNL     1      -5.523   2.928  25.557  0.00  0.00    -0.206 NA
ENDBRANCH   8   3
BRANCH  11  13
ATOM     13  C   UNL     1      -1.391   2.391  25.158  0.00  0.00    +0.138 C 
ATOM     14  C   UNL     1      -0.968   2.788  25.744  0.00  0.00    +0.027 C 
ATOM     15  C   UNL     1      -0.229   2.427  25.814  0.00  0.00    +0.019 C 
ATOM     16  C   UNL     1      -0.196   1.807  25.270  0.00  0.00    +0.073 C 
ATOM     17  N   UNL     1      -0.914   1.785  24.865  0.00  0.00    -0.260 NA
BRANCH  17  18
ATOM     18  C   UNL     1      -1.120   1.251  24.271  0.00  0.00    +0.139 C 
BRANCH  18  19
ATOM     19  C   UNL     1      -0.643   0.594  24.125  0.00  0.00    +0.155 A 
ATOM     20  N   UNL     1      -0.017   0.559  23.587  0.00  0.00    -0.226 NA
ATOM     21  C   UNL     1       0.304  -0.201  23.621  0.00  0.00    +0.121 A 
ATOM     22  C   UNL     1      -0.123  -0.634  24.178  0.00  0.00    +0.121 A 
ATOM     23  N   UNL     1      -0.708  -0.144  24.489  0.00  0.00    -0.226 NA
ENDBRANCH  18  19
ENDBRANCH  17  18
ENDBRANCH  11  13
TORSDOF 4
ENDMDL
MODEL 4
REMARK VINA RESULT:      -9.0      1.702      2.954
REMARK  Name = 
REMARK  4 active torsions:
REMARK  status: ('A' for Active; 'I' for Inactive)
REMARK    1  A    between atoms: C_3  and  C_8
REMARK    2  A    between atoms: C_11  and  C_13
REMARK    3  A    between atoms: N_17  and  C_18
REMARK    4  A    between atoms: C_18  and  C_19
REMARK                            x       y       z     vdW  Elec       q    Type
REMARK                         _______ _______ _______ _____ _____    ______ ____
ROOT
ATOM      8  C   UNL     1      -2.739   3.068  24.479  0.00  0.00    +0.208 A 
ATOM      9  N   UNL     1      -2.985   2.925  23.706  0.00  0.00    -0.056 NA
ATOM     10  O   UNL     1      -3.623   2.402  23.735  0.00  0.00    -0.336 OA
ATOM     11  C   UNL     1      -3.770   2.223  24.526  0.00  0.00    +0.251 A 
ATOM     12  N   UNL     1      -3.224   2.635  24.987  0.00  0.00    -0.189 NA
ENDROOT
BRANCH   8   3
ATOM      1  N   UNL     1      -1.180   2.613  24.187  0.00  0.00    -0.107 NA
ATOM      2  C   UNL     1      -1.337   3.333  24.561  0.00  0.00    +0.176 A 
ATOM      3  C   UNL     1      -2.116   3.560  24.707  0.00  0.00    +0.093 A 
ATOM      4  C   UNL     1      -2.273   4.279  25.080  0.00  0.00    +0.107 A 
ATOM      5  N   UNL     1      -1.650   4.770  25.308  0.00  0.00    -0.222 NA
ATOM      6  C   UNL     1      -0.871   4.542  25.161  0.00  0.00    +0.200 A 
ATOM      7  N   UNL     1      -0.714   3.824  24.788  0.00  0.00    -0.206 NA
ENDBRANCH   8   3
BRANCH  11  13
ATOM     13  C   UNL     1      -4.361   1.720  24.808  0.00  0.00    +0.138 C 
ATOM     14  C   UNL     1      -5.078   1.953  25.141  0.00  0.00    +0.027 C 
ATOM     15  C   UNL     1      -5.498   1.273  25.344  0.00  0.00    +0.019 C 
ATOM     16  C   UNL     1      -5.040   0.619  25.136  0.00  0.00    +0.073 C 
ATOM     17  N   UNL     1      -4.338   0.895  24.805  0.00  0.00    -0.260 NA
BRANCH  17  18
ATOM     18  C   UNL     1      -3.719   0.429  24.519  0.00  0.00    +0.139 C 
BRANCH  18  19
ATOM     19  C   UNL     1      -3.769  -0.393  24.565  0.00  0.00    +0.155 A 
ATOM     20  N   UNL     1      -4.076  -0.893  23.984  0.00  0.00    -0.226 NA
ATOM     21  C   UNL     1      -4.016  -1.669  24.259  0.00  0.00    +0.121 A 
ATOM     22  C   UNL     1      -3.673  -1.648  25.008  0.00  0.00    +0.121 A 
ATOM     23  N   UNL     1      -3.520  -0.861  25.198  0.00  0.00    -0.226 NA
ENDBRANCH  18  19
ENDBRANCH  17  18
ENDBRANCH  11  13
TORSDOF 4
ENDMDL
MODEL 5
REMARK VINA RESULT:      -8.9      1.195      4.551
REMARK  Name = 
REMARK  4 active torsions:
REMARK  status: ('A' for Active; 'I' for Inactive)
REMARK    1  A    between atoms: C_3  and  C_8
REMARK    2  A    between atoms: C_11  and  C_13
REMARK    3  A    between atoms: N_17  and  C_18
REMARK    4  A    between atoms: C_18  and  C_19
REMARK                            x       y       z     vdW  Elec       q    Type
REMARK                         _______ _______ _______ _____ _____    ______ ____
ROOT
ATOM      8  C   UNL     1      -2.713  -0.497  24.719  0.00  0.00    +0.208 A 
ATOM      9  N   UNL     1      -2.208  -0.066  25.207  0.00  0.00    -0.056 NA
ATOM     10  O   UNL     1      -2.269   0.730  24.996  0.00  0.00    -0.336 OA
ATOM     11  C   UNL     1      -2.812   0.789  24.378  0.00  0.00    +0.251 A 
ATOM     12  N   UNL     1      -3.087   0.030  24.207  0.00  0.00    -0.189 NA
ENDROOT
BRANCH   8   3
ATOM      1  N   UNL     1      -1.465  -1.512  24.355  0.00  0.00    -0.107 NA
ATOM      2  C   UNL     1      -2.202  -1.822  24.558  0.00  0.00    +0.176 A 
ATOM      3  C   UNL     1      -2.826  -1.314  24.740  0.00  0.00    +0.093 A 
ATOM      4  C   UNL     1      -3.564  -1.624  24.944  0.00  0.00    +0.107 A 
ATOM      5  N   UNL     1      -3.677  -2.441  24.964  0.00  0.00    -0.222 NA
ATOM      6  C   UNL     1      -3.052  -2.948  24.782  0.00  0.00    +0.200 A 
ATOM      7  N   UNL     1      -2.315  -2.639  24.579  0.00  0.00    -0.206 NA
ENDBRANCH   8   3
BRANCH  11  13
ATOM     13  C   UNL     1      -3.040   1.486  23.998  0.00  0.00    +0.138 C 
ATOM     14  C   UNL     1      -2.815   1.720  23.240  0.00  0.00    +0.027 C 
ATOM     15  C   UNL     1      -3.169   2.448  23.083  0.00  0.00    +0.019 C 
ATOM     16  C   UNL     1      -3.613   2.664  23.745  0.00  0.00    +0.073 C 
ATOM     17  N   UNL     1      -3.533   2.069  24.310  0.00  0.00    -0.260 NA
BRANCH  17  18
ATOM     18  C   UNL     1      -3.884   2.059  25.057  0.00  0.00    +0.139 C 
BRANCH  18  19
ATOM     19  C   UNL     1      -4.456   2.620  25.250  0.00  0.00    +0.155 A 
ATOM     20  N   UNL     1      -5.274   2.521  25.187  0.00  0.00    -0.226 NA
ATOM     21  C   UNL     1      -5.635   3.219  25.439  0.00  0.00    +0.121 A 
ATOM     22  C   UNL     1      -5.042   3.748  25.658  0.00  0.00    +0.121 A 
ATOM     23  N   UNL     1      -4.314   3.379  25.542  0.00  0.00    -0.226 NA
ENDBRANCH  18  19
ENDBRANCH  17  18
ENDBRANCH  11  13
TORSDOF 4
ENDMDL
MODEL 6
REMARK VINA RESULT:      -8.8      1.557      4.901
REMARK  Name = 
REMARK  4 active torsions:
REMARK  status: ('A' for Active; 'I' for Inactive)
REMARK    1  A    between atoms: C_3  and  C_8
REMARK    2  A    between atoms: C_11  and  C_13
REMARK    3  A    between atoms: N_17  and  C_18
REMARK    4  A    between atoms: C_18  and  C_19
REMARK                            x       y       z     vdW  Elec       q    Type
REMARK                         _______ _______ _______ _____ _____    ______ ____
ROOT
ATOM      8  C   UNL     1      -1.479   1.102  24.305  0.00  0.00    +0.208 A 
ATOM      9  N   UNL     1      -1.615   1.508  23.601  0.00  0.00    -0.056 NA
ATOM     10  O   UNL     1      -1.883   2.265  23.791  0.00  0.00    -0.336 OA
ATOM     11  C   UNL     1      -1.911   2.326  24.613  0.00  0.00    +0.251 A 
ATOM     12  N   UNL     1      -1.661   1.607  24.932  0.00  0.00    -0.189 NA
ENDROOT
BRANCH   8   3
ATOM      1  N   UNL     1       0.071   0.731  23.877  0.00  0.00    -0.107 NA
ATOM      2  C   UNL     1      -0.433   0.140  24.159  0.00  0.00    +0.176 A 
ATOM      3  C   UNL     1      -1.207   0.326  24.372  0.00  0.00    +0.093 A 
ATOM      4  C   UNL     1      -1.711  -0.265  24.654  0.00  0.00    +0.107 A 
ATOM      5  N   UNL     1      -1.439  -1.041  24.721  0.00  0.00    -0.222 NA
ATOM      6  C   UNL     1      -0.664  -1.226  24.507  0.00  0.00    +0.200 A 
ATOM      7  N   UNL     1      -0.161  -0.636  24.226  0.00  0.00    -0.206 NA
ENDBRANCH   8   3
BRANCH  11  13
ATOM     13  C   UNL     1      -2.148   2.991  25.042  0.00  0.00    +0.138 C 
ATOM     14  C   UNL     1      -1.651   3.507  25.449  0.00  0.00    +0.027 C 
ATOM     15  C   UNL     1      -2.119   4.090  25.798  0.00  0.00    +0.019 C 
ATOM     16  C   UNL     1      -2.906   3.933  25.606  0.00  0.00    +0.073 C 
ATOM     17  N   UNL     1      -2.924   3.254  25.139  0.00  0.00    -0.260 NA
BRANCH  17  18
ATOM     18  C   UNL     1      -3.599   2.899  24.824  0.00  0.00    +0.139 C 
BRANCH  18  19
ATOM     19  C   UNL     1      -4.337   3.041  25.165  0.00  0.00    +0.155 A 
ATOM     20  N   UNL     1      -4.746   2.528  25.666  0.00  0.00    -0.226 NA
ATOM     21  C   UNL     1      -5.457   2.891  25.875  0.00  0.00    +0.121 A 
ATOM     22  C   UNL     1      -5.487   3.627  25.505  0.00  0.00    +0.121 A 
ATOM     23  N   UNL     1      -4.795   3.720  25.066  0.00  0.00    -0.226 NA
ENDBRANCH  18  19
ENDBRANCH  17  18
ENDBRANCH  11  13
TORSDOF 4
ENDMDL
