MODEL 1
REMARK VINA RESULT:     -14.6      0.000      0.000
REMARK  Name = 
REMARK  2 active torsions:
REMARK  status: ('A' for Active; 'I' for Inactive)
REMARK    1  A    between atoms: C_2  and  C_24
REMARK    2  A    between atoms: N_3  and  C_4
REMARK                            x       y       z     vdW  Elec       q    Type
REMARK                         _______ _______ _______ _____ _____    ______ ____
ROOT
ATOM      4  C   UNL     1      -3.246   1.004  24.620  0.00  0.00    +0.130 A 
ATOM      5  C   UNL     1      -3.833   0.430  24.536  0.00  0.00    +0.023 A 
ATOM      6  C   UNL     1      -4.623   0.623  24.679  0.00  0.00    +0.014 A 
ATOM      7  C   UNL     1      -4.825   1.389  24.906  0.00  0.00    +0.041 A 
ATOM      8  C   UNL     1      -5.558   1.898  25.126  0.00  0.00    +0.058 C 
ATOM      9  C   UNL     1      -6.255   1.858  25.197  0.00  0.00    +0.011 C 
ATOM     10  C   UNL     1      -5.673   2.422  25.278  0.00  0.00    +0.043 C 
ATOM     11  C   UNL     1      -5.125   3.230  25.429  0.00  0.00    +0.096 C 
ATOM     12  N   UNL     1      -4.368   2.919  25.258  0.00  0.00    -0.278 N 
ATOM     13  C   UNL     1      -5.042   2.688  25.275  0.00  0.00    +0.099 C 
ATOM     14  C   UNL     1      -3.549   2.899  25.158  0.00  0.00    +0.220 A 
ATOM     15  N   UNL     1      -3.101   3.579  25.286  0.00  0.00    -0.212 NA
ATOM     16  C   UNL     1      -2.282   3.559  25.185  0.00  0.00    +0.103 A 
ATOM     17  C   UNL     1      -1.912   2.858  24.956  0.00  0.00    +0.041 A 
ATOM     18  C   UNL     1      -2.361   2.178  24.828  0.00  0.00    +0.103 A 
ATOM     19  N   UNL     1      -3.179   2.198  24.929  0.00  0.00    -0.212 NA
ATOM     20  C   UNL     1      -4.902   1.899  25.050  0.00  0.00    +0.110 C 
ATOM     21  N   UNL     1      -4.238   1.964  24.990  0.00  0.00    -0.298 N 
ATOM     22  C   UNL     1      -3.449   1.771  24.847  0.00  0.00    +0.276 A 
ATOM     23  O   UNL     1      -2.638   1.910  24.789  0.00  0.00    -0.266 OA
ENDROOT
BRANCH   4   3
ATOM      1  O   UNL     1      -1.414  -0.163  24.410  0.00  0.00    -0.268 OA
ATOM      2  C   UNL     1      -2.204   0.030  24.553  0.00  0.00    +0.269 C 
ATOM      3  N   UNL     1      -2.458   0.811  24.477  0.00  0.00    -0.171 NA
BRANCH   2  24
ATOM     24  C   UNL     1      -2.739  -0.558  24.773  0.00  0.00    +0.058 A 
ATOM     25  C   UNL     1      -2.847  -0.740  25.571  0.00  0.00    +0.025 A 
ATOM     26  C   UNL     1      -3.382  -1.328  25.791  0.00  0.00    +0.099 A 
ATOM     27  N   UNL     1      -3.808  -1.734  25.213  0.00  0.00    -0.242 NA
ATOM     28  C   UNL     1      -3.700  -1.552  24.415  0.00  0.00    +0.099 A 
ATOM     29  C   UNL     1      -3.165  -0.964  24.195  0.00  0.00    +0.025 A 
ENDBRANCH   2  24
ENDBRANCH   4   3
TORSDOF 2
ENDMDL
MODEL 2
REMARK VINA RESULT:     -14.1      1.353      3.193
REMARK  Name = 
REMARK  2 active torsions:
REMARK  status: ('A' for Active; 'I' for Inactive)
REMARK    1  A    between atoms: C_2  and  C_24
REMARK    2  A    between atoms: N_3  and  C_4
REMARK                            x       y       z     vdW  Elec       q    Type
REMARK                         _______ _______ _______ _____ _____    ______ ____
ROOT
ATOM      4  C   UNL     1      -2.812   2.833  24.829  0.00  0.00    +0.130 A 
ATOM      5  C   UNL     1      -2.174   2.372  24.579  0.00  0.00    +0.023 A 
ATOM      6  C   UNL     1      -2.282   1.570  24.421  0.00  0.00    +0.014 A 
ATOM      7  C   UNL     1      -3.027   1.228  24.513  0.00  0.00    +0.041 A 
ATOM      8  C   UNL     1      -3.458   0.421  24.428  0.00  0.00    +0.058 C 
ATOM      9  C   UNL     1      -3.342  -0.248  24.249  0.00  0.00    +0.011 C 
ATOM     10  C   UNL     1      -3.969   0.210  24.496  0.00  0.00    +0.043 C 
ATOM     11  C   UNL     1      -4.836   0.589  24.781  0.00  0.00    +0.096 C 
ATOM     12  N   UNL     1      -4.607   1.382  24.909  0.00  0.00    -0.278 N 
ATOM     13  C   UNL     1      -4.302   0.773  24.701  0.00  0.00    +0.099 C 
ATOM     14  C   UNL     1      -4.674   2.181  25.106  0.00  0.00    +0.220 A 
ATOM     15  N   UNL     1      -5.402   2.487  25.342  0.00  0.00    -0.212 NA
ATOM     16  C   UNL     1      -5.470   3.286  25.539  0.00  0.00    +0.103 A 
ATOM     17  C   UNL     1      -4.808   3.778  25.500  0.00  0.00    +0.041 A 
ATOM     18  C   UNL     1      -4.080   3.471  25.264  0.00  0.00    +0.103 A 
ATOM     19  N   UNL     1      -4.012   2.673  25.067  0.00  0.00    -0.212 NA
ATOM     20  C   UNL     1      -3.528   1.057  24.589  0.00  0.00    +0.110 C 
ATOM     21  N   UNL     1      -3.664   1.689  24.764  0.00  0.00    -0.298 N 
ATOM     22  C   UNL     1      -3.557   2.491  24.922  0.00  0.00    +0.276 A 
ATOM     23  O   UNL     1      -3.782   3.252  25.146  0.00  0.00    -0.266 OA
ENDROOT
BRANCH   4   3
ATOM      1  O   UNL     1      -1.853   4.717  25.373  0.00  0.00    -0.268 OA
ATOM      2  C   UNL     1      -1.961   3.914  25.216  0.00  0.00    +0.269 C 
ATOM      3  N   UNL     1      -2.703   3.635  24.987  0.00  0.00    -0.171 NA
BRANCH   2  24
ATOM     24  C   UNL     1      -1.327   3.391  25.286  0.00  0.00    +0.058 A 
ATOM     25  C   UNL     1      -1.170   3.029  26.012  0.00  0.00    +0.025 A 
ATOM     26  C   UNL     1      -0.537   2.505  26.083  0.00  0.00    +0.099 A 
ATOM     27  N   UNL     1      -0.061   2.344  25.429  0.00  0.00    -0.242 NA
ATOM     28  C   UNL     1      -0.217   2.706  24.704  0.00  0.00    +0.099 A 
ATOM     29  C   UNL     1      -0.851   3.229  24.633  0.00  0.00    +0.025 A 
ENDBRANCH   2  24
ENDBRANCH   4   3
TORSDOF 2
ENDMDL
MODEL 3
REMARK VINA RESULT:     -14.1      1.298      3.688
REMARK  Name = 
REMARK  2 active torsions:
REMARK  status: ('A' for Active; 'I' for Inactive)
REMARK    1  A    between atoms: C_2  and  C_24
REMARK    2  A    between atoms: N_3  and  C_4
REMARK                            x       y       z     vdW  Elec       q    Type
REMARK                         _______ _______ _______ _____ _____    ______ ____
ROOT
ATOM      4  C   UNL     1      -2.628   0.383  24.905  0.00  0.00    +0.130 A 
ATOM      5  C   UNL     1      -3.384   0.631  24.688  0.00  0.00    +0.023 A 
ATOM      6  C   UNL     1      -3.936   0.082  24.414  0.00  0.00    +0.014 A 
ATOM      7  C   UNL     1      -3.731  -0.715  24.357  0.00  0.00    +0.041 A 
ATOM      8  C   UNL     1      -4.084  -1.526  24.108  0.00  0.00    +0.058 C 
ATOM      9  C   UNL     1      -4.673  -1.818  23.862  0.00  0.00    +0.011 C 
ATOM     10  C   UNL     1      -3.925  -2.060  24.078  0.00  0.00    +0.043 C 
ATOM     11  C   UNL     1      -3.087  -2.540  24.286  0.00  0.00    +0.096 C 
ATOM     12  N   UNL     1      -2.619  -1.898  24.547  0.00  0.00    -0.278 N 
ATOM     13  C   UNL     1      -3.281  -2.004  24.305  0.00  0.00    +0.099 C 
ATOM     14  C   UNL     1      -1.960  -1.493  24.835  0.00  0.00    +0.220 A 
ATOM     15  N   UNL     1      -1.266  -1.904  25.005  0.00  0.00    -0.212 NA
ATOM     16  C   UNL     1      -0.607  -1.499  25.293  0.00  0.00    +0.103 A 
ATOM     17  C   UNL     1      -0.643  -0.682  25.410  0.00  0.00    +0.041 A 
ATOM     18  C   UNL     1      -1.338  -0.272  25.239  0.00  0.00    +0.103 A 
ATOM     19  N   UNL     1      -1.997  -0.677  24.952  0.00  0.00    -0.212 NA
ATOM     20  C   UNL     1      -3.548  -1.216  24.339  0.00  0.00    +0.110 C 
ATOM     21  N   UNL     1      -2.975  -0.963  24.574  0.00  0.00    -0.298 N 
ATOM     22  C   UNL     1      -2.423  -0.414  24.848  0.00  0.00    +0.276 A 
ATOM     23  O   UNL     1      -1.694  -0.158  25.136  0.00  0.00    -0.266 OA
ENDROOT
BRANCH   4   3
ATOM      1  O   UNL     1      -1.596   2.276  25.244  0.00  0.00    -0.268 OA
ATOM      2  C   UNL     1      -2.147   1.727  24.970  0.00  0.00    +0.269 C 
ATOM      3  N   UNL     1      -2.077   0.932  25.179  0.00  0.00    -0.171 NA
BRANCH   2  24
ATOM     24  C   UNL     1      -2.769   1.973  24.486  0.00  0.00    +0.058 A 
ATOM     25  C   UNL     1      -3.486   2.206  24.822  0.00  0.00    +0.025 A 
ATOM     26  C   UNL     1      -4.107   2.452  24.337  0.00  0.00    +0.099 A 
ATOM     27  N   UNL     1      -4.011   2.464  23.519  0.00  0.00    -0.242 NA
ATOM     28  C   UNL     1      -3.294   2.231  23.183  0.00  0.00    +0.099 A 
ATOM     29  C   UNL     1      -2.673   1.985  23.667  0.00  0.00    +0.025 A 
ENDBRANCH   2  24
ENDBRANCH   4   3
TORSDOF 2
ENDMDL
MODEL 4
REMARK VINA RESULT:     -14.0      1.153      3.277
REMARK  Name = 
REMARK  2 active torsions:
REMARK  status: ('A' for Active; 'I' for Inactive)
REMARK    1  A    between atoms: C_2  and  C_24
REMARK    2  A    between atoms: N_3  and  C_4
REMARK                            x       y       z     vdW  Elec       q    Type
REMARK                         _______ _______ _______ _____ _____    ______ ____
ROOT
ATOM      4  C   UNL     1      -3.530   1.294  24.282  0.00  0.00    +0.130 A 
ATOM      5  C   UNL     1      -4.256   1.037  24.579  0.00  0.00    +0.023 A 
ATOM      6  C   UNL     1      -4.301   0.334  25.008  0.00  0.00    +0.014 A 
ATOM      7  C   UNL     1      -3.620  -0.112  25.141  0.00  0.00    +0.041 A 
ATOM      8  C   UNL     1      -3.343  -0.887  25.550  0.00  0.00    +0.058 C 
ATOM      9  C   UNL     1      -3.586  -1.430  25.923  0.00  0.00    +0.011 C 
ATOM     10  C   UNL     1      -2.871  -1.173  25.629  0.00  0.00    +0.043 C 
ATOM     11  C   UNL     1      -1.931  -1.033  25.360  0.00  0.00    +0.096 C 
ATOM     12  N   UNL     1      -2.009  -0.313  24.944  0.00  0.00    -0.278 N 
ATOM     13  C   UNL     1      -2.430  -0.766  25.298  0.00  0.00    +0.099 C 
ATOM     14  C   UNL     1      -1.790   0.350  24.504  0.00  0.00    +0.220 A 
ATOM     15  N   UNL     1      -1.002   0.457  24.285  0.00  0.00    -0.212 NA
ATOM     16  C   UNL     1      -0.782   1.119  23.845  0.00  0.00    +0.103 A 
ATOM     17  C   UNL     1      -1.351   1.676  23.625  0.00  0.00    +0.041 A 
ATOM     18  C   UNL     1      -2.138   1.568  23.844  0.00  0.00    +0.103 A 
ATOM     19  N   UNL     1      -2.358   0.906  24.284  0.00  0.00    -0.212 NA
ATOM     20  C   UNL     1      -3.151  -0.362  25.198  0.00  0.00    +0.110 C 
ATOM     21  N   UNL     1      -2.894   0.145  24.845  0.00  0.00    -0.298 N 
ATOM     22  C   UNL     1      -2.849   0.848  24.415  0.00  0.00    +0.276 A 
ATOM     23  O   UNL     1      -2.479   1.445  23.985  0.00  0.00    -0.266 OA
ENDROOT
BRANCH   4   3
ATOM      1  O   UNL     1      -3.972   3.313  23.579  0.00  0.00    -0.268 OA
ATOM      2  C   UNL     1      -4.016   2.609  24.009  0.00  0.00    +0.269 C 
ATOM      3  N   UNL     1      -3.487   1.997  23.853  0.00  0.00    -0.171 NA
BRANCH   2  24
ATOM     24  C   UNL     1      -4.591   2.519  24.594  0.00  0.00    +0.058 A 
ATOM     25  C   UNL     1      -4.446   2.794  25.359  0.00  0.00    +0.025 A 
ATOM     26  C   UNL     1      -5.021   2.704  25.945  0.00  0.00    +0.099 A 
ATOM     27  N   UNL     1      -5.738   2.340  25.765  0.00  0.00    -0.242 NA
ATOM     28  C   UNL     1      -5.883   2.065  25.000  0.00  0.00    +0.099 A 
ATOM     29  C   UNL     1      -5.308   2.155  24.415  0.00  0.00    +0.025 A 
ENDBRANCH   2  24
ENDBRANCH   4   3
TORSDOF 2
ENDMDL
MODEL 5
REMARK VINA RESULT:     -13.7      1.013      2.861
REMARK  Name = 
REMARK  2 active torsions:
REMARK  status: ('A' for Active; 'I' for Inactive)
REMARK    1  A    between atoms: C_2  and  C_24
REMARK    2  A    between atoms: N_3  and  C_4
REMARK                            x       y       z     vdW  Elec       q    Type
REMARK                         _______ _______ _______ _____ _____    ______ ____
ROOT
ATOM      4  C   UNL     1      -2.767   1.853  24.383  0.00  0.00    +0.130 A 
ATOM      5  C   UNL     1      -2.651   2.663  24.493  0.00  0.00    +0.023 A 
ATOM      6  C   UNL     1      -3.265   3.132  24.784  0.00  0.00    +0.014 A 
ATOM      7  C   UNL     1      -3.993   2.791  24.965  0.00  0.00    +0.041 A 
ATOM      8  C   UNL     1      -4.826   3.014  25.284  0.00  0.00    +0.058 C 
ATOM      9  C   UNL     1      -5.200   3.563  25.510  0.00  0.00    +0.011 C 
ATOM     10  C   UNL     1      -5.311   2.764  25.400  0.00  0.00    +0.043 C 
ATOM     11  C   UNL     1      -5.635   1.832  25.338  0.00  0.00    +0.096 C 
ATOM     12  N   UNL     1      -4.947   1.464  25.040  0.00  0.00    -0.278 N 
ATOM     13  C   UNL     1      -5.154   2.119  25.230  0.00  0.00    +0.099 C 
ATOM     14  C   UNL     1      -4.453   0.862  24.765  0.00  0.00    +0.220 A 
ATOM     15  N   UNL     1      -4.734   0.089  24.717  0.00  0.00    -0.212 NA
ATOM     16  C   UNL     1      -4.241  -0.513  24.441  0.00  0.00    +0.103 A 
ATOM     17  C   UNL     1      -3.467  -0.340  24.214  0.00  0.00    +0.041 A 
ATOM     18  C   UNL     1      -3.186   0.434  24.263  0.00  0.00    +0.103 A 
ATOM     19  N   UNL     1      -3.679   1.035  24.538  0.00  0.00    -0.212 NA
ATOM     20  C   UNL     1      -4.444   2.521  25.066  0.00  0.00    +0.110 C 
ATOM     21  N   UNL     1      -4.109   1.981  24.855  0.00  0.00    -0.298 N 
ATOM     22  C   UNL     1      -3.496   1.513  24.564  0.00  0.00    +0.276 A 
ATOM     23  O   UNL     1      -3.134   0.815  24.315  0.00  0.00    -0.266 OA
ENDROOT
BRANCH   4   3
ATOM      1  O   UNL     1      -0.755   1.129  23.942  0.00  0.00    -0.268 OA
ATOM      2  C   UNL     1      -1.369   1.598  24.234  0.00  0.00    +0.269 C 
ATOM      3  N   UNL     1      -2.154   1.385  24.092  0.00  0.00    -0.171 NA
BRANCH   2  24
ATOM     24  C   UNL     1      -1.198   2.280  24.666  0.00  0.00    +0.058 A 
ATOM     25  C   UNL     1      -1.106   2.236  25.485  0.00  0.00    +0.025 A 
ATOM     26  C   UNL     1      -0.935   2.917  25.918  0.00  0.00    +0.099 A 
ATOM     27  N   UNL     1      -0.856   3.641  25.531  0.00  0.00    -0.242 NA
ATOM     28  C   UNL     1      -0.948   3.685  24.712  0.00  0.00    +0.099 A 
ATOM     29  C   UNL     1      -1.119   3.004  24.280  0.00  0.00    +0.025 A 
ENDBRANCH   2  24
ENDBRANCH   4   3
TORSDOF 2
ENDMDL
MODEL 6
REMARK VINA RESULT:     -13.6      1.039      2.408
REMARK  Name = 
REMARK  2 active torsions:
REMARK  status: ('A' for Active; 'I' for Inactive)
REMARK    1  A    between atoms: C_2  and  C_24
REMARK    2  A    between atoms: N_3  and  C_4
REMARK                            x       y       z     vdW  Elec       q    Type
REMARK                         _______ _______ _______ _____ _____    ______ ____
ROOT
ATOM      4  C   UNL     1      -3.405   1.438  24.713  0.00  0.00    +0.130 A 
ATOM      5  C   UNL     1      -2.615   1.225  24.604  0.00  0.00    +0.023 A 
ATOM      6  C   UNL     1      -2.014   1.757  24.796  0.00  0.00    +0.014 A 
ATOM      7  C   UNL     1      -2.203   2.501  25.098  0.00  0.00    +0.041 A 
ATOM      8  C   UNL     1      -1.804   3.274  25.392  0.00  0.00    +0.058 C 
ATOM      9  C   UNL     1      -1.172   3.566  25.488  0.00  0.00    +0.011 C 
ATOM     10  C   UNL     1      -1.953   3.772  25.595  0.00  0.00    +0.043 C 
ATOM     11  C   UNL     1      -2.822   4.200  25.793  0.00  0.00    +0.096 C 
ATOM     12  N   UNL     1      -3.337   3.584  25.564  0.00  0.00    -0.278 N 
ATOM     13  C   UNL     1      -2.635   3.702  25.589  0.00  0.00    +0.099 C 
ATOM     14  C   UNL     1      -4.046   3.184  25.428  0.00  0.00    +0.220 A 
ATOM     15  N   UNL     1      -4.765   3.551  25.596  0.00  0.00    -0.212 NA
ATOM     16  C   UNL     1      -5.474   3.151  25.460  0.00  0.00    +0.103 A 
ATOM     17  C   UNL     1      -5.464   2.384  25.155  0.00  0.00    +0.041 A 
ATOM     18  C   UNL     1      -4.744   2.018  24.987  0.00  0.00    +0.103 A 
ATOM     19  N   UNL     1      -4.035   2.417  25.123  0.00  0.00    -0.212 NA
ATOM     20  C   UNL     1      -2.380   2.968  25.289  0.00  0.00    +0.110 C 
ATOM     21  N   UNL     1      -2.993   2.713  25.207  0.00  0.00    -0.298 N 
ATOM     22  C   UNL     1      -3.594   2.182  25.015  0.00  0.00    +0.276 A 
ATOM     23  O   UNL     1      -4.372   1.920  24.936  0.00  0.00    -0.266 OA
ENDROOT
BRANCH   4   3
ATOM      1  O   UNL     1      -4.464  -0.439  24.363  0.00  0.00    -0.268 OA
ATOM      2  C   UNL     1      -3.863   0.094  24.555  0.00  0.00    +0.269 C 
ATOM      3  N   UNL     1      -4.005   0.905  24.521  0.00  0.00    -0.171 NA
BRANCH   2  24
ATOM     24  C   UNL     1      -3.121  -0.187  24.782  0.00  0.00    +0.058 A 
ATOM     25  C   UNL     1      -2.972  -0.363  25.575  0.00  0.00    +0.025 A 
ATOM     26  C   UNL     1      -2.230  -0.644  25.802  0.00  0.00    +0.099 A 
ATOM     27  N   UNL     1      -1.638  -0.747  25.237  0.00  0.00    -0.242 NA
ATOM     28  C   UNL     1      -1.787  -0.570  24.444  0.00  0.00    +0.099 A 
ATOM     29  C   UNL     1      -2.529  -0.289  24.217  0.00  0.00    +0.025 A 
ENDBRANCH   2  24
ENDBRANCH   4   3
TORSDOF 2
ENDMDL
