MODEL 1
REMARK VINA RESULT:     -12.9      0.000      0.000
REMARK  Name = 
REMARK  8 active torsions:
REMARK  status: ('A' for Active; 'I' for Inactive)
REMARK    1  A    between atoms: C_5  and  C_6
REMARK    2  A    between atoms: C_6  and  C_7
REMARK    3  A    between atoms: C_10  and  C_11
REMARK    4  A    between atoms: C_11  and  O_12
REMARK    5  A    between atoms: O_12  and  C_13
REMARK    6  A    between atoms: C_21  and  C_22
REMARK    7  A    between atoms: C_22  and  N_23
REMARK    8  A    between atoms: N_26  and  C_27
REMARK                            x       y       z     vdW  Elec       q    Type
REMARK                         _______ _______ _______ _____ _____    ______ ____
ROOT
ATOM      1  O   UNL     1       0.468   0.687  23.699  0.00  0.00    -0.220 OA
ATOM      2  C   UNL     1       0.194   1.251  24.235  0.00  0.00    +0.181 C 
ATOM      3  C   UNL     1       0.551   1.994  24.270  0.00  0.00    +0.038 C 
ATOM      4  C   UNL     1       0.276   2.558  24.806  0.00  0.00    +0.033 C 
ATOM      5  C   UNL     1      -0.356   2.380  25.305  0.00  0.00    +0.121 C 
ATOM     20  O   UNL     1      -0.713   1.637  25.270  0.00  0.00    -0.354 OA
ATOM     21  C   UNL     1      -0.439   1.073  24.735  0.00  0.00    +0.167 C 
ENDROOT
BRANCH   5   6
ATOM      6  C   UNL     1      -0.630   2.944  25.840  0.00  0.00    +0.079 C 
BRANCH   6   7
ATOM      7  C   UNL     1      -1.308   3.382  25.667  0.00  0.00    +0.103 A 
ATOM      8  N   UNL     1      -1.326   4.127  25.315  0.00  0.00    -0.082 NA
ATOM      9  O   UNL     1      -2.116   4.357  25.246  0.00  0.00    -0.354 OA
ATOM     10  C   UNL     1      -2.586   3.753  25.554  0.00  0.00    +0.198 A 
ATOM     19  C   UNL     1      -2.086   3.150  25.815  0.00  0.00    +0.057 A 
BRANCH  10  11
ATOM     11  C   UNL     1      -3.409   3.751  25.595  0.00  0.00    +0.272 C 
BRANCH  11  12
ATOM     12  O   UNL     1      -3.854   3.501  24.946  0.00  0.00    -0.467 OA
BRANCH  12  13
ATOM     13  C   UNL     1      -4.566   3.101  25.064  0.00  0.00    +0.139 A 
ATOM     14  C   UNL     1      -5.120   3.393  25.599  0.00  0.00    +0.037 A 
ATOM     15  C   UNL     1      -5.833   2.993  25.717  0.00  0.00    +0.003 A 
ATOM     16  C   UNL     1      -5.989   2.300  25.297  0.00  0.00    +0.000 A 
ATOM     17  C   UNL     1      -5.435   2.007  24.761  0.00  0.00    +0.003 A 
ATOM     18  C   UNL     1      -4.723   2.407  24.644  0.00  0.00    +0.037 A 
ENDBRANCH  12  13
ENDBRANCH  11  12
ENDBRANCH  10  11
ENDBRANCH   6   7
ENDBRANCH   5   6
BRANCH  21  22
ATOM     22  C   UNL     1      -0.795   0.331  24.699  0.00  0.00    +0.149 C 
BRANCH  22  23
ATOM     23  N   UNL     1      -1.574   0.234  24.953  0.00  0.00    -0.184 NA
ATOM     24  C   UNL     1      -2.005  -0.431  24.722  0.00  0.00    +0.344 C 
ATOM     25  O   UNL     1      -1.656  -0.999  24.237  0.00  0.00    -0.249 OA
ATOM     26  N   UNL     1      -2.783  -0.526  24.977  0.00  0.00    -0.161 NA
BRANCH  26  27
ATOM     27  C   UNL     1      -3.214  -1.192  24.746  0.00  0.00    +0.077 A 
ATOM     28  C   UNL     1      -3.718  -1.150  24.094  0.00  0.00    +0.017 A 
ATOM     29  C   UNL     1      -4.149  -1.815  23.863  0.00  0.00    +0.004 A 
ATOM     30  C   UNL     1      -4.075  -2.521  24.284  0.00  0.00    +0.030 A 
ATOM     31  C   UNL     1      -3.570  -2.562  24.935  0.00  0.00    +0.141 A 
ATOM     32  F   UNL     1      -3.497  -3.268  25.355  0.00  0.00    -0.204 F 
ATOM     33  C   UNL     1      -3.140  -1.897  25.166  0.00  0.00    +0.046 A 
ENDBRANCH  26  27
ENDBRANCH  22  23
ENDBRANCH  21  22
TORSDOF 8
ENDMDL
MODEL 2
REMARK VINA RESULT:     -12.8      1.818      4.300
REMARK  Name = 
REMARK  8 active torsions:
REMARK  status: ('A' for Active; 'I' for Inactive)
REMARK    1  A    between atoms: C_5  and  C_6
REMARK    2  A    between atoms: C_6  and  C_7
REMARK    3  A    between atoms: C_10  and  C_11
REMARK    4  A    between atoms: C_11  and  O_12
REMARK    5  A    between atoms: O_12  and  C_13
REMARK    6  A    between atoms: C_21  and  C_22
REMARK    7  A    between atoms: C_22  and  N_23
REMARK    8  A    between atoms: N_26  and  C_27
REMARK                            x       y       z     vdW  Elec       q    Type
REMARK                         _______ _______ _______ _____ _____    ______ ____
ROOT
ATOM      1  O   UNL     1      -3.754  -2.488  24.319  0.00  0.00    -0.220 OA
ATOM      2  C   UNL     1      -3.039  -2.140  24.538  0.00  0.00    +0.181 C 
ATOM      3  C   UNL     1      -2.331  -2.549  24.429  0.00  0.00    +0.038 C 
ATOM      4  C   UNL     1      -1.616  -2.201  24.649  0.00  0.00    +0.033 C 
ATOM      5  C   UNL     1      -1.609  -1.445  24.978  0.00  0.00    +0.121 C 
ATOM     20  O   UNL     1      -2.317  -1.036  25.087  0.00  0.00    -0.354 OA
ATOM     21  C   UNL     1      -3.032  -1.383  24.867  0.00  0.00    +0.167 C 
ENDROOT
BRANCH   5   6
ATOM      6  C   UNL     1      -0.894  -1.097  25.198  0.00  0.00    +0.079 C 
BRANCH   6   7
ATOM      7  C   UNL     1      -0.654  -0.389  24.846  0.00  0.00    +0.103 A 
ATOM      8  N   UNL     1      -0.309  -0.312  24.101  0.00  0.00    -0.082 NA
ATOM      9  O   UNL     1      -0.159   0.490  23.973  0.00  0.00    -0.354 OA
ATOM     10  C   UNL     1      -0.412   0.907  24.638  0.00  0.00    +0.198 A 
ATOM     19  C   UNL     1      -0.719   0.363  25.178  0.00  0.00    +0.057 A 
BRANCH  10  11
ATOM     11  C   UNL     1      -0.367   1.723  24.745  0.00  0.00    +0.272 C 
BRANCH  11  12
ATOM     12  O   UNL     1      -1.020   2.198  24.573  0.00  0.00    -0.467 OA
BRANCH  12  13
ATOM     13  C   UNL     1      -0.999   3.005  24.744  0.00  0.00    +0.139 A 
ATOM     14  C   UNL     1      -1.437   3.305  25.375  0.00  0.00    +0.037 A 
ATOM     15  C   UNL     1      -1.417   4.112  25.545  0.00  0.00    +0.003 A 
ATOM     16  C   UNL     1      -0.958   4.619  25.084  0.00  0.00    +0.000 A 
ATOM     17  C   UNL     1      -0.519   4.320  24.453  0.00  0.00    +0.003 A 
ATOM     18  C   UNL     1      -0.540   3.513  24.283  0.00  0.00    +0.037 A 
ENDBRANCH  12  13
ENDBRANCH  11  12
ENDBRANCH  10  11
ENDBRANCH   6   7
ENDBRANCH   5   6
BRANCH  21  22
ATOM     22  C   UNL     1      -3.740  -0.975  24.976  0.00  0.00    +0.149 C 
BRANCH  22  23
ATOM     23  N   UNL     1      -3.873  -0.265  24.577  0.00  0.00    -0.184 NA
ATOM     24  C   UNL     1      -4.338   0.322  24.922  0.00  0.00    +0.344 C 
ATOM     25  O   UNL     1      -4.670   0.200  25.667  0.00  0.00    -0.249 OA
ATOM     26  N   UNL     1      -4.470   1.031  24.523  0.00  0.00    -0.161 NA
BRANCH  26  27
ATOM     27  C   UNL     1      -4.936   1.619  24.869  0.00  0.00    +0.077 A 
ATOM     28  C   UNL     1      -5.759   1.558  24.847  0.00  0.00    +0.017 A 
ATOM     29  C   UNL     1      -6.224   2.146  25.193  0.00  0.00    +0.004 A 
ATOM     30  C   UNL     1      -5.866   2.793  25.559  0.00  0.00    +0.030 A 
ATOM     31  C   UNL     1      -5.044   2.853  25.580  0.00  0.00    +0.141 A 
ATOM     32  F   UNL     1      -4.687   3.500  25.946  0.00  0.00    -0.204 F 
ATOM     33  C   UNL     1      -4.579   2.265  25.235  0.00  0.00    +0.046 A 
ENDBRANCH  26  27
ENDBRANCH  22  23
ENDBRANCH  21  22
TORSDOF 8
ENDMDL
MODEL 3
REMARK VINA RESULT:     -12.6      1.907      4.284
REMARK  Name = 
REMARK  8 active torsions:
REMARK  status: ('A' for Active; 'I' for Inactive)
REMARK    1  A    between atoms: C_5  and  C_6
REMARK    2  A    between atoms: C_6  and  C_7
REMARK    3  A    between atoms: C_10  and  C_11
REMARK    4  A    between atoms: C_11  and  O_12
REMARK    5  A    between atoms: O_12  and  C_13
REMARK    6  A    between atoms: C_21  and  C_22
REMARK    7  A    between atoms: C_22  and  N_23
REMARK    8  A    between atoms: N_26  and  C_27
REMARK                            x       y       z     vdW  Elec       q    Type
REMARK                         _______ _______ _______ _____ _____    ______ ____
ROOT
ATOM      1  O   UNL     1       0.652   0.053  23.348  0.00  0.00    -0.220 OA
ATOM      2  C   UNL     1       0.061  -0.237  23.845  0.00  0.00    +0.181 C 
ATOM      3  C   UNL     1      -0.003  -1.049  23.981  0.00  0.00    +0.038 C 
ATOM      4  C   UNL     1      -0.594  -1.338  24.478  0.00  0.00    +0.033 C 
ATOM      5  C   UNL     1      -1.122  -0.817  24.838  0.00  0.00    +0.121 C 
ATOM     20  O   UNL     1      -1.059  -0.006  24.702  0.00  0.00    -0.354 OA
ATOM     21  C   UNL     1      -0.468   0.284  24.206  0.00  0.00    +0.167 C 
ENDROOT
BRANCH   5   6
ATOM      6  C   UNL     1      -1.713  -1.107  25.335  0.00  0.00    +0.079 C 
BRANCH   6   7
ATOM      7  C   UNL     1      -2.507  -0.968  25.156  0.00  0.00    +0.103 A 
ATOM      8  N   UNL     1      -2.984  -1.437  24.673  0.00  0.00    -0.082 NA
ATOM      9  O   UNL     1      -3.734  -1.095  24.647  0.00  0.00    -0.354 OA
ATOM     10  C   UNL     1      -3.721  -0.415  25.114  0.00  0.00    +0.198 A 
ATOM     19  C   UNL     1      -2.962  -0.337  25.429  0.00  0.00    +0.057 A 
BRANCH  10  11
ATOM     11  C   UNL     1      -4.355   0.097  25.244  0.00  0.00    +0.272 C 
BRANCH  11  12
ATOM     12  O   UNL     1      -4.553   0.660  24.674  0.00  0.00    -0.467 OA
BRANCH  12  13
ATOM     13  C   UNL     1      -4.920   1.364  24.900  0.00  0.00    +0.139 A 
ATOM     14  C   UNL     1      -5.550   1.349  25.431  0.00  0.00    +0.037 A 
ATOM     15  C   UNL     1      -5.917   2.053  25.657  0.00  0.00    +0.003 A 
ATOM     16  C   UNL     1      -5.652   2.772  25.351  0.00  0.00    +0.000 A 
ATOM     17  C   UNL     1      -5.021   2.788  24.820  0.00  0.00    +0.003 A 
ATOM     18  C   UNL     1      -4.654   2.084  24.594  0.00  0.00    +0.037 A 
ENDBRANCH  12  13
ENDBRANCH  11  12
ENDBRANCH  10  11
ENDBRANCH   6   7
ENDBRANCH   5   6
BRANCH  21  22
ATOM     22  C   UNL     1      -0.405   1.095  24.070  0.00  0.00    +0.149 C 
BRANCH  22  23
ATOM     23  N   UNL     1      -0.326   1.615  24.705  0.00  0.00    -0.184 NA
ATOM     24  C   UNL     1      -0.652   2.372  24.662  0.00  0.00    +0.344 C 
ATOM     25  O   UNL     1      -1.056   2.608  23.983  0.00  0.00    -0.249 OA
ATOM     26  N   UNL     1      -0.573   2.891  25.297  0.00  0.00    -0.161 NA
BRANCH  26  27
ATOM     27  C   UNL     1      -0.899   3.649  25.253  0.00  0.00    +0.077 A 
ATOM     28  C   UNL     1      -0.501   4.246  24.846  0.00  0.00    +0.017 A 
ATOM     29  C   UNL     1      -0.826   5.003  24.802  0.00  0.00    +0.004 A 
ATOM     30  C   UNL     1      -1.550   5.163  25.167  0.00  0.00    +0.030 A 
ATOM     31  C   UNL     1      -1.947   4.565  25.574  0.00  0.00    +0.141 A 
ATOM     32  F   UNL     1      -2.670   4.725  25.938  0.00  0.00    -0.204 F 
ATOM     33  C   UNL     1      -1.621   3.808  25.617  0.00  0.00    +0.046 A 
ENDBRANCH  26  27
ENDBRANCH  22  23
ENDBRANCH  21  22
TORSDOF 8
ENDMDL
MODEL 4
REMARK VINA RESULT:     -12.4      1.451      4.102
REMARK  Name = 
REMARK  8 active torsions:
REMARK  status: ('A' for Active; 'I' for Inactive)
REMARK    1  A    between atoms: C_5  and  C_6
REMARK    2  A    between atoms: C_6  and  C_7
REMARK    3  A    between atoms: C_10  and  C_11
REMARK    4  A    between atoms: C_11  and  O_12
REMARK    5  A    between atoms: O_12  and  C_13
REMARK    6  A    between atoms: C_21  and  C_22
REMARK    7  A    between atoms: C_22  and  N_23
REMARK    8  A    between atoms: N_26  and  C_27
REMARK                            x       y       z     vdW  Elec       q    Type
REMARK                         _______ _______ _______ _____ _____    ______ ____
ROOT
ATOM      1  O   UNL     1      -1.788   4.444  25.743  0.00  0.00    -0.220 OA
ATOM      2  C   UNL     1      -2.487   4.085  25.492  0.00  0.00    +0.181 C 
ATOM      3  C   UNL     1      -3.213   4.344  25.786  0.00  0.00    +0.038 C 
ATOM      4  C   UNL     1      -3.911   3.984  25.533  0.00  0.00    +0.033 C 
ATOM      5  C   UNL     1      -3.884   3.367  24.988  0.00  0.00    +0.121 C 
ATOM     20  O   UNL     1      -3.158   3.108  24.694  0.00  0.00    -0.354 OA
ATOM     21  C   UNL     1      -2.459   3.467  24.945  0.00  0.00    +0.167 C 
ENDROOT
BRANCH   5   6
ATOM      6  C   UNL     1      -4.582   3.008  24.736  0.00  0.00    +0.079 C 
BRANCH   6   7
ATOM      7  C   UNL     1      -4.752   2.232  24.964  0.00  0.00    +0.103 A 
ATOM      8  N   UNL     1      -5.193   2.007  25.623  0.00  0.00    -0.082 NA
ATOM      9  O   UNL     1      -5.225   1.182  25.638  0.00  0.00    -0.354 OA
ATOM     10  C   UNL     1      -4.804   0.899  24.987  0.00  0.00    +0.198 A 
ATOM     19  C   UNL     1      -4.512   1.548  24.570  0.00  0.00    +0.057 A 
BRANCH  10  11
ATOM     11  C   UNL     1      -4.694   0.106  24.789  0.00  0.00    +0.272 C 
BRANCH  11  12
ATOM     12  O   UNL     1      -3.980  -0.268  24.965  0.00  0.00    -0.467 OA
BRANCH  12  13
ATOM     13  C   UNL     1      -3.878  -1.068  24.788  0.00  0.00    +0.139 A 
ATOM     14  C   UNL     1      -3.531  -1.572  25.340  0.00  0.00    +0.037 A 
ATOM     15  C   UNL     1      -3.429  -2.372  25.163  0.00  0.00    +0.003 A 
ATOM     16  C   UNL     1      -3.676  -2.666  24.433  0.00  0.00    +0.000 A 
ATOM     17  C   UNL     1      -4.024  -2.163  23.880  0.00  0.00    +0.003 A 
ATOM     18  C   UNL     1      -4.126  -1.363  24.057  0.00  0.00    +0.037 A 
ENDBRANCH  12  13
ENDBRANCH  11  12
ENDBRANCH  10  11
ENDBRANCH   6   7
ENDBRANCH   5   6
BRANCH  21  22
ATOM     22  C   UNL     1      -1.734   3.209  24.652  0.00  0.00    +0.149 C 
BRANCH  22  23
ATOM     23  N   UNL     1      -1.358   2.558  24.993  0.00  0.00    -0.184 NA
ATOM     24  C   UNL     1      -0.996   1.992  24.514  0.00  0.00    +0.344 C 
ATOM     25  O   UNL     1      -1.009   2.077  23.694  0.00  0.00    -0.249 OA
ATOM     26  N   UNL     1      -0.621   1.342  24.855  0.00  0.00    -0.161 NA
BRANCH  26  27
ATOM     27  C   UNL     1      -0.258   0.776  24.375  0.00  0.00    +0.077 A 
ATOM     28  C   UNL     1       0.406   0.978  23.930  0.00  0.00    +0.017 A 
ATOM     29  C   UNL     1       0.769   0.413  23.451  0.00  0.00    +0.004 A 
ATOM     30  C   UNL     1       0.466  -0.355  23.417  0.00  0.00    +0.030 A 
ATOM     31  C   UNL     1      -0.198  -0.556  23.863  0.00  0.00    +0.141 A 
ATOM     32  F   UNL     1      -0.500  -1.322  23.829  0.00  0.00    -0.204 F 
ATOM     33  C   UNL     1      -0.561   0.010  24.342  0.00  0.00    +0.046 A 
ENDBRANCH  26  27
ENDBRANCH  22  23
ENDBRANCH  21  22
TORSDOF 8
ENDMDL
MODEL 5
REMARK VINA RESULT:     -12.3      1.353      3.999
REMARK  Name = 
REMARK  8 active torsions:
REMARK  status: ('A' for Active; 'I' for Inactive)
REMARK    1  A    between atoms: C_5  and  C_6
REMARK    2  A    between atoms: C_6  and  C_7
REMARK    3  A    between atoms: C_10  and  C_11
REMARK    4  A    between atoms: C_11  and  O_12
REMARK    5  A    between atoms: O_12  and  C_13
REMARK    6  A    between atoms: C_21  and  C_22
REMARK    7  A    between atoms: C_22  and  N_23
REMARK    8  A    between atoms: N_26  and  C_27
REMARK                            x       y       z     vdW  Elec       q    Type
REMARK                         _______ _______ _______ _____ _____    ______ ____
ROOT
ATOM      1  O   UNL     1      -1.614   5.407  24.983  0.00  0.00    -0.220 OA
ATOM      2  C   UNL     1      -1.241   4.685  25.122  0.00  0.00    +0.181 C 
ATOM      3  C   UNL     1      -0.439   4.593  24.950  0.00  0.00    +0.038 C 
ATOM      4  C   UNL     1      -0.068   3.870  25.090  0.00  0.00    +0.033 C 
ATOM      5  C   UNL     1      -0.497   3.239  25.402  0.00  0.00    +0.121 C 
ATOM     20  O   UNL     1      -1.298   3.330  25.574  0.00  0.00    -0.354 OA
ATOM     21  C   UNL     1      -1.671   4.053  25.434  0.00  0.00    +0.167 C 
ENDROOT
BRANCH   5   6
ATOM      6  C   UNL     1      -0.125   2.516  25.542  0.00  0.00    +0.079 C 
BRANCH   6   7
ATOM      7  C   UNL     1      -0.383   1.837  25.150  0.00  0.00    +0.103 A 
ATOM      8  N   UNL     1      -0.213   1.633  24.370  0.00  0.00    -0.082 NA
ATOM      9  O   UNL     1      -0.582   0.913  24.208  0.00  0.00    -0.354 OA
ATOM     10  C   UNL     1      -0.980   0.671  24.889  0.00  0.00    +0.198 A 
ATOM     19  C   UNL     1      -0.857   1.243  25.472  0.00  0.00    +0.057 A 
BRANCH  10  11
ATOM     11  C   UNL     1      -1.422  -0.019  24.973  0.00  0.00    +0.272 C 
BRANCH  11  12
ATOM     12  O   UNL     1      -2.238  -0.004  24.849  0.00  0.00    -0.467 OA
BRANCH  12  13
ATOM     13  C   UNL     1      -2.682  -0.694  24.940  0.00  0.00    +0.139 A 
ATOM     14  C   UNL     1      -2.918  -0.937  25.692  0.00  0.00    +0.037 A 
ATOM     15  C   UNL     1      -3.362  -1.626  25.783  0.00  0.00    +0.003 A 
ATOM     16  C   UNL     1      -3.570  -2.072  25.121  0.00  0.00    +0.000 A 
ATOM     17  C   UNL     1      -3.336  -1.829  24.369  0.00  0.00    +0.003 A 
ATOM     18  C   UNL     1      -2.891  -1.140  24.278  0.00  0.00    +0.037 A 
ENDBRANCH  12  13
ENDBRANCH  11  12
ENDBRANCH  10  11
ENDBRANCH   6   7
ENDBRANCH   5   6
BRANCH  21  22
ATOM     22  C   UNL     1      -2.472   4.144  25.606  0.00  0.00    +0.149 C 
BRANCH  22  23
ATOM     23  N   UNL     1      -3.041   3.909  25.058  0.00  0.00    -0.184 NA
ATOM     24  C   UNL     1      -3.693   3.466  25.302  0.00  0.00    +0.344 C 
ATOM     25  O   UNL     1      -3.775   3.258  26.096  0.00  0.00    -0.249 OA
ATOM     26  N   UNL     1      -4.261   3.232  24.753  0.00  0.00    -0.161 NA
BRANCH  26  27
ATOM     27  C   UNL     1      -4.914   2.788  24.999  0.00  0.00    +0.077 A 
ATOM     28  C   UNL     1      -5.499   3.138  25.463  0.00  0.00    +0.017 A 
ATOM     29  C   UNL     1      -6.150   2.695  25.708  0.00  0.00    +0.004 A 
ATOM     30  C   UNL     1      -6.216   1.902  25.488  0.00  0.00    +0.030 A 
ATOM     31  C   UNL     1      -5.630   1.553  25.024  0.00  0.00    +0.141 A 
ATOM     32  F   UNL     1      -5.697   0.761  24.805  0.00  0.00    -0.204 F 
ATOM     33  C   UNL     1      -4.979   1.996  24.779  0.00  0.00    +0.046 A 
ENDBRANCH  26  27
ENDBRANCH  22  23
ENDBRANCH  21  22
TORSDOF 8
ENDMDL
MODEL 6
REMARK VINA RESULT:     -12.2      1.219      3.995
REMARK  Name = 
REMARK  8 active torsions:
REMARK  status: ('A' for Active; 'I' for Inactive)
REMARK    1  A    between atoms: C_5  and  C_6
REMARK    2  A    between atoms: C_6  and  C_7
REMARK    3  A    between atoms: C_10  and  C_11
REMARK    4  A    between atoms: C_11  and  O_12
REMARK    5  A    between atoms: O_12  and  C_13
REMARK    6  A    between atoms: C_21  and  C_22
REMARK    7  A    between atoms: C_22  and  N_23
REMARK    8  A    between atoms: N_26  and  C_27
REMARK                            x       y       z     vdW  Elec       q    Type
REMARK                         _______ _______ _______ _____ _____    ______ ____
ROOT
ATOM      1  O   UNL     1      -6.108   2.256  26.057  0.00  0.00    -0.220 OA
ATOM      2  C   UNL     1      -5.487   2.653  25.688  0.00  0.00    +0.181 C 
ATOM      3  C   UNL     1      -5.446   3.476  25.720  0.00  0.00    +0.038 C 
ATOM      4  C   UNL     1      -4.823   3.872  25.350  0.00  0.00    +0.033 C 
ATOM      5  C   UNL     1      -4.243   3.446  24.949  0.00  0.00    +0.121 C 
ATOM     20  O   UNL     1      -4.284   2.623  24.916  0.00  0.00    -0.354 OA
ATOM     21  C   UNL     1      -4.906   2.226  25.286  0.00  0.00    +0.167 C 
ENDROOT
BRANCH   5   6
ATOM      6  C   UNL     1      -3.622   3.843  24.579  0.00  0.00    +0.079 C 
BRANCH   6   7
ATOM      7  C   UNL     1      -2.841   3.678  24.794  0.00  0.00    +0.103 A 
ATOM      8  N   UNL     1      -2.464   3.932  25.482  0.00  0.00    -0.082 NA
ATOM      9  O   UNL     1      -1.692   3.641  25.471  0.00  0.00    -0.354 OA
ATOM     10  C   UNL     1      -1.593   3.207  24.776  0.00  0.00    +0.198 A 
ATOM     19  C   UNL     1      -2.303   3.230  24.357  0.00  0.00    +0.057 A 
BRANCH  10  11
ATOM     11  C   UNL     1      -0.904   2.819  24.541  0.00  0.00    +0.272 C 
BRANCH  11  12
ATOM     12  O   UNL     1      -0.721   2.078  24.855  0.00  0.00    -0.467 OA
BRANCH  12  13
ATOM     13  C   UNL     1      -0.234   1.560  24.434  0.00  0.00    +0.139 A 
ATOM     14  C   UNL     1      -0.503   0.805  24.244  0.00  0.00    +0.037 A 
ATOM     15  C   UNL     1      -0.017   0.287  23.823  0.00  0.00    +0.003 A 
ATOM     16  C   UNL     1       0.738   0.527  23.593  0.00  0.00    +0.000 A 
ATOM     17  C   UNL     1       1.008   1.283  23.784  0.00  0.00    +0.003 A 
ATOM     18  C   UNL     1       0.521   1.800  24.204  0.00  0.00    +0.037 A 
ENDBRANCH  12  13
ENDBRANCH  11  12
ENDBRANCH  10  11
ENDBRANCH   6   7
ENDBRANCH   5   6
BRANCH  21  22
ATOM     22  C   UNL     1      -4.947   1.403  25.253  0.00  0.00    +0.149 C 
BRANCH  22  23
ATOM     23  N   UNL     1      -4.492   0.988  24.704  0.00  0.00    -0.184 NA
ATOM     24  C   UNL     1      -4.365   0.179  24.801  0.00  0.00    +0.344 C 
ATOM     25  O   UNL     1      -4.691  -0.215  25.447  0.00  0.00    -0.249 OA
ATOM     26  N   UNL     1      -3.910  -0.235  24.251  0.00  0.00    -0.161 NA
BRANCH  26  27
ATOM     27  C   UNL     1      -3.783  -1.045  24.348  0.00  0.00    +0.077 A 
ATOM     28  C   UNL     1      -3.215  -1.311  24.885  0.00  0.00    +0.017 A 
ATOM     29  C   UNL     1      -3.087  -2.121  24.981  0.00  0.00    +0.004 A 
ATOM     30  C   UNL     1      -3.527  -2.664  24.542  0.00  0.00    +0.030 A 
ATOM     31  C   UNL     1      -4.094  -2.396  24.006  0.00  0.00    +0.141 A 
ATOM     32  F   UNL     1      -4.534  -2.939  23.567  0.00  0.00    -0.204 F 
ATOM     33  C   UNL     1      -4.222  -1.587  23.909  0.00  0.00    +0.046 A 
ENDBRANCH  26  27
ENDBRANCH  22  23
ENDBRANCH  21  22
TORSDOF 8
ENDMDL
