MODEL 1
REMARK VINA RESULT:      -9.2      0.000      0.000
REMARK  Name = 
REMARK  5 active torsions:
REMARK  status: ('A' for Active; 'I' for Inactive)
REMARK    1  A    between atoms: N_2  and  C_4
REMARK    2  A    between atoms: C_7  and  C_8
REMARK    3  A    between atoms: C_8  and  N_9
REMARK    4  A    between atoms: N_9  and  S_10
REMARK    5  A    between atoms: S_10  and  C_13
REMARK                            x       y       z     vdW  Elec       q    Type
REMARK                         _______ _______ _______ _____ _____    ______ ____
ROOT
ATOM      8  C   UNL     1      -3.361   1.042  24.680  0.00  0.00    +0.148 C 
ENDROOT
BRANCH   8   7
ATOM      4  C   UNL     1      -3.166   3.127  25.097  0.00  0.00    +0.121 C 
ATOM      5  C   UNL     1      -3.950   3.087  24.846  0.00  0.00    +0.161 C 
ATOM      6  O   UNL     1      -4.119   2.302  24.659  0.00  0.00    -0.351 OA
ATOM      7  C   UNL     1      -3.438   1.856  24.795  0.00  0.00    +0.166 C 
ATOM     19  C   UNL     1      -2.849   2.365  25.066  0.00  0.00    +0.197 C 
ATOM     20  O   UNL     1      -2.079   2.152  25.269  0.00  0.00    -0.219 OA
BRANCH   4   2
ATOM      1  C   UNL     1      -2.267   4.201  24.813  0.00  0.00    +0.090 C 
ATOM      2  N   UNL     1      -2.768   3.808  25.338  0.00  0.00    -0.267 NA
ATOM      3  C   UNL     1      -2.869   4.097  26.104  0.00  0.00    +0.090 C 
ENDBRANCH   4   2
ENDBRANCH   8   7
BRANCH   8   9
ATOM      9  N   UNL     1      -4.032   0.563  24.654  0.00  0.00    -0.075 NA
BRANCH   9  10
ATOM     10  S   UNL     1      -3.952  -0.255  24.594  0.00  0.00    +0.077 S 
ATOM     11  O   UNL     1      -3.675  -0.171  23.822  0.00  0.00    -0.152 OA
ATOM     12  O   UNL     1      -4.230  -0.339  25.367  0.00  0.00    -0.152 OA
BRANCH  10  13
ATOM     13  C   UNL     1      -3.872  -1.074  24.534  0.00  0.00    +0.124 A 
ATOM     14  C   UNL     1      -4.270  -1.484  23.938  0.00  0.00    +0.020 A 
ATOM     15  C   UNL     1      -4.191  -2.304  23.877  0.00  0.00    +0.001 A 
ATOM     16  C   UNL     1      -3.713  -2.712  24.412  0.00  0.00    +0.000 A 
ATOM     17  C   UNL     1      -3.315  -2.302  25.006  0.00  0.00    +0.001 A 
ATOM     18  C   UNL     1      -3.395  -1.483  25.067  0.00  0.00    +0.020 A 
ENDBRANCH  10  13
ENDBRANCH   9  10
ENDBRANCH   8   9
TORSDOF 5
ENDMDL
