MODEL 1
REMARK VINA RESULT:     -11.8      0.000      0.000
REMARK  Name = 
REMARK  6 active torsions:
REMARK  status: ('A' for Active; 'I' for Inactive)
REMARK    1  A    between atoms: N_2  and  C_4
REMARK    2  A    between atoms: C_7  and  C_10
REMARK    3  A    between atoms: N_12  and  C_13
REMARK    4  A    between atoms: C_13  and  C_14
REMARK    5  A    between atoms: C_21  and  C_22
REMARK    6  A    between atoms: C_22  and  N_23
REMARK                            x       y       z     vdW  Elec       q    Type
REMARK                         _______ _______ _______ _____ _____    ______ ____
ROOT
ATOM     14  C   UNL     1      -4.921   2.030  25.097  0.00  0.00    +0.079 C 
ATOM     15  C   UNL     1      -5.076   2.743  25.367  0.00  0.00    +0.018 C 
ATOM     16  C   UNL     1      -4.526   3.317  25.523  0.00  0.00    +0.006 C 
ATOM     17  C   UNL     1      -4.907   4.069  25.829  0.00  0.00    +0.017 C 
ATOM     18  C   UNL     1      -4.897   3.455  25.607  0.00  0.00    +0.072 C 
ATOM     19  N   UNL     1      -4.368   2.620  25.258  0.00  0.00    -0.272 NA
ATOM     20  C   UNL     1      -3.459   2.642  25.182  0.00  0.00    +0.074 C 
ATOM     21  C   UNL     1      -3.652   3.331  25.448  0.00  0.00    +0.036 C 
ENDROOT
BRANCH  14  13
ATOM     13  C   UNL     1      -5.139   1.276  24.845  0.00  0.00    +0.131 C 
BRANCH  13  12
ATOM     10  C   UNL     1      -4.803  -0.091  24.593  0.00  0.00    +0.265 C 
ATOM     11  O   UNL     1      -5.573  -0.231  24.331  0.00  0.00    -0.268 OA
ATOM     12  N   UNL     1      -4.587   0.663  24.850  0.00  0.00    -0.200 NA
BRANCH  10   7
ATOM      4  C   UNL     1      -3.144  -1.927  24.607  0.00  0.00    +0.048 A 
ATOM      5  C   UNL     1      -3.539  -1.733  23.908  0.00  0.00    +0.015 A 
ATOM      6  C   UNL     1      -4.092  -1.121  23.903  0.00  0.00    +0.006 A 
ATOM      7  C   UNL     1      -4.250  -0.703  24.598  0.00  0.00    +0.055 A 
ATOM      8  C   UNL     1      -3.856  -0.897  25.296  0.00  0.00    +0.006 A 
ATOM      9  C   UNL     1      -3.302  -1.509  25.300  0.00  0.00    +0.015 A 
BRANCH   4   2
ATOM      1  C   UNL     1      -1.785  -2.367  24.608  0.00  0.00    +0.112 C 
ATOM      2  N   UNL     1      -2.591  -2.539  24.611  0.00  0.00    -0.304 N 
ATOM      3  C   UNL     1      -2.845  -3.325  24.619  0.00  0.00    +0.112 C 
ENDBRANCH   4   2
ENDBRANCH  10   7
ENDBRANCH  13  12
ENDBRANCH  14  13
BRANCH  21  22
ATOM     22  C   UNL     1      -3.145   3.957  25.626  0.00  0.00    +0.092 C 
BRANCH  22  23
ATOM     23  N   UNL     1      -2.330   3.868  25.531  0.00  0.00    -0.307 N 
ATOM     24  C   UNL     1      -1.895   3.185  25.691  0.00  0.00    +0.095 C 
ATOM     25  C   UNL     1      -1.104   3.341  25.519  0.00  0.00    +0.049 C 
ATOM     26  C   UNL     1      -1.050   4.121  25.253  0.00  0.00    -0.007 A 
ATOM     27  C   UNL     1      -0.408   4.575  25.004  0.00  0.00    -0.003 A 
ATOM     28  C   UNL     1      -0.524   5.356  24.764  0.00  0.00    -0.000 A 
ATOM     29  C   UNL     1      -1.282   5.682  24.772  0.00  0.00    +0.001 A 
ATOM     30  C   UNL     1      -1.923   5.227  25.020  0.00  0.00    +0.014 A 
ATOM     31  C   UNL     1      -1.807   4.446  25.261  0.00  0.00    +0.044 A 
ENDBRANCH  22  23
ENDBRANCH  21  22
TORSDOF 6
ENDMDL
MODEL 2
REMARK VINA RESULT:     -11.4      4.595      6.878
REMARK  Name = 
REMARK  6 active torsions:
REMARK  status: ('A' for Active; 'I' for Inactive)
REMARK    1  A    between atoms: N_2  and  C_4
REMARK    2  A    between atoms: C_7  and  C_10
REMARK    3  A    between atoms: N_12  and  C_13
REMARK    4  A    between atoms: C_13  and  C_14
REMARK    5  A    between atoms: C_21  and  C_22
REMARK    6  A    between atoms: C_22  and  N_23
REMARK                            x       y       z     vdW  Elec       q    Type
REMARK                         _______ _______ _______ _____ _____    ______ ____
ROOT
ATOM     14  C   UNL     1       0.410   0.291  23.430  0.00  0.00    +0.079 C 
ATOM     15  C   UNL     1       0.020   0.690  23.972  0.00  0.00    +0.018 C 
ATOM     16  C   UNL     1      -0.635   0.429  24.369  0.00  0.00    +0.006 C 
ATOM     17  C   UNL     1      -0.936   1.039  24.953  0.00  0.00    +0.017 C 
ATOM     18  C   UNL     1      -0.538   0.801  24.494  0.00  0.00    +0.072 C 
ATOM     19  N   UNL     1      -0.258   0.032  23.838  0.00  0.00    -0.272 NA
ATOM     20  C   UNL     1      -0.734  -0.746  23.801  0.00  0.00    +0.074 C 
ATOM     21  C   UNL     1      -1.088  -0.322  24.328  0.00  0.00    +0.036 C 
ENDROOT
BRANCH  14  13
ATOM     13  C   UNL     1       1.016   0.198  22.878  0.00  0.00    +0.131 C 
BRANCH  13  12
ATOM     10  C   UNL     1       2.409   0.092  22.576  0.00  0.00    +0.265 C 
ATOM     11  O   UNL     1       2.227  -0.040  21.782  0.00  0.00    -0.268 OA
ATOM     12  N   UNL     1       1.804   0.211  23.123  0.00  0.00    -0.200 NA
BRANCH  10   7
ATOM      4  C   UNL     1       4.771   0.135  23.315  0.00  0.00    +0.048 A 
ATOM      5  C   UNL     1       4.437   0.802  22.964  0.00  0.00    +0.015 A 
ATOM      6  C   UNL     1       3.649   0.789  22.717  0.00  0.00    +0.006 A 
ATOM      7  C   UNL     1       3.197   0.106  22.823  0.00  0.00    +0.055 A 
ATOM      8  C   UNL     1       3.530  -0.561  23.174  0.00  0.00    +0.006 A 
ATOM      9  C   UNL     1       4.318  -0.546  23.420  0.00  0.00    +0.015 A 
BRANCH   4   2
ATOM      1  C   UNL     1       5.768   0.550  24.250  0.00  0.00    +0.112 C 
ATOM      2  N   UNL     1       5.558   0.149  23.561  0.00  0.00    -0.304 N 
ATOM      3  C   UNL     1       6.136  -0.239  23.118  0.00  0.00    +0.112 C 
ENDBRANCH   4   2
ENDBRANCH  10   7
ENDBRANCH  13  12
ENDBRANCH  14  13
BRANCH  21  22
ATOM     22  C   UNL     1      -1.757  -0.526  24.766  0.00  0.00    +0.092 C 
BRANCH  22  23
ATOM     23  N   UNL     1      -2.102  -1.269  24.669  0.00  0.00    -0.307 N 
ATOM     24  C   UNL     1      -1.718  -1.996  24.743  0.00  0.00    +0.095 C 
ATOM     25  C   UNL     1      -2.269  -2.592  24.600  0.00  0.00    +0.049 C 
ATOM     26  C   UNL     1      -2.995  -2.233  24.439  0.00  0.00    -0.007 A 
ATOM     27  C   UNL     1      -3.737  -2.547  24.259  0.00  0.00    -0.003 A 
ATOM     28  C   UNL     1      -4.375  -2.042  24.122  0.00  0.00    -0.000 A 
ATOM     29  C   UNL     1      -4.272  -1.224  24.164  0.00  0.00    +0.001 A 
ATOM     30  C   UNL     1      -3.530  -0.912  24.344  0.00  0.00    +0.014 A 
ATOM     31  C   UNL     1      -2.892  -1.417  24.482  0.00  0.00    +0.044 A 
ENDBRANCH  22  23
ENDBRANCH  21  22
TORSDOF 6
ENDMDL
MODEL 3
REMARK VINA RESULT:     -11.2      4.482      6.113
REMARK  Name = 
REMARK  6 active torsions:
REMARK  status: ('A' for Active; 'I' for Inactive)
REMARK    1  A    between atoms: N_2  and  C_4
REMARK    2  A    between atoms: C_7  and  C_10
REMARK    3  A    between atoms: N_12  and  C_13
REMARK    4  A    between atoms: C_13  and  C_14
REMARK    5  A    between atoms: C_21  and  C_22
REMARK    6  A    between atoms: C_22  and  N_23
REMARK                            x       y       z     vdW  Elec       q    Type
REMARK                         _______ _______ _______ _____ _____    ______ ____
ROOT
ATOM     14  C   UNL     1       0.167  -0.049  23.534  0.00  0.00    +0.079 C 
ATOM     15  C   UNL     1      -0.146  -0.380  24.164  0.00  0.00    +0.018 C 
ATOM     16  C   UNL     1      -0.840  -0.158  24.517  0.00  0.00    +0.006 C 
ATOM     17  C   UNL     1      -1.028  -0.666  25.232  0.00  0.00    +0.017 C 
ATOM     18  C   UNL     1      -0.677  -0.470  24.717  0.00  0.00    +0.072 C 
ATOM     19  N   UNL     1      -0.539   0.171  23.899  0.00  0.00    -0.272 NA
ATOM     20  C   UNL     1      -1.147   0.824  23.709  0.00  0.00    +0.074 C 
ATOM     21  C   UNL     1      -1.421   0.472  24.328  0.00  0.00    +0.036 C 
ENDROOT
BRANCH  14  13
ATOM     13  C   UNL     1       0.749   0.025  22.954  0.00  0.00    +0.131 C 
BRANCH  13  12
ATOM     10  C   UNL     1       2.131   0.029  22.590  0.00  0.00    +0.265 C 
ATOM     11  O   UNL     1       1.922  -0.039  21.794  0.00  0.00    -0.268 OA
ATOM     12  N   UNL     1       1.545   0.061  23.169  0.00  0.00    -0.200 NA
BRANCH  10   7
ATOM      4  C   UNL     1       4.517   0.139  23.238  0.00  0.00    +0.048 A 
ATOM      5  C   UNL     1       4.146   0.802  22.915  0.00  0.00    +0.015 A 
ATOM      6  C   UNL     1       3.351   0.765  22.699  0.00  0.00    +0.006 A 
ATOM      7  C   UNL     1       2.927   0.065  22.806  0.00  0.00    +0.055 A 
ATOM      8  C   UNL     1       3.297  -0.597  23.129  0.00  0.00    +0.006 A 
ATOM      9  C   UNL     1       4.093  -0.560  23.345  0.00  0.00    +0.015 A 
BRANCH   4   2
ATOM      1  C   UNL     1       5.533   0.545  24.157  0.00  0.00    +0.112 C 
ATOM      2  N   UNL     1       5.312   0.176  23.454  0.00  0.00    -0.304 N 
ATOM      3  C   UNL     1       5.888  -0.158  22.966  0.00  0.00    +0.112 C 
ENDBRANCH   4   2
ENDBRANCH  10   7
ENDBRANCH  13  12
ENDBRANCH  14  13
BRANCH  21  22
ATOM     22  C   UNL     1      -2.118   0.647  24.735  0.00  0.00    +0.092 C 
BRANCH  22  23
ATOM     23  N   UNL     1      -2.574   1.296  24.511  0.00  0.00    -0.307 N 
ATOM     24  C   UNL     1      -2.296   1.979  24.138  0.00  0.00    +0.095 C 
ATOM     25  C   UNL     1      -2.938   2.482  24.016  0.00  0.00    +0.049 C 
ATOM     26  C   UNL     1      -3.613   2.110  24.313  0.00  0.00    -0.007 A 
ATOM     27  C   UNL     1      -4.403   2.346  24.344  0.00  0.00    -0.003 A 
ATOM     28  C   UNL     1      -4.968   1.848  24.681  0.00  0.00    -0.000 A 
ATOM     29  C   UNL     1      -4.743   1.115  24.987  0.00  0.00    +0.001 A 
ATOM     30  C   UNL     1      -3.953   0.881  24.955  0.00  0.00    +0.014 A 
ATOM     31  C   UNL     1      -3.388   1.378  24.618  0.00  0.00    +0.044 A 
ENDBRANCH  22  23
ENDBRANCH  21  22
TORSDOF 6
ENDMDL
MODEL 4
REMARK VINA RESULT:     -10.8      1.314      5.578
REMARK  Name = 
REMARK  6 active torsions:
REMARK  status: ('A' for Active; 'I' for Inactive)
REMARK    1  A    between atoms: N_2  and  C_4
REMARK    2  A    between atoms: C_7  and  C_10
REMARK    3  A    between atoms: N_12  and  C_13
REMARK    4  A    between atoms: C_13  and  C_14
REMARK    5  A    between atoms: C_21  and  C_22
REMARK    6  A    between atoms: C_22  and  N_23
REMARK                            x       y       z     vdW  Elec       q    Type
REMARK                         _______ _______ _______ _____ _____    ______ ____
ROOT
ATOM     14  C   UNL     1      -4.802   2.503  25.507  0.00  0.00    +0.079 C 
ATOM     15  C   UNL     1      -5.410   2.107  25.226  0.00  0.00    +0.018 C 
ATOM     16  C   UNL     1      -5.400   1.332  24.993  0.00  0.00    +0.006 C 
ATOM     17  C   UNL     1      -6.203   1.062  24.699  0.00  0.00    +0.017 C 
ATOM     18  C   UNL     1      -5.771   1.486  24.942  0.00  0.00    +0.072 C 
ATOM     19  N   UNL     1      -4.800   1.714  25.268  0.00  0.00    -0.272 NA
ATOM     20  C   UNL     1      -4.142   1.082  25.250  0.00  0.00    +0.074 C 
ATOM     21  C   UNL     1      -4.762   0.729  24.979  0.00  0.00    +0.036 C 
ENDROOT
BRANCH  14  13
ATOM     13  C   UNL     1      -4.441   3.181  25.808  0.00  0.00    +0.131 C 
BRANCH  13  12
ATOM     10  C   UNL     1      -3.252   3.966  25.924  0.00  0.00    +0.265 C 
ATOM     11  O   UNL     1      -3.505   4.239  26.661  0.00  0.00    -0.268 OA
ATOM     12  N   UNL     1      -3.720   3.437  25.498  0.00  0.00    -0.200 NA
BRANCH  10   7
ATOM      4  C   UNL     1      -1.091   4.733  24.992  0.00  0.00    +0.048 A 
ATOM      5  C   UNL     1      -1.175   3.955  25.255  0.00  0.00    +0.015 A 
ATOM      6  C   UNL     1      -1.895   3.699  25.566  0.00  0.00    +0.006 A 
ATOM      7  C   UNL     1      -2.532   4.222  25.614  0.00  0.00    +0.055 A 
ATOM      8  C   UNL     1      -2.449   4.999  25.351  0.00  0.00    +0.006 A 
ATOM      9  C   UNL     1      -1.728   5.255  25.040  0.00  0.00    +0.015 A 
BRANCH   4   2
ATOM      1  C   UNL     1       0.168   4.441  24.384  0.00  0.00    +0.112 C 
ATOM      2  N   UNL     1      -0.372   4.989  24.682  0.00  0.00    -0.304 N 
ATOM      3  C   UNL     1      -0.190   5.794  24.669  0.00  0.00    +0.112 C 
ENDBRANCH   4   2
ENDBRANCH  10   7
ENDBRANCH  13  12
ENDBRANCH  14  13
BRANCH  21  22
ATOM     22  C   UNL     1      -4.821  -0.054  24.726  0.00  0.00    +0.092 C 
BRANCH  22  23
ATOM     23  N   UNL     1      -4.273  -0.613  24.986  0.00  0.00    -0.307 N 
ATOM     24  C   UNL     1      -3.796  -0.549  25.657  0.00  0.00    +0.095 C 
ATOM     25  C   UNL     1      -3.334  -1.230  25.708  0.00  0.00    +0.049 C 
ATOM     26  C   UNL     1      -3.526  -1.716  25.068  0.00  0.00    -0.007 A 
ATOM     27  C   UNL     1      -3.245  -2.456  24.834  0.00  0.00    -0.003 A 
ATOM     28  C   UNL     1      -3.546  -2.814  24.155  0.00  0.00    -0.000 A 
ATOM     29  C   UNL     1      -4.126  -2.433  23.708  0.00  0.00    +0.001 A 
ATOM     30  C   UNL     1      -4.405  -1.693  23.943  0.00  0.00    +0.014 A 
ATOM     31  C   UNL     1      -4.105  -1.334  24.623  0.00  0.00    +0.044 A 
ENDBRANCH  22  23
ENDBRANCH  21  22
TORSDOF 6
ENDMDL
MODEL 5
REMARK VINA RESULT:     -10.1      1.953      5.939
REMARK  Name = 
REMARK  6 active torsions:
REMARK  status: ('A' for Active; 'I' for Inactive)
REMARK    1  A    between atoms: N_2  and  C_4
REMARK    2  A    between atoms: C_7  and  C_10
REMARK    3  A    between atoms: N_12  and  C_13
REMARK    4  A    between atoms: C_13  and  C_14
REMARK    5  A    between atoms: C_21  and  C_22
REMARK    6  A    between atoms: C_22  and  N_23
REMARK                            x       y       z     vdW  Elec       q    Type
REMARK                         _______ _______ _______ _____ _____    ______ ____
ROOT
ATOM     14  C   UNL     1      -0.974   1.566  24.364  0.00  0.00    +0.079 C 
ATOM     15  C   UNL     1      -0.470   1.006  24.170  0.00  0.00    +0.018 C 
ATOM     16  C   UNL     1      -0.580   0.212  24.286  0.00  0.00    +0.006 C 
ATOM     17  C   UNL     1       0.119  -0.267  23.993  0.00  0.00    +0.017 C 
ATOM     18  C   UNL     1      -0.221   0.278  24.110  0.00  0.00    +0.072 C 
ATOM     19  N   UNL     1      -1.078   0.756  24.479  0.00  0.00    -0.272 NA
ATOM     20  C   UNL     1      -1.762   0.273  24.842  0.00  0.00    +0.074 C 
ATOM     21  C   UNL     1      -1.242  -0.246  24.636  0.00  0.00    +0.036 C 
ENDROOT
BRANCH  14  13
ATOM     13  C   UNL     1      -1.216   2.353  24.416  0.00  0.00    +0.131 C 
BRANCH  13  12
ATOM     10  C   UNL     1      -2.220   3.315  24.747  0.00  0.00    +0.265 C 
ATOM     11  O   UNL     1      -1.658   3.917  24.701  0.00  0.00    -0.268 OA
ATOM     12  N   UNL     1      -1.999   2.533  24.604  0.00  0.00    -0.200 NA
BRANCH  10   7
ATOM      4  C   UNL     1      -4.569   3.852  25.314  0.00  0.00    +0.048 A 
ATOM      5  C   UNL     1      -3.996   3.827  25.907  0.00  0.00    +0.015 A 
ATOM      6  C   UNL     1      -3.213   3.648  25.719  0.00  0.00    +0.006 A 
ATOM      7  C   UNL     1      -3.003   3.494  24.935  0.00  0.00    +0.055 A 
ATOM      8  C   UNL     1      -3.575   3.519  24.342  0.00  0.00    +0.006 A 
ATOM      9  C   UNL     1      -4.358   3.698  24.531  0.00  0.00    +0.015 A 
BRANCH   4   2
ATOM      1  C   UNL     1      -5.614   4.812  25.478  0.00  0.00    +0.112 C 
ATOM      2  N   UNL     1      -5.351   4.031  25.502  0.00  0.00    -0.304 N 
ATOM      3  C   UNL     1      -5.873   3.428  25.716  0.00  0.00    +0.112 C 
ENDBRANCH   4   2
ENDBRANCH  10   7
ENDBRANCH  13  12
ENDBRANCH  14  13
BRANCH  21  22
ATOM     22  C   UNL     1      -1.290  -1.065  24.725  0.00  0.00    +0.092 C 
BRANCH  22  23
ATOM     23  N   UNL     1      -1.965  -1.404  25.057  0.00  0.00    -0.307 N 
ATOM     24  C   UNL     1      -2.343  -1.157  25.748  0.00  0.00    +0.095 C 
ATOM     25  C   UNL     1      -2.992  -1.649  25.874  0.00  0.00    +0.049 C 
ATOM     26  C   UNL     1      -3.015  -2.201  25.260  0.00  0.00    -0.007 A 
ATOM     27  C   UNL     1      -3.534  -2.822  25.097  0.00  0.00    -0.003 A 
ATOM     28  C   UNL     1      -3.417  -3.292  24.429  0.00  0.00    -0.000 A 
ATOM     29  C   UNL     1      -2.782  -3.140  23.923  0.00  0.00    +0.001 A 
ATOM     30  C   UNL     1      -2.265  -2.519  24.087  0.00  0.00    +0.014 A 
ATOM     31  C   UNL     1      -2.381  -2.049  24.756  0.00  0.00    +0.044 A 
ENDBRANCH  22  23
ENDBRANCH  21  22
TORSDOF 6
ENDMDL
MODEL 6
REMARK VINA RESULT:     -10.1      2.188      6.462
REMARK  Name = 
REMARK  6 active torsions:
REMARK  status: ('A' for Active; 'I' for Inactive)
REMARK    1  A    between atoms: N_2  and  C_4
REMARK    2  A    between atoms: C_7  and  C_10
REMARK    3  A    between atoms: N_12  and  C_13
REMARK    4  A    between atoms: C_13  and  C_14
REMARK    5  A    between atoms: C_21  and  C_22
REMARK    6  A    between atoms: C_22  and  N_23
REMARK                            x       y       z     vdW  Elec       q    Type
REMARK                         _______ _______ _______ _____ _____    ______ ____
ROOT
ATOM     14  C   UNL     1      -0.214   0.041  24.611  0.00  0.00    +0.079 C 
ATOM     15  C   UNL     1      -0.167  -0.693  24.864  0.00  0.00    +0.018 C 
ATOM     16  C   UNL     1      -0.794  -1.195  24.970  0.00  0.00    +0.006 C 
ATOM     17  C   UNL     1      -0.530  -1.998  25.269  0.00  0.00    +0.017 C 
ATOM     18  C   UNL     1      -0.449  -1.382  25.069  0.00  0.00    +0.072 C 
ATOM     19  N   UNL     1      -0.846  -0.476  24.721  0.00  0.00    -0.272 NA
ATOM     20  C   UNL     1      -1.745  -0.379  24.595  0.00  0.00    +0.074 C 
ATOM     21  C   UNL     1      -1.657  -1.094  24.846  0.00  0.00    +0.036 C 
ENDROOT
BRANCH  14  13
ATOM     13  C   UNL     1       0.113   0.768  24.398  0.00  0.00    +0.131 C 
BRANCH  13  12
ATOM     10  C   UNL     1       0.103   2.190  24.537  0.00  0.00    +0.265 C 
ATOM     11  O   UNL     1       0.906   2.215  24.345  0.00  0.00    -0.268 OA
ATOM     12  N   UNL     1      -0.292   1.467  24.563  0.00  0.00    -0.200 NA
BRANCH  10   7
ATOM      4  C   UNL     1      -1.116   4.287  25.031  0.00  0.00    +0.048 A 
ATOM      5  C   UNL     1      -0.856   4.132  24.264  0.00  0.00    +0.015 A 
ATOM      6  C   UNL     1      -0.449   3.433  24.098  0.00  0.00    +0.006 A 
ATOM      7  C   UNL     1      -0.303   2.889  24.702  0.00  0.00    +0.055 A 
ATOM      8  C   UNL     1      -0.563   3.044  25.469  0.00  0.00    +0.006 A 
ATOM      9  C   UNL     1      -0.970   3.743  25.634  0.00  0.00    +0.015 A 
BRANCH   4   2
ATOM      1  C   UNL     1      -1.205   5.712  24.967  0.00  0.00    +0.112 C 
ATOM      2  N   UNL     1      -1.522   4.986  25.196  0.00  0.00    -0.304 N 
ATOM      3  C   UNL     1      -2.247   4.959  25.590  0.00  0.00    +0.112 C 
ENDBRANCH   4   2
ENDBRANCH  10   7
ENDBRANCH  13  12
ENDBRANCH  14  13
BRANCH  21  22
ATOM     22  C   UNL     1      -2.249  -1.654  24.975  0.00  0.00    +0.092 C 
BRANCH  22  23
ATOM     23  N   UNL     1      -3.010  -1.523  24.686  0.00  0.00    -0.307 N 
ATOM     24  C   UNL     1      -3.419  -0.806  24.706  0.00  0.00    +0.095 C 
ATOM     25  C   UNL     1      -4.158  -0.924  24.360  0.00  0.00    +0.049 C 
ATOM     26  C   UNL     1      -4.206  -1.715  24.126  0.00  0.00    -0.007 A 
ATOM     27  C   UNL     1      -4.805  -2.145  23.755  0.00  0.00    -0.003 A 
ATOM     28  C   UNL     1      -4.694  -2.945  23.586  0.00  0.00    -0.000 A 
ATOM     29  C   UNL     1      -3.984  -3.315  23.788  0.00  0.00    +0.001 A 
ATOM     30  C   UNL     1      -3.386  -2.884  24.159  0.00  0.00    +0.014 A 
ATOM     31  C   UNL     1      -3.497  -2.084  24.328  0.00  0.00    +0.044 A 
ENDBRANCH  22  23
ENDBRANCH  21  22
TORSDOF 6
ENDMDL
MODEL 7
REMARK VINA RESULT:     -10.1      1.750      3.227
REMARK  Name = 
REMARK  6 active torsions:
REMARK  status: ('A' for Active; 'I' for Inactive)
REMARK    1  A    between atoms: N_2  and  C_4
REMARK    2  A    between atoms: C_7  and  C_10
REMARK    3  A    between atoms: N_12  and  C_13
REMARK    4  A    between atoms: C_13  and  C_14
REMARK    5  A    between atoms: C_21  and  C_22
REMARK    6  A    between atoms: C_22  and  N_23
REMARK                            x       y       z     vdW  Elec       q    Type
REMARK                         _______ _______ _______ _____ _____    ______ ____
ROOT
ATOM     14  C   UNL     1      -0.652   1.142  25.418  0.00  0.00    +0.079 C 
ATOM     15  C   UNL     1      -0.416   1.860  25.602  0.00  0.00    +0.018 C 
ATOM     16  C   UNL     1      -0.858   2.535  25.527  0.00  0.00    +0.006 C 
ATOM     17  C   UNL     1      -0.405   3.262  25.793  0.00  0.00    +0.017 C 
ATOM     18  C   UNL     1      -0.493   2.625  25.675  0.00  0.00    +0.072 C 
ATOM     19  N   UNL     1      -1.096   1.833  25.345  0.00  0.00    -0.272 NA
ATOM     20  C   UNL     1      -1.945   1.986  25.049  0.00  0.00    +0.074 C 
ATOM     21  C   UNL     1      -1.676   2.674  25.241  0.00  0.00    +0.036 C 
ENDROOT
BRANCH  14  13
ATOM     13  C   UNL     1      -0.544   0.327  25.350  0.00  0.00    +0.131 C 
BRANCH  13  12
ATOM     10  C   UNL     1      -1.108  -0.976  25.191  0.00  0.00    +0.265 C 
ATOM     11  O   UNL     1      -0.408  -1.313  25.470  0.00  0.00    -0.268 OA
ATOM     12  N   UNL     1      -1.175  -0.156  25.131  0.00  0.00    -0.200 NA
BRANCH  10   7
ATOM      4  C   UNL     1      -3.005  -2.424  24.535  0.00  0.00    +0.048 A 
ATOM      5  C   UNL     1      -3.113  -1.835  25.103  0.00  0.00    +0.015 A 
ATOM      6  C   UNL     1      -2.480  -1.352  25.322  0.00  0.00    +0.006 A 
ATOM      7  C   UNL     1      -1.740  -1.459  24.972  0.00  0.00    +0.055 A 
ATOM      8  C   UNL     1      -1.632  -2.048  24.405  0.00  0.00    +0.006 A 
ATOM      9  C   UNL     1      -2.265  -2.531  24.187  0.00  0.00    +0.015 A 
BRANCH   4   2
ATOM      1  C   UNL     1      -3.651  -3.698  24.547  0.00  0.00    +0.112 C 
ATOM      2  N   UNL     1      -3.637  -2.907  24.317  0.00  0.00    -0.304 N 
ATOM      3  C   UNL     1      -4.257  -2.597  23.867  0.00  0.00    +0.112 C 
ENDBRANCH   4   2
ENDBRANCH  10   7
ENDBRANCH  13  12
ENDBRANCH  14  13
BRANCH  21  22
ATOM     22  C   UNL     1      -2.072   3.396  25.190  0.00  0.00    +0.092 C 
BRANCH  22  23
ATOM     23  N   UNL     1      -2.810   3.438  24.825  0.00  0.00    -0.307 N 
ATOM     24  C   UNL     1      -2.964   3.295  24.026  0.00  0.00    +0.095 C 
ATOM     25  C   UNL     1      -3.773   3.398  23.901  0.00  0.00    +0.049 C 
ATOM     26  C   UNL     1      -4.118   3.604  24.622  0.00  0.00    -0.007 A 
ATOM     27  C   UNL     1      -4.899   3.772  24.831  0.00  0.00    -0.003 A 
ATOM     28  C   UNL     1      -5.083   3.965  25.611  0.00  0.00    -0.000 A 
ATOM     29  C   UNL     1      -4.488   3.990  26.183  0.00  0.00    +0.001 A 
ATOM     30  C   UNL     1      -3.708   3.821  25.973  0.00  0.00    +0.014 A 
ATOM     31  C   UNL     1      -3.523   3.628  25.192  0.00  0.00    +0.044 A 
ENDBRANCH  22  23
ENDBRANCH  21  22
TORSDOF 6
ENDMDL
MODEL 8
REMARK VINA RESULT:     -10.1      3.537      4.963
REMARK  Name = 
REMARK  6 active torsions:
REMARK  status: ('A' for Active; 'I' for Inactive)
REMARK    1  A    between atoms: N_2  and  C_4
REMARK    2  A    between atoms: C_7  and  C_10
REMARK    3  A    between atoms: N_12  and  C_13
REMARK    4  A    between atoms: C_13  and  C_14
REMARK    5  A    between atoms: C_21  and  C_22
REMARK    6  A    between atoms: C_22  and  N_23
REMARK                            x       y       z     vdW  Elec       q    Type
REMARK                         _______ _______ _______ _____ _____    ______ ____
ROOT
ATOM     14  C   UNL     1      -1.630   1.158  23.552  0.00  0.00    +0.079 C 
ATOM     15  C   UNL     1      -2.003   1.558  22.999  0.00  0.00    +0.018 C 
ATOM     16  C   UNL     1      -2.692   1.972  23.100  0.00  0.00    +0.006 C 
ATOM     17  C   UNL     1      -2.961   2.363  22.340  0.00  0.00    +0.017 C 
ATOM     18  C   UNL     1      -2.568   2.002  22.716  0.00  0.00    +0.072 C 
ATOM     19  N   UNL     1      -2.331   1.583  23.647  0.00  0.00    -0.272 NA
ATOM     20  C   UNL     1      -2.868   1.721  24.372  0.00  0.00    +0.074 C 
ATOM     21  C   UNL     1      -3.203   2.101  23.802  0.00  0.00    +0.036 C 
ENDROOT
BRANCH  14  13
ATOM     13  C   UNL     1      -1.015   0.683  23.828  0.00  0.00    +0.131 C 
BRANCH  13  12
ATOM     10  C   UNL     1       0.308   0.177  23.643  0.00  0.00    +0.265 C 
ATOM     11  O   UNL     1       0.116  -0.490  24.088  0.00  0.00    -0.268 OA
ATOM     12  N   UNL     1      -0.257   0.763  23.513  0.00  0.00    -0.200 NA
BRANCH  10   7
ATOM      4  C   UNL     1       2.583   0.422  22.696  0.00  0.00    +0.048 A 
ATOM      5  C   UNL     1       2.336   0.914  23.311  0.00  0.00    +0.015 A 
ATOM      6  C   UNL     1       1.578   0.833  23.627  0.00  0.00    +0.006 A 
ATOM      7  C   UNL     1       1.067   0.258  23.327  0.00  0.00    +0.055 A 
ATOM      8  C   UNL     1       1.312  -0.234  22.712  0.00  0.00    +0.006 A 
ATOM      9  C   UNL     1       2.071  -0.152  22.397  0.00  0.00    +0.015 A 
BRANCH   4   2
ATOM      1  C   UNL     1       3.499   0.243  21.615  0.00  0.00    +0.112 C 
ATOM      2  N   UNL     1       3.340   0.503  22.380  0.00  0.00    -0.304 N 
ATOM      3  C   UNL     1       3.940   0.847  22.832  0.00  0.00    +0.112 C 
ENDBRANCH   4   2
ENDBRANCH  10   7
ENDBRANCH  13  12
ENDBRANCH  14  13
BRANCH  21  22
ATOM     22  C   UNL     1      -3.901   2.540  23.837  0.00  0.00    +0.092 C 
BRANCH  22  23
ATOM     23  N   UNL     1      -4.191   2.796  24.566  0.00  0.00    -0.307 N 
ATOM     24  C   UNL     1      -3.819   3.328  25.076  0.00  0.00    +0.095 C 
ATOM     25  C   UNL     1      -4.300   3.426  25.738  0.00  0.00    +0.049 C 
ATOM     26  C   UNL     1      -4.971   2.954  25.637  0.00  0.00    -0.007 A 
ATOM     27  C   UNL     1      -5.634   2.830  26.112  0.00  0.00    -0.003 A 
ATOM     28  C   UNL     1      -6.229   2.316  25.863  0.00  0.00    -0.000 A 
ATOM     29  C   UNL     1      -6.161   1.927  25.138  0.00  0.00    +0.001 A 
ATOM     30  C   UNL     1      -5.498   2.052  24.664  0.00  0.00    +0.014 A 
ATOM     31  C   UNL     1      -4.903   2.566  24.913  0.00  0.00    +0.044 A 
ENDBRANCH  22  23
ENDBRANCH  21  22
TORSDOF 6
ENDMDL
