MODEL 1
REMARK VINA RESULT:      -6.1      0.000      0.000
REMARK  Name = 
REMARK  5 active torsions:
REMARK  status: ('A' for Active; 'I' for Inactive)
REMARK    1  A    between atoms: O_2  and  C_3
REMARK    2  A    between atoms: C_3  and  C_4
REMARK    3  A    between atoms: N_6  and  C_7
REMARK    4  A    between atoms: C_7  and  C_8
REMARK    5  A    between atoms: C_11  and  N_14
REMARK                            x       y       z     vdW  Elec       q    Type
REMARK                         _______ _______ _______ _____ _____    ______ ____
ROOT
ATOM      8  C   UNL     1      -4.099  -0.399  25.000  0.00  0.00    +0.168 C 
ATOM      9  O   UNL     1      -3.755  -0.537  25.737  0.00  0.00    -0.350 OA
ATOM     10  C   UNL     1      -3.339  -1.249  25.694  0.00  0.00    +0.161 C 
ATOM     11  C   UNL     1      -3.428  -1.549  24.931  0.00  0.00    +0.121 C 
ATOM     12  C   UNL     1      -3.897  -1.024  24.502  0.00  0.00    +0.198 C 
ATOM     13  O   UNL     1      -4.124  -1.109  23.713  0.00  0.00    -0.219 OA
ENDROOT
BRANCH  11  14
ATOM     14  N   UNL     1      -3.103  -2.253  24.646  0.00  0.00    -0.267 NA
ATOM     15  C   UNL     1      -2.299  -2.294  24.468  0.00  0.00    +0.090 C 
ATOM     16  C   UNL     1      -3.583  -2.915  24.541  0.00  0.00    +0.090 C 
ENDBRANCH  11  14
BRANCH   8   7
ATOM      7  C   UNL     1      -4.564   0.253  24.797  0.00  0.00    +0.147 C 
BRANCH   7   6
ATOM      4  C   UNL     1      -4.892   1.631  24.980  0.00  0.00    +0.272 C 
ATOM      5  O   UNL     1      -5.622   1.506  24.617  0.00  0.00    -0.271 OA
ATOM      6  N   UNL     1      -4.363   1.004  25.070  0.00  0.00    -0.201 NA
BRANCH   4   3
ATOM      3  C   UNL     1      -4.691   2.383  25.254  0.00  0.00    +0.229 C 
BRANCH   3   2
ATOM      1  C   UNL     1      -5.067   3.722  25.582  0.00  0.00    +0.175 C 
ATOM      2  O   UNL     1      -5.271   2.966  25.323  0.00  0.00    -0.342 OA
ENDBRANCH   3   2
ENDBRANCH   4   3
ENDBRANCH   7   6
ENDBRANCH   8   7
TORSDOF 5
ENDMDL
MODEL 2
REMARK VINA RESULT:      -5.9      1.262      4.251
REMARK  Name = 
REMARK  5 active torsions:
REMARK  status: ('A' for Active; 'I' for Inactive)
REMARK    1  A    between atoms: O_2  and  C_3
REMARK    2  A    between atoms: C_3  and  C_4
REMARK    3  A    between atoms: N_6  and  C_7
REMARK    4  A    between atoms: C_7  and  C_8
REMARK    5  A    between atoms: C_11  and  N_14
REMARK                            x       y       z     vdW  Elec       q    Type
REMARK                         _______ _______ _______ _____ _____    ______ ____
ROOT
ATOM      8  C   UNL     1      -3.857   1.189  24.689  0.00  0.00    +0.168 C 
ATOM      9  O   UNL     1      -3.077   1.375  24.881  0.00  0.00    -0.350 OA
ATOM     10  C   UNL     1      -3.030   2.191  24.995  0.00  0.00    +0.161 C 
ATOM     11  C   UNL     1      -3.782   2.509  24.874  0.00  0.00    +0.121 C 
ATOM     12  C   UNL     1      -4.293   1.889  24.684  0.00  0.00    +0.198 C 
ATOM     13  O   UNL     1      -5.098   1.959  24.520  0.00  0.00    -0.219 OA
ENDROOT
BRANCH  11  14
ATOM     14  N   UNL     1      -3.986   3.306  24.932  0.00  0.00    -0.267 NA
ATOM     15  C   UNL     1      -3.878   3.808  24.286  0.00  0.00    +0.090 C 
ATOM     16  C   UNL     1      -4.297   3.602  25.636  0.00  0.00    +0.090 C 
ENDBRANCH  11  14
BRANCH   8   7
ATOM      7  C   UNL     1      -4.151   0.435  24.529  0.00  0.00    +0.147 C 
BRANCH   7   6
ATOM      4  C   UNL     1      -3.981  -0.984  24.548  0.00  0.00    +0.272 C 
ATOM      5  O   UNL     1      -4.643  -1.070  24.064  0.00  0.00    -0.271 OA
ATOM      6  N   UNL     1      -3.734  -0.231  24.781  0.00  0.00    -0.201 NA
BRANCH   4   3
ATOM      3  C   UNL     1      -3.564  -1.650  24.800  0.00  0.00    +0.229 C 
BRANCH   3   2
ATOM      1  C   UNL     1      -3.311  -3.054  24.719  0.00  0.00    +0.175 C 
ATOM      2  O   UNL     1      -3.748  -2.393  24.490  0.00  0.00    -0.342 OA
ENDBRANCH   3   2
ENDBRANCH   4   3
ENDBRANCH   7   6
ENDBRANCH   8   7
TORSDOF 5
ENDMDL
MODEL 3
REMARK VINA RESULT:      -5.8      2.089      2.380
REMARK  Name = 
REMARK  5 active torsions:
REMARK  status: ('A' for Active; 'I' for Inactive)
REMARK    1  A    between atoms: O_2  and  C_3
REMARK    2  A    between atoms: C_3  and  C_4
REMARK    3  A    between atoms: N_6  and  C_7
REMARK    4  A    between atoms: C_7  and  C_8
REMARK    5  A    between atoms: C_11  and  N_14
REMARK                            x       y       z     vdW  Elec       q    Type
REMARK                         _______ _______ _______ _____ _____    ______ ____
ROOT
ATOM      8  C   UNL     1      -3.046   1.046  24.752  0.00  0.00    +0.168 C 
ATOM      9  O   UNL     1      -2.329   0.667  24.604  0.00  0.00    -0.350 OA
ATOM     10  C   UNL     1      -2.465  -0.147  24.600  0.00  0.00    +0.161 C 
ATOM     11  C   UNL     1      -3.268  -0.270  24.746  0.00  0.00    +0.121 C 
ATOM     12  C   UNL     1      -3.627   0.467  24.840  0.00  0.00    +0.198 C 
ATOM     13  O   UNL     1      -4.426   0.600  24.995  0.00  0.00    -0.219 OA
ENDROOT
BRANCH  11  14
ATOM     14  N   UNL     1      -3.646  -1.003  24.790  0.00  0.00    -0.267 NA
ATOM     15  C   UNL     1      -3.598  -1.451  25.480  0.00  0.00    +0.090 C 
ATOM     16  C   UNL     1      -4.071  -1.287  24.142  0.00  0.00    +0.090 C 
ENDBRANCH  11  14
BRANCH   8   7
ATOM      7  C   UNL     1      -3.163   1.861  24.804  0.00  0.00    +0.147 C 
BRANCH   7   6
ATOM      4  C   UNL     1      -2.637   3.178  24.982  0.00  0.00    +0.272 C 
ATOM      5  O   UNL     1      -3.392   3.494  24.880  0.00  0.00    -0.271 OA
ATOM      6  N   UNL     1      -2.522   2.361  24.943  0.00  0.00    -0.201 NA
BRANCH   4   3
ATOM      3  C   UNL     1      -1.995   3.678  25.122  0.00  0.00    +0.229 C 
BRANCH   3   2
ATOM      1  C   UNL     1      -1.463   5.002  25.194  0.00  0.00    +0.175 C 
ATOM      2  O   UNL     1      -2.112   4.493  25.172  0.00  0.00    -0.342 OA
ENDBRANCH   3   2
ENDBRANCH   4   3
ENDBRANCH   7   6
ENDBRANCH   8   7
TORSDOF 5
ENDMDL
MODEL 4
REMARK VINA RESULT:      -5.7      2.214      4.286
REMARK  Name = 
REMARK  5 active torsions:
REMARK  status: ('A' for Active; 'I' for Inactive)
REMARK    1  A    between atoms: O_2  and  C_3
REMARK    2  A    between atoms: C_3  and  C_4
REMARK    3  A    between atoms: N_6  and  C_7
REMARK    4  A    between atoms: C_7  and  C_8
REMARK    5  A    between atoms: C_11  and  N_14
REMARK                            x       y       z     vdW  Elec       q    Type
REMARK                         _______ _______ _______ _____ _____    ______ ____
ROOT
ATOM      8  C   UNL     1      -3.533   1.416  24.567  0.00  0.00    +0.168 C 
ATOM      9  O   UNL     1      -3.480   2.171  24.241  0.00  0.00    -0.350 OA
ATOM     10  C   UNL     1      -4.172   2.579  24.428  0.00  0.00    +0.161 C 
ATOM     11  C   UNL     1      -4.653   2.074  24.870  0.00  0.00    +0.121 C 
ATOM     12  C   UNL     1      -4.257   1.356  24.956  0.00  0.00    +0.198 C 
ATOM     13  O   UNL     1      -4.538   0.693  25.360  0.00  0.00    -0.219 OA
ENDROOT
BRANCH  11  14
ATOM     14  N   UNL     1      -5.399   2.257  25.173  0.00  0.00    -0.267 NA
ATOM     15  C   UNL     1      -6.073   1.910  24.848  0.00  0.00    +0.090 C 
ATOM     16  C   UNL     1      -5.469   2.788  25.801  0.00  0.00    +0.090 C 
ENDBRANCH  11  14
BRANCH   8   7
ATOM      7  C   UNL     1      -2.960   0.823  24.514  0.00  0.00    +0.147 C 
BRANCH   7   6
ATOM      4  C   UNL     1      -1.619   0.420  24.228  0.00  0.00    +0.272 C 
ATOM      5  O   UNL     1      -1.810  -0.356  24.431  0.00  0.00    -0.271 OA
ATOM      6  N   UNL     1      -2.195   1.011  24.270  0.00  0.00    -0.201 NA
BRANCH   4   3
ATOM      3  C   UNL     1      -0.854   0.608  23.984  0.00  0.00    +0.229 C 
BRANCH   3   2
ATOM      1  C   UNL     1       0.414   0.178  23.483  0.00  0.00    +0.175 C 
ATOM      2  O   UNL     1      -0.306   0.005  23.847  0.00  0.00    -0.342 OA
ENDBRANCH   3   2
ENDBRANCH   4   3
ENDBRANCH   7   6
ENDBRANCH   8   7
TORSDOF 5
ENDMDL
