MODEL 1
REMARK VINA RESULT:     -10.2      0.000      0.000
REMARK  Name = 
REMARK  8 active torsions:
REMARK  status: ('A' for Active; 'I' for Inactive)
REMARK    1  A    between atoms: S_2  and  C_5
REMARK    2  A    between atoms: C_5  and  C_6
REMARK    3  A    between atoms: C_6  and  C_7
REMARK    4  A    between atoms: C_7  and  N_8
REMARK    5  A    between atoms: C_7  and  C_27
REMARK    6  A    between atoms: C_9  and  C_11
REMARK    7  A    between atoms: C_13  and  N_14
REMARK    8  A    between atoms: C_15  and  C_17
REMARK                            x       y       z     vdW  Elec       q    Type
REMARK                         _______ _______ _______ _____ _____    ______ ____
ROOT
ATOM     11  C   UNL     1      -3.947   1.336  24.708  0.00  0.00    +0.033 C 
ATOM     12  C   UNL     1      -3.424   1.970  24.646  0.00  0.00    -0.002 C 
ATOM     13  C   UNL     1      -3.687   2.738  24.793  0.00  0.00    +0.150 C 
ATOM     22  C   UNL     1      -4.475   2.872  25.001  0.00  0.00    +0.206 C 
ATOM     23  O   UNL     1      -4.737   3.640  25.147  0.00  0.00    -0.218 OA
ATOM     24  C   UNL     1      -4.998   2.239  25.063  0.00  0.00    +0.189 C 
ATOM     25  O   UNL     1      -5.785   2.372  25.271  0.00  0.00    -0.220 OA
ATOM     26  C   UNL     1      -4.735   1.470  24.916  0.00  0.00    +0.066 C 
ENDROOT
BRANCH  11   9
ATOM      8  N   UNL     1      -3.321   0.134  25.162  0.00  0.00    -0.194 NA
ATOM      9  C   UNL     1      -3.684   0.568  24.561  0.00  0.00    +0.261 C 
ATOM     10  O   UNL     1      -3.786   0.234  23.814  0.00  0.00    -0.269 OA
BRANCH   8   7
ATOM      7  C   UNL     1      -3.059  -0.633  25.014  0.00  0.00    +0.176 C 
BRANCH   7  27
ATOM     27  C   UNL     1      -3.518  -1.278  25.246  0.00  0.00    +0.281 C 
ATOM     28  N   UNL     1      -3.649  -1.425  26.047  0.00  0.00    -0.086 NA
ATOM     29  O   UNL     1      -3.847  -1.776  24.677  0.00  0.00    -0.270 OA
ENDBRANCH   7  27
BRANCH   7   6
ATOM      6  C   UNL     1      -2.335  -0.757  24.635  0.00  0.00    +0.056 C 
BRANCH   6   5
ATOM      5  C   UNL     1      -1.659  -0.915  25.080  0.00  0.00    +0.153 C 
BRANCH   5   2
ATOM      1  C   UNL     1      -0.174  -0.887  24.360  0.00  0.00    +0.176 C 
ATOM      2  S   UNL     1      -0.916  -0.901  24.720  0.00  0.00    -0.008 S 
ATOM      3  O   UNL     1      -1.105  -1.587  24.303  0.00  0.00    -0.173 OA
ATOM      4  O   UNL     1      -0.727  -0.215  25.137  0.00  0.00    -0.173 OA
ENDBRANCH   5   2
ENDBRANCH   6   5
ENDBRANCH   7   6
ENDBRANCH   8   7
ENDBRANCH  11   9
BRANCH  13  14
ATOM     14  N   UNL     1      -3.163   3.373  24.731  0.00  0.00    -0.199 NA
ATOM     15  C   UNL     1      -2.478   3.388  25.191  0.00  0.00    +0.258 C 
ATOM     16  O   UNL     1      -2.318   2.770  25.713  0.00  0.00    -0.272 OA
BRANCH  15  17
ATOM     17  C   UNL     1      -1.954   4.023  25.129  0.00  0.00    +0.150 C 
ATOM     18  C   UNL     1      -1.162   3.977  24.905  0.00  0.00    +0.028 C 
ATOM     19  C   UNL     1      -0.849   4.741  24.918  0.00  0.00    +0.021 C 
ATOM     20  C   UNL     1      -1.448   5.258  25.151  0.00  0.00    +0.089 C 
ATOM     21  N   UNL     1      -2.132   4.814  25.282  0.00  0.00    -0.210 NA
ENDBRANCH  15  17
ENDBRANCH  13  14
TORSDOF 8
ENDMDL
MODEL 2
REMARK VINA RESULT:     -10.1      1.511      4.245
REMARK  Name = 
REMARK  8 active torsions:
REMARK  status: ('A' for Active; 'I' for Inactive)
REMARK    1  A    between atoms: S_2  and  C_5
REMARK    2  A    between atoms: C_5  and  C_6
REMARK    3  A    between atoms: C_6  and  C_7
REMARK    4  A    between atoms: C_7  and  N_8
REMARK    5  A    between atoms: C_7  and  C_27
REMARK    6  A    between atoms: C_9  and  C_11
REMARK    7  A    between atoms: C_13  and  N_14
REMARK    8  A    between atoms: C_15  and  C_17
REMARK                            x       y       z     vdW  Elec       q    Type
REMARK                         _______ _______ _______ _____ _____    ______ ____
ROOT
ATOM     11  C   UNL     1      -3.898   2.238  24.764  0.00  0.00    +0.033 C 
ATOM     12  C   UNL     1      -3.792   1.423  24.824  0.00  0.00    -0.002 C 
ATOM     13  C   UNL     1      -4.443   0.930  24.944  0.00  0.00    +0.150 C 
ATOM     22  C   UNL     1      -5.201   1.253  25.003  0.00  0.00    +0.206 C 
ATOM     23  O   UNL     1      -5.851   0.760  25.122  0.00  0.00    -0.218 OA
ATOM     24  C   UNL     1      -5.307   2.068  24.942  0.00  0.00    +0.189 C 
ATOM     25  O   UNL     1      -6.063   2.392  25.001  0.00  0.00    -0.220 OA
ATOM     26  C   UNL     1      -4.656   2.562  24.823  0.00  0.00    +0.066 C 
ENDROOT
BRANCH  11   9
ATOM      8  N   UNL     1      -2.704   2.853  25.253  0.00  0.00    -0.194 NA
ATOM      9  C   UNL     1      -3.248   2.732  24.645  0.00  0.00    +0.261 C 
ATOM     10  O   UNL     1      -3.142   3.103  23.916  0.00  0.00    -0.269 OA
BRANCH   8   7
ATOM      7  C   UNL     1      -2.055   3.346  25.133  0.00  0.00    +0.176 C 
BRANCH   7  27
ATOM     27  C   UNL     1      -2.075   4.128  25.397  0.00  0.00    +0.281 C 
ATOM     28  N   UNL     1      -2.249   4.292  26.186  0.00  0.00    -0.086 NA
ATOM     29  O   UNL     1      -1.922   4.745  24.872  0.00  0.00    -0.270 OA
ENDBRANCH   7  27
BRANCH   7   6
ATOM      6  C   UNL     1      -1.383   3.058  24.749  0.00  0.00    +0.056 C 
BRANCH   6   5
ATOM      5  C   UNL     1      -0.738   2.793  25.190  0.00  0.00    +0.153 C 
BRANCH   5   2
ATOM      1  C   UNL     1       0.427   1.870  24.473  0.00  0.00    +0.176 C 
ATOM      2  S   UNL     1      -0.155   2.332  24.831  0.00  0.00    -0.008 S 
ATOM      3  O   UNL     1      -0.293   1.732  25.381  0.00  0.00    -0.173 OA
ATOM      4  O   UNL     1      -0.018   2.932  24.282  0.00  0.00    -0.173 OA
ENDBRANCH   5   2
ENDBRANCH   6   5
ENDBRANCH   7   6
ENDBRANCH   8   7
ENDBRANCH  11   9
BRANCH  13  14
ATOM     14  N   UNL     1      -4.337   0.114  25.004  0.00  0.00    -0.199 NA
ATOM     15  C   UNL     1      -3.992  -0.304  24.382  0.00  0.00    +0.258 C 
ATOM     16  O   UNL     1      -3.753   0.093  23.701  0.00  0.00    -0.272 OA
BRANCH  15  17
ATOM     17  C   UNL     1      -3.886  -1.121  24.443  0.00  0.00    +0.150 C 
ATOM     18  C   UNL     1      -4.158  -1.685  23.908  0.00  0.00    +0.028 C 
ATOM     19  C   UNL     1      -3.929  -2.429  24.184  0.00  0.00    +0.021 C 
ATOM     20  C   UNL     1      -3.515  -2.323  24.890  0.00  0.00    +0.089 C 
ATOM     21  N   UNL     1      -3.489  -1.513  25.050  0.00  0.00    -0.210 NA
ENDBRANCH  15  17
ENDBRANCH  13  14
TORSDOF 8
ENDMDL
MODEL 3
REMARK VINA RESULT:      -9.5      1.737      5.200
REMARK  Name = 
REMARK  8 active torsions:
REMARK  status: ('A' for Active; 'I' for Inactive)
REMARK    1  A    between atoms: S_2  and  C_5
REMARK    2  A    between atoms: C_5  and  C_6
REMARK    3  A    between atoms: C_6  and  C_7
REMARK    4  A    between atoms: C_7  and  N_8
REMARK    5  A    between atoms: C_7  and  C_27
REMARK    6  A    between atoms: C_9  and  C_11
REMARK    7  A    between atoms: C_13  and  N_14
REMARK    8  A    between atoms: C_15  and  C_17
REMARK                            x       y       z     vdW  Elec       q    Type
REMARK                         _______ _______ _______ _____ _____    ______ ____
ROOT
ATOM     11  C   UNL     1      -1.848   1.593  24.396  0.00  0.00    +0.033 C 
ATOM     12  C   UNL     1      -2.235   0.872  24.298  0.00  0.00    -0.002 C 
ATOM     13  C   UNL     1      -1.800   0.171  24.266  0.00  0.00    +0.150 C 
ATOM     22  C   UNL     1      -0.977   0.192  24.333  0.00  0.00    +0.206 C 
ATOM     23  O   UNL     1      -0.543  -0.508  24.301  0.00  0.00    -0.218 OA
ATOM     24  C   UNL     1      -0.590   0.913  24.431  0.00  0.00    +0.189 C 
ATOM     25  O   UNL     1       0.231   0.935  24.498  0.00  0.00    -0.220 OA
ATOM     26  C   UNL     1      -1.025   1.614  24.463  0.00  0.00    +0.066 C 
ENDROOT
BRANCH  11   9
ATOM      8  N   UNL     1      -2.523   2.597  25.155  0.00  0.00    -0.194 NA
ATOM      9  C   UNL     1      -2.282   2.293  24.427  0.00  0.00    +0.261 C 
ATOM     10  O   UNL     1      -2.475   2.690  23.730  0.00  0.00    -0.269 OA
BRANCH   8   7
ATOM      7  C   UNL     1      -2.957   3.298  25.186  0.00  0.00    +0.176 C 
BRANCH   7  27
ATOM     27  C   UNL     1      -2.576   4.014  25.336  0.00  0.00    +0.281 C 
ATOM     28  N   UNL     1      -2.203   4.138  26.062  0.00  0.00    -0.086 NA
ATOM     29  O   UNL     1      -2.568   4.606  24.763  0.00  0.00    -0.270 OA
ENDBRANCH   7  27
BRANCH   7   6
ATOM      6  C   UNL     1      -3.774   3.283  25.066  0.00  0.00    +0.056 C 
BRANCH   6   5
ATOM      5  C   UNL     1      -4.285   3.255  25.713  0.00  0.00    +0.153 C 
BRANCH   5   2
ATOM      1  C   UNL     1      -5.898   2.996  25.479  0.00  0.00    +0.176 C 
ATOM      2  S   UNL     1      -5.092   3.126  25.596  0.00  0.00    -0.008 S 
ATOM      3  O   UNL     1      -5.185   3.913  25.369  0.00  0.00    -0.173 OA
ATOM      4  O   UNL     1      -4.998   2.338  25.824  0.00  0.00    -0.173 OA
ENDBRANCH   5   2
ENDBRANCH   6   5
ENDBRANCH   7   6
ENDBRANCH   8   7
ENDBRANCH  11   9
BRANCH  13  14
ATOM     14  N   UNL     1      -2.187  -0.551  24.168  0.00  0.00    -0.199 NA
ATOM     15  C   UNL     1      -2.762  -0.787  24.710  0.00  0.00    +0.258 C 
ATOM     16  O   UNL     1      -2.950  -0.303  25.350  0.00  0.00    -0.272 OA
BRANCH  15  17
ATOM     17  C   UNL     1      -3.150  -1.510  24.612  0.00  0.00    +0.150 C 
ATOM     18  C   UNL     1      -3.795  -1.650  24.118  0.00  0.00    +0.028 C 
ATOM     19  C   UNL     1      -4.004  -2.445  24.191  0.00  0.00    +0.021 C 
ATOM     20  C   UNL     1      -3.487  -2.796  24.730  0.00  0.00    +0.089 C 
ATOM     21  N   UNL     1      -2.959  -2.217  24.991  0.00  0.00    -0.210 NA
ENDBRANCH  15  17
ENDBRANCH  13  14
TORSDOF 8
ENDMDL
MODEL 4
REMARK VINA RESULT:      -9.0      1.472      3.009
REMARK  Name = 
REMARK  8 active torsions:
REMARK  status: ('A' for Active; 'I' for Inactive)
REMARK    1  A    between atoms: S_2  and  C_5
REMARK    2  A    between atoms: C_5  and  C_6
REMARK    3  A    between atoms: C_6  and  C_7
REMARK    4  A    between atoms: C_7  and  N_8
REMARK    5  A    between atoms: C_7  and  C_27
REMARK    6  A    between atoms: C_9  and  C_11
REMARK    7  A    between atoms: C_13  and  N_14
REMARK    8  A    between atoms: C_15  and  C_17
REMARK                            x       y       z     vdW  Elec       q    Type
REMARK                         _______ _______ _______ _____ _____    ______ ____
ROOT
ATOM     11  C   UNL     1      -1.597   1.480  24.538  0.00  0.00    +0.033 C 
ATOM     12  C   UNL     1      -2.315   1.752  24.837  0.00  0.00    -0.002 C 
ATOM     13  C   UNL     1      -2.423   2.557  24.982  0.00  0.00    +0.150 C 
ATOM     22  C   UNL     1      -1.812   3.090  24.829  0.00  0.00    +0.206 C 
ATOM     23  O   UNL     1      -1.920   3.895  24.974  0.00  0.00    -0.218 OA
ATOM     24  C   UNL     1      -1.093   2.818  24.530  0.00  0.00    +0.189 C 
ATOM     25  O   UNL     1      -0.482   3.350  24.377  0.00  0.00    -0.220 OA
ATOM     26  C   UNL     1      -0.985   2.013  24.385  0.00  0.00    +0.066 C 
ENDROOT
BRANCH  11   9
ATOM      8  N   UNL     1      -1.617   0.125  24.994  0.00  0.00    -0.194 NA
ATOM      9  C   UNL     1      -1.489   0.675  24.393  0.00  0.00    +0.261 C 
ATOM     10  O   UNL     1      -1.252   0.421  23.644  0.00  0.00    -0.269 OA
BRANCH   8   7
ATOM      7  C   UNL     1      -1.508  -0.678  24.848  0.00  0.00    +0.176 C 
BRANCH   7  27
ATOM     27  C   UNL     1      -0.803  -1.047  25.068  0.00  0.00    +0.281 C 
ATOM     28  N   UNL     1      -0.616  -1.136  25.866  0.00  0.00    -0.086 NA
ATOM     29  O   UNL     1      -0.286  -1.326  24.490  0.00  0.00    -0.270 OA
ENDBRANCH   7  27
BRANCH   7   6
ATOM      6  C   UNL     1      -2.105  -1.116  24.481  0.00  0.00    +0.056 C 
BRANCH   6   5
ATOM      5  C   UNL     1      -2.620  -1.573  24.936  0.00  0.00    +0.153 C 
BRANCH   5   2
ATOM      1  C   UNL     1      -3.935  -2.278  24.233  0.00  0.00    +0.176 C 
ATOM      2  S   UNL     1      -3.278  -1.926  24.584  0.00  0.00    -0.008 S 
ATOM      3  O   UNL     1      -3.768  -1.368  24.944  0.00  0.00    -0.173 OA
ATOM      4  O   UNL     1      -2.787  -2.483  24.225  0.00  0.00    -0.173 OA
ENDBRANCH   5   2
ENDBRANCH   6   5
ENDBRANCH   7   6
ENDBRANCH   8   7
ENDBRANCH  11   9
BRANCH  13  14
ATOM     14  N   UNL     1      -3.143   2.830  25.281  0.00  0.00    -0.199 NA
ATOM     15  C   UNL     1      -3.841   2.691  24.865  0.00  0.00    +0.258 C 
ATOM     16  O   UNL     1      -3.821   2.280  24.150  0.00  0.00    -0.272 OA
BRANCH  15  17
ATOM     17  C   UNL     1      -4.561   2.964  25.164  0.00  0.00    +0.150 C 
ATOM     18  C   UNL     1      -5.189   2.494  25.417  0.00  0.00    +0.028 C 
ATOM     19  C   UNL     1      -5.794   2.994  25.672  0.00  0.00    +0.021 C 
ATOM     20  C   UNL     1      -5.540   3.772  25.575  0.00  0.00    +0.089 C 
ATOM     21  N   UNL     1      -4.777   3.754  25.261  0.00  0.00    -0.210 NA
ENDBRANCH  15  17
ENDBRANCH  13  14
TORSDOF 8
ENDMDL
MODEL 5
REMARK VINA RESULT:      -8.8      1.673      3.320
REMARK  Name = 
REMARK  8 active torsions:
REMARK  status: ('A' for Active; 'I' for Inactive)
REMARK    1  A    between atoms: S_2  and  C_5
REMARK    2  A    between atoms: C_5  and  C_6
REMARK    3  A    between atoms: C_6  and  C_7
REMARK    4  A    between atoms: C_7  and  N_8
REMARK    5  A    between atoms: C_7  and  C_27
REMARK    6  A    between atoms: C_9  and  C_11
REMARK    7  A    between atoms: C_13  and  N_14
REMARK    8  A    between atoms: C_15  and  C_17
REMARK                            x       y       z     vdW  Elec       q    Type
REMARK                         _______ _______ _______ _____ _____    ______ ____
ROOT
ATOM     11  C   UNL     1      -1.764   0.693  24.722  0.00  0.00    +0.033 C 
ATOM     12  C   UNL     1      -1.713   1.514  24.682  0.00  0.00    -0.002 C 
ATOM     13  C   UNL     1      -1.006   1.874  24.451  0.00  0.00    +0.150 C 
ATOM     22  C   UNL     1      -0.351   1.410  24.259  0.00  0.00    +0.206 C 
ATOM     23  O   UNL     1       0.355   1.769  24.028  0.00  0.00    -0.218 OA
ATOM     24  C   UNL     1      -0.402   0.588  24.299  0.00  0.00    +0.189 C 
ATOM     25  O   UNL     1       0.253   0.124  24.108  0.00  0.00    -0.220 OA
ATOM     26  C   UNL     1      -1.108   0.229  24.530  0.00  0.00    +0.066 C 
ENDROOT
BRANCH  11   9
ATOM      8  N   UNL     1      -3.132   0.371  24.462  0.00  0.00    -0.194 NA
ATOM      9  C   UNL     1      -2.469   0.334  24.953  0.00  0.00    +0.261 C 
ATOM     10  O   UNL     1      -2.511  -0.064  25.674  0.00  0.00    -0.269 OA
BRANCH   8   7
ATOM      7  C   UNL     1      -3.836   0.012  24.694  0.00  0.00    +0.176 C 
BRANCH   7  27
ATOM     27  C   UNL     1      -3.985  -0.775  24.492  0.00  0.00    +0.281 C 
ATOM     28  N   UNL     1      -4.057  -0.990  23.699  0.00  0.00    -0.086 NA
ATOM     29  O   UNL     1      -4.062  -1.345  25.082  0.00  0.00    -0.270 OA
ENDBRANCH   7  27
BRANCH   7   6
ATOM      6  C   UNL     1      -4.394   0.439  25.128  0.00  0.00    +0.056 C 
BRANCH   6   5
ATOM      5  C   UNL     1      -4.958   0.897  24.737  0.00  0.00    +0.153 C 
BRANCH   5   2
ATOM      1  C   UNL     1      -5.763   2.085  25.552  0.00  0.00    +0.176 C 
ATOM      2  S   UNL     1      -5.360   1.491  25.144  0.00  0.00    -0.008 S 
ATOM      3  O   UNL     1      -5.564   0.950  25.733  0.00  0.00    -0.173 OA
ATOM      4  O   UNL     1      -5.157   2.033  24.556  0.00  0.00    -0.173 OA
ENDBRANCH   5   2
ENDBRANCH   6   5
ENDBRANCH   7   6
ENDBRANCH   8   7
ENDBRANCH  11   9
BRANCH  13  14
ATOM     14  N   UNL     1      -0.956   2.696  24.411  0.00  0.00    -0.199 NA
ATOM     15  C   UNL     1      -1.158   3.154  25.067  0.00  0.00    +0.258 C 
ATOM     16  O   UNL     1      -1.411   2.790  25.762  0.00  0.00    -0.272 OA
BRANCH  15  17
ATOM     17  C   UNL     1      -1.107   3.977  25.028  0.00  0.00    +0.150 C 
ATOM     18  C   UNL     1      -1.695   4.510  25.251  0.00  0.00    +0.028 C 
ATOM     19  C   UNL     1      -1.410   5.273  25.119  0.00  0.00    +0.021 C 
ATOM     20  C   UNL     1      -0.646   5.211  24.814  0.00  0.00    +0.089 C 
ATOM     21  N   UNL     1      -0.458   4.410  24.758  0.00  0.00    -0.210 NA
ENDBRANCH  15  17
ENDBRANCH  13  14
TORSDOF 8
ENDMDL
