MODEL 1
REMARK VINA RESULT:     -11.2      0.000      0.000
REMARK  Name = 
REMARK  5 active torsions:
REMARK  status: ('A' for Active; 'I' for Inactive)
REMARK    1  A    between atoms: C_2  and  C_4
REMARK    2  A    between atoms: C_4  and  C_5
REMARK    3  A    between atoms: C_5  and  C_6
REMARK    4  A    between atoms: N_16  and  C_17
REMARK    5  A    between atoms: C_17  and  C_18
REMARK                            x       y       z     vdW  Elec       q    Type
REMARK                         _______ _______ _______ _____ _____    ______ ____
ROOT
ATOM      6  C   UNL     1      -2.786   3.448  25.234  0.00  0.00    +0.226 C 
ATOM      7  O   UNL     1      -3.190   3.621  25.932  0.00  0.00    -0.275 OA
ATOM      8  N   UNL     1      -2.939   2.745  24.832  0.00  0.00    -0.276 N 
ATOM      9  C   UNL     1      -2.535   2.572  24.135  0.00  0.00    +0.115 C 
ATOM     10  C   UNL     1      -2.688   1.867  23.733  0.00  0.00    +0.117 C 
ATOM     11  N   UNL     1      -3.245   1.336  24.030  0.00  0.00    -0.254 N 
ATOM     12  C   UNL     1      -3.649   1.509  24.727  0.00  0.00    +0.174 C 
ATOM     13  C   UNL     1      -3.496   2.213  25.129  0.00  0.00    +0.123 C 
ATOM     14  C   UNL     1      -4.163   0.883  24.886  0.00  0.00    +0.253 C 
ATOM     15  O   UNL     1      -4.675   0.827  25.531  0.00  0.00    -0.273 OA
ATOM     16  N   UNL     1      -4.078   0.324  24.285  0.00  0.00    -0.208 N 
ATOM     24  C   UNL     1      -3.510   0.604  23.757  0.00  0.00    +0.314 C 
ATOM     25  O   UNL     1      -3.252   0.219  23.074  0.00  0.00    -0.252 OA
ENDROOT
BRANCH   6   5
ATOM      5  C   UNL     1      -2.229   3.979  24.937  0.00  0.00    +0.097 C 
BRANCH   5   4
ATOM      4  C   UNL     1      -1.901   4.553  25.433  0.00  0.00    +0.124 C 
BRANCH   4   2
ATOM      1  O   UNL     1      -1.549   5.866  24.994  0.00  0.00    -0.246 OA
ATOM      2  C   UNL     1      -1.340   5.081  25.137  0.00  0.00    +0.365 C 
ATOM      3  O   UNL     1      -0.572   4.824  24.985  0.00  0.00    -0.246 OA
ENDBRANCH   4   2
ENDBRANCH   5   4
ENDBRANCH   6   5
BRANCH  16  17
ATOM     17  C   UNL     1      -4.488  -0.389  24.225  0.00  0.00    +0.129 C 
BRANCH  17  18
ATOM     18  C   UNL     1      -4.126  -1.093  24.459  0.00  0.00    -0.002 A 
ATOM     19  C   UNL     1      -4.063  -1.721  23.928  0.00  0.00    -0.003 A 
ATOM     20  C   UNL     1      -3.703  -2.425  24.161  0.00  0.00    -0.000 A 
ATOM     21  C   UNL     1      -3.405  -2.501  24.926  0.00  0.00    -0.000 A 
ATOM     22  C   UNL     1      -3.468  -1.873  25.458  0.00  0.00    -0.000 A 
ATOM     23  C   UNL     1      -3.828  -1.169  25.224  0.00  0.00    -0.003 A 
ENDBRANCH  17  18
ENDBRANCH  16  17
TORSDOF 5
ENDMDL
MODEL 2
REMARK VINA RESULT:      -9.9      1.494      5.216
REMARK  Name = 
REMARK  5 active torsions:
REMARK  status: ('A' for Active; 'I' for Inactive)
REMARK    1  A    between atoms: C_2  and  C_4
REMARK    2  A    between atoms: C_4  and  C_5
REMARK    3  A    between atoms: C_5  and  C_6
REMARK    4  A    between atoms: N_16  and  C_17
REMARK    5  A    between atoms: C_17  and  C_18
REMARK                            x       y       z     vdW  Elec       q    Type
REMARK                         _______ _______ _______ _____ _____    ______ ____
ROOT
ATOM      6  C   UNL     1      -3.068  -0.866  24.240  0.00  0.00    +0.226 C 
ATOM      7  O   UNL     1      -2.313  -0.938  23.914  0.00  0.00    -0.275 OA
ATOM      8  N   UNL     1      -3.395  -0.119  24.362  0.00  0.00    -0.276 N 
ATOM      9  C   UNL     1      -4.149  -0.047  24.687  0.00  0.00    +0.115 C 
ATOM     10  C   UNL     1      -4.476   0.702  24.810  0.00  0.00    +0.117 C 
ATOM     11  N   UNL     1      -4.047   1.377  24.607  0.00  0.00    -0.254 N 
ATOM     12  C   UNL     1      -3.293   1.304  24.282  0.00  0.00    +0.174 C 
ATOM     13  C   UNL     1      -2.966   0.557  24.159  0.00  0.00    +0.123 C 
ATOM     14  C   UNL     1      -3.004   2.064  24.138  0.00  0.00    +0.253 C 
ATOM     15  O   UNL     1      -2.268   2.249  23.814  0.00  0.00    -0.273 OA
ATOM     16  N   UNL     1      -3.580   2.605  24.373  0.00  0.00    -0.208 N 
ATOM     24  C   UNL     1      -4.224   2.181  24.663  0.00  0.00    +0.314 C 
ATOM     25  O   UNL     1      -4.924   2.503  24.959  0.00  0.00    -0.252 OA
ENDROOT
BRANCH   6   5
ATOM      5  C   UNL     1      -3.497  -1.541  24.442  0.00  0.00    +0.097 C 
BRANCH   5   4
ATOM      4  C   UNL     1      -3.144  -2.285  24.387  0.00  0.00    +0.124 C 
BRANCH   4   2
ATOM      1  O   UNL     1      -4.064  -3.324  24.046  0.00  0.00    -0.246 OA
ATOM      2  C   UNL     1      -3.570  -2.961  24.598  0.00  0.00    +0.365 C 
ATOM      3  O   UNL     1      -3.502  -3.271  25.358  0.00  0.00    -0.246 OA
ENDBRANCH   4   2
ENDBRANCH   5   4
ENDBRANCH   6   5
BRANCH  16  17
ATOM     17  C   UNL     1      -3.521   3.427  24.327  0.00  0.00    +0.129 C 
BRANCH  17  18
ATOM     18  C   UNL     1      -3.108   3.844  24.907  0.00  0.00    -0.002 A 
ATOM     19  C   UNL     1      -2.369   4.167  24.734  0.00  0.00    -0.003 A 
ATOM     20  C   UNL     1      -1.955   4.584  25.313  0.00  0.00    -0.000 A 
ATOM     21  C   UNL     1      -2.281   4.677  26.065  0.00  0.00    -0.000 A 
ATOM     22  C   UNL     1      -3.020   4.353  26.238  0.00  0.00    -0.000 A 
ATOM     23  C   UNL     1      -3.433   3.937  25.659  0.00  0.00    -0.003 A 
ENDBRANCH  17  18
ENDBRANCH  16  17
TORSDOF 5
ENDMDL
MODEL 3
REMARK VINA RESULT:      -9.9      1.812      5.368
REMARK  Name = 
REMARK  5 active torsions:
REMARK  status: ('A' for Active; 'I' for Inactive)
REMARK    1  A    between atoms: C_2  and  C_4
REMARK    2  A    between atoms: C_4  and  C_5
REMARK    3  A    between atoms: C_5  and  C_6
REMARK    4  A    between atoms: N_16  and  C_17
REMARK    5  A    between atoms: C_17  and  C_18
REMARK                            x       y       z     vdW  Elec       q    Type
REMARK                         _______ _______ _______ _____ _____    ______ ____
ROOT
ATOM      6  C   UNL     1      -2.705  -0.732  25.068  0.00  0.00    +0.226 C 
ATOM      7  O   UNL     1      -2.575  -0.964  25.849  0.00  0.00    -0.275 OA
ATOM      8  N   UNL     1      -2.385  -0.025  24.788  0.00  0.00    -0.276 N 
ATOM      9  C   UNL     1      -2.515   0.207  24.008  0.00  0.00    +0.115 C 
ATOM     10  C   UNL     1      -2.194   0.914  23.729  0.00  0.00    +0.117 C 
ATOM     11  N   UNL     1      -1.743   1.389  24.231  0.00  0.00    -0.254 N 
ATOM     12  C   UNL     1      -1.613   1.157  25.011  0.00  0.00    +0.174 C 
ATOM     13  C   UNL     1      -1.933   0.450  25.290  0.00  0.00    +0.123 C 
ATOM     14  C   UNL     1      -1.149   1.735  25.374  0.00  0.00    +0.253 C 
ATOM     15  O   UNL     1      -0.888   1.725  26.157  0.00  0.00    -0.273 OA
ATOM     16  N   UNL     1      -0.993   2.324  24.819  0.00  0.00    -0.208 N 
ATOM     24  C   UNL     1      -1.360   2.110  24.112  0.00  0.00    +0.314 C 
ATOM     25  O   UNL     1      -1.346   2.542  23.408  0.00  0.00    -0.252 OA
ENDROOT
BRANCH   6   5
ATOM      5  C   UNL     1      -3.156  -1.206  24.566  0.00  0.00    +0.097 C 
BRANCH   5   4
ATOM      4  C   UNL     1      -3.497  -1.901  24.852  0.00  0.00    +0.124 C 
BRANCH   4   2
ATOM      1  O   UNL     1      -3.545  -3.208  24.277  0.00  0.00    -0.246 OA
ATOM      2  C   UNL     1      -3.839  -2.439  24.327  0.00  0.00    +0.365 C 
ATOM      3  O   UNL     1      -4.473  -2.208  23.855  0.00  0.00    -0.246 OA
ENDBRANCH   4   2
ENDBRANCH   5   4
ENDBRANCH   6   5
BRANCH  16  17
ATOM     17  C   UNL     1      -0.547   3.006  24.947  0.00  0.00    +0.129 C 
BRANCH  17  18
ATOM     18  C   UNL     1      -0.926   3.729  25.066  0.00  0.00    -0.002 A 
ATOM     19  C   UNL     1      -0.664   4.402  24.667  0.00  0.00    -0.003 A 
ATOM     20  C   UNL     1      -1.042   5.126  24.785  0.00  0.00    -0.000 A 
ATOM     21  C   UNL     1      -1.683   5.175  25.301  0.00  0.00    -0.000 A 
ATOM     22  C   UNL     1      -1.945   4.503  25.700  0.00  0.00    -0.000 A 
ATOM     23  C   UNL     1      -1.567   3.780  25.582  0.00  0.00    -0.003 A 
ENDBRANCH  17  18
ENDBRANCH  16  17
TORSDOF 5
ENDMDL
MODEL 4
REMARK VINA RESULT:      -9.7      1.972      2.115
REMARK  Name = 
REMARK  5 active torsions:
REMARK  status: ('A' for Active; 'I' for Inactive)
REMARK    1  A    between atoms: C_2  and  C_4
REMARK    2  A    between atoms: C_4  and  C_5
REMARK    3  A    between atoms: C_5  and  C_6
REMARK    4  A    between atoms: N_16  and  C_17
REMARK    5  A    between atoms: C_17  and  C_18
REMARK                            x       y       z     vdW  Elec       q    Type
REMARK                         _______ _______ _______ _____ _____    ______ ____
ROOT
ATOM      6  C   UNL     1      -0.961   2.779  25.557  0.00  0.00    +0.226 C 
ATOM      7  O   UNL     1      -0.995   2.838  26.379  0.00  0.00    -0.275 OA
ATOM      8  N   UNL     1      -1.010   2.040  25.194  0.00  0.00    -0.276 N 
ATOM      9  C   UNL     1      -0.976   1.980  24.373  0.00  0.00    +0.115 C 
ATOM     10  C   UNL     1      -1.025   1.240  24.010  0.00  0.00    +0.117 C 
ATOM     11  N   UNL     1      -1.108   0.561  24.471  0.00  0.00    -0.254 N 
ATOM     12  C   UNL     1      -1.142   0.620  25.292  0.00  0.00    +0.174 C 
ATOM     13  C   UNL     1      -1.093   1.359  25.655  0.00  0.00    +0.123 C 
ATOM     14  C   UNL     1      -1.225  -0.141  25.599  0.00  0.00    +0.253 C 
ATOM     15  O   UNL     1      -1.281  -0.338  26.399  0.00  0.00    -0.273 OA
ATOM     16  N   UNL     1      -1.243  -0.671  24.968  0.00  0.00    -0.208 N 
ATOM     24  C   UNL     1      -1.170  -0.238  24.270  0.00  0.00    +0.314 C 
ATOM     25  O   UNL     1      -1.161  -0.547  23.505  0.00  0.00    -0.252 OA
ENDROOT
BRANCH   6   5
ATOM      5  C   UNL     1      -0.877   3.458  25.097  0.00  0.00    +0.097 C 
BRANCH   5   4
ATOM      4  C   UNL     1      -0.928   4.203  25.449  0.00  0.00    +0.124 C 
BRANCH   4   2
ATOM      1  O   UNL     1      -1.650   5.352  25.002  0.00  0.00    -0.246 OA
ATOM      2  C   UNL     1      -0.975   4.880  24.978  0.00  0.00    +0.365 C 
ATOM      3  O   UNL     1      -0.346   5.083  24.486  0.00  0.00    -0.246 OA
ENDBRANCH   4   2
ENDBRANCH   5   4
ENDBRANCH   6   5
BRANCH  16  17
ATOM     17  C   UNL     1      -1.319  -1.491  25.024  0.00  0.00    +0.129 C 
BRANCH  17  18
ATOM     18  C   UNL     1      -2.061  -1.842  24.944  0.00  0.00    -0.002 A 
ATOM     19  C   UNL     1      -2.208  -2.356  24.315  0.00  0.00    -0.003 A 
ATOM     20  C   UNL     1      -2.950  -2.707  24.234  0.00  0.00    -0.000 A 
ATOM     21  C   UNL     1      -3.545  -2.544  24.782  0.00  0.00    -0.000 A 
ATOM     22  C   UNL     1      -3.398  -2.030  25.410  0.00  0.00    -0.000 A 
ATOM     23  C   UNL     1      -2.656  -1.679  25.491  0.00  0.00    -0.003 A 
ENDBRANCH  17  18
ENDBRANCH  16  17
TORSDOF 5
ENDMDL
