MODEL 1
REMARK VINA RESULT:     -11.6      0.000      0.000
REMARK  Name = 
REMARK  6 active torsions:
REMARK  status: ('A' for Active; 'I' for Inactive)
REMARK    1  A    between atoms: C_4  and  C_14
REMARK    2  A    between atoms: N_5  and  C_6
REMARK    3  A    between atoms: C_6  and  C_7
REMARK    4  A    between atoms: C_16  and  C_19
REMARK    5  A    between atoms: C_22  and  O_23
REMARK    6  A    between atoms: O_23  and  C_24
REMARK                            x       y       z     vdW  Elec       q    Type
REMARK                         _______ _______ _______ _____ _____    ______ ____
ROOT
ATOM     14  C   UNL     1      -4.176   1.820  24.548  0.00  0.00    +0.251 A 
ATOM     15  N   UNL     1      -4.121   1.106  24.957  0.00  0.00    -0.190 NA
ATOM     16  C   UNL     1      -3.977   0.508  24.408  0.00  0.00    +0.203 A 
ATOM     17  N   UNL     1      -3.942   0.851  23.659  0.00  0.00    -0.056 NA
ATOM     18  O   UNL     1      -4.065   1.663  23.745  0.00  0.00    -0.336 OA
ENDROOT
BRANCH  14   4
ATOM      1  O   UNL     1      -5.481   4.048  25.876  0.00  0.00    -0.222 OA
ATOM      2  C   UNL     1      -4.916   3.585  25.492  0.00  0.00    +0.170 C 
ATOM      3  C   UNL     1      -5.020   2.808  25.235  0.00  0.00    +0.060 C 
ATOM      4  C   UNL     1      -4.316   2.561  24.882  0.00  0.00    +0.140 C 
ATOM      5  N   UNL     1      -3.778   3.185  24.921  0.00  0.00    -0.260 NA
ATOM     13  C   UNL     1      -4.149   3.818  25.299  0.00  0.00    +0.106 C 
BRANCH   5   6
ATOM      6  C   UNL     1      -3.005   3.178  24.634  0.00  0.00    +0.100 C 
BRANCH   6   7
ATOM      7  C   UNL     1      -2.436   3.674  24.967  0.00  0.00    -0.003 A 
ATOM      8  C   UNL     1      -2.344   4.444  24.685  0.00  0.00    +0.018 A 
ATOM      9  C   UNL     1      -1.774   4.939  25.020  0.00  0.00    +0.099 A 
ATOM     10  N   UNL     1      -1.299   4.665  25.634  0.00  0.00    -0.242 NA
ATOM     11  C   UNL     1      -1.391   3.895  25.916  0.00  0.00    +0.099 A 
ATOM     12  C   UNL     1      -1.960   3.400  25.582  0.00  0.00    +0.018 A 
ENDBRANCH   6   7
ENDBRANCH   5   6
ENDBRANCH  14   4
BRANCH  16  19
ATOM     19  C   UNL     1      -3.883  -0.295  24.577  0.00  0.00    +0.039 A 
ATOM     20  C   UNL     1      -4.217  -0.863  24.082  0.00  0.00    +0.006 A 
ATOM     21  C   UNL     1      -4.124  -1.664  24.252  0.00  0.00    +0.037 A 
ATOM     22  C   UNL     1      -3.696  -1.898  24.917  0.00  0.00    +0.147 A 
ATOM     28  C   UNL     1      -3.362  -1.330  25.413  0.00  0.00    +0.037 A 
ATOM     29  C   UNL     1      -3.455  -0.528  25.243  0.00  0.00    +0.006 A 
BRANCH  22  23
ATOM     23  O   UNL     1      -3.602  -2.700  25.087  0.00  0.00    -0.404 OA
BRANCH  23  24
ATOM     24  C   UNL     1      -3.183  -3.185  24.569  0.00  0.00    +0.575 C 
ATOM     25  F   UNL     1      -2.763  -3.670  24.050  0.00  0.00    -0.133 F 
ATOM     26  F   UNL     1      -3.891  -3.429  24.222  0.00  0.00    -0.133 F 
ATOM     27  F   UNL     1      -2.474  -2.942  24.914  0.00  0.00    -0.133 F 
ENDBRANCH  23  24
ENDBRANCH  22  23
ENDBRANCH  16  19
TORSDOF 6
ENDMDL
MODEL 2
REMARK VINA RESULT:     -11.4      2.028      2.733
REMARK  Name = 
REMARK  6 active torsions:
REMARK  status: ('A' for Active; 'I' for Inactive)
REMARK    1  A    between atoms: C_4  and  C_14
REMARK    2  A    between atoms: N_5  and  C_6
REMARK    3  A    between atoms: C_6  and  C_7
REMARK    4  A    between atoms: C_16  and  C_19
REMARK    5  A    between atoms: C_22  and  O_23
REMARK    6  A    between atoms: O_23  and  C_24
REMARK                            x       y       z     vdW  Elec       q    Type
REMARK                         _______ _______ _______ _____ _____    ______ ____
ROOT
ATOM     14  C   UNL     1      -0.930   1.246  25.070  0.00  0.00    +0.251 A 
ATOM     15  N   UNL     1      -1.538   0.747  25.319  0.00  0.00    -0.190 NA
ATOM     16  C   UNL     1      -1.733   0.250  24.690  0.00  0.00    +0.203 A 
ATOM     17  N   UNL     1      -1.246   0.441  24.053  0.00  0.00    -0.056 NA
ATOM     18  O   UNL     1      -0.749   1.057  24.288  0.00  0.00    -0.336 OA
ENDROOT
BRANCH  14   4
ATOM      1  O   UNL     1       0.762   2.576  27.019  0.00  0.00    -0.222 OA
ATOM      2  C   UNL     1       0.211   2.443  26.420  0.00  0.00    +0.170 C 
ATOM      3  C   UNL     1       0.001   1.707  26.111  0.00  0.00    +0.060 C 
ATOM      4  C   UNL     1      -0.567   1.831  25.524  0.00  0.00    +0.140 C 
ATOM      5  N   UNL     1      -0.706   2.643  25.471  0.00  0.00    -0.260 NA
ATOM     13  C   UNL     1      -0.225   3.021  26.026  0.00  0.00    +0.106 C 
BRANCH   5   6
ATOM      6  C   UNL     1      -1.233   3.012  24.956  0.00  0.00    +0.100 C 
BRANCH   6   7
ATOM      7  C   UNL     1      -1.438   3.802  25.072  0.00  0.00    -0.003 A 
ATOM      8  C   UNL     1      -0.958   4.402  24.769  0.00  0.00    +0.018 A 
ATOM      9  C   UNL     1      -1.164   5.192  24.886  0.00  0.00    +0.099 A 
ATOM     10  N   UNL     1      -1.849   5.383  25.303  0.00  0.00    -0.242 NA
ATOM     11  C   UNL     1      -2.330   4.784  25.605  0.00  0.00    +0.099 A 
ATOM     12  C   UNL     1      -2.123   3.994  25.489  0.00  0.00    +0.018 A 
ENDBRANCH   6   7
ENDBRANCH   5   6
ENDBRANCH  14   4
BRANCH  16  19
ATOM     19  C   UNL     1      -2.314  -0.336  24.697  0.00  0.00    +0.039 A 
ATOM     20  C   UNL     1      -2.104  -1.123  24.827  0.00  0.00    +0.006 A 
ATOM     21  C   UNL     1      -2.685  -1.709  24.835  0.00  0.00    +0.037 A 
ATOM     22  C   UNL     1      -3.476  -1.508  24.712  0.00  0.00    +0.147 A 
ATOM     28  C   UNL     1      -3.685  -0.721  24.581  0.00  0.00    +0.037 A 
ATOM     29  C   UNL     1      -3.105  -0.135  24.574  0.00  0.00    +0.006 A 
BRANCH  22  23
ATOM     23  O   UNL     1      -4.056  -2.093  24.719  0.00  0.00    -0.404 OA
BRANCH  23  24
ATOM     24  C   UNL     1      -4.275  -2.466  24.016  0.00  0.00    +0.575 C 
ATOM     25  F   UNL     1      -4.494  -2.838  23.312  0.00  0.00    -0.133 F 
ATOM     26  F   UNL     1      -4.810  -1.857  23.859  0.00  0.00    -0.133 F 
ATOM     27  F   UNL     1      -3.740  -3.074  24.171  0.00  0.00    -0.133 F 
ENDBRANCH  23  24
ENDBRANCH  22  23
ENDBRANCH  16  19
TORSDOF 6
ENDMDL
MODEL 3
REMARK VINA RESULT:     -10.5      3.152      4.677
REMARK  Name = 
REMARK  6 active torsions:
REMARK  status: ('A' for Active; 'I' for Inactive)
REMARK    1  A    between atoms: C_4  and  C_14
REMARK    2  A    between atoms: N_5  and  C_6
REMARK    3  A    between atoms: C_6  and  C_7
REMARK    4  A    between atoms: C_16  and  C_19
REMARK    5  A    between atoms: C_22  and  O_23
REMARK    6  A    between atoms: O_23  and  C_24
REMARK                            x       y       z     vdW  Elec       q    Type
REMARK                         _______ _______ _______ _____ _____    ______ ____
ROOT
ATOM     14  C   UNL     1      -1.669   2.835  24.943  0.00  0.00    +0.251 A 
ATOM     15  N   UNL     1      -2.390   2.585  25.257  0.00  0.00    -0.190 NA
ATOM     16  C   UNL     1      -2.993   2.988  24.863  0.00  0.00    +0.203 A 
ATOM     17  N   UNL     1      -2.645   3.487  24.306  0.00  0.00    -0.056 NA
ATOM     18  O   UNL     1      -1.826   3.393  24.355  0.00  0.00    -0.336 OA
ENDROOT
BRANCH  14   4
ATOM      1  O   UNL     1       0.843   2.575  26.375  0.00  0.00    -0.222 OA
ATOM      2  C   UNL     1       0.233   2.454  25.833  0.00  0.00    +0.170 C 
ATOM      3  C   UNL     1      -0.475   2.877  25.799  0.00  0.00    +0.060 C 
ATOM      4  C   UNL     1      -0.922   2.574  25.175  0.00  0.00    +0.140 C 
ATOM      5  N   UNL     1      -0.491   1.964  24.825  0.00  0.00    -0.260 NA
ATOM     13  C   UNL     1       0.223   1.890  25.233  0.00  0.00    +0.106 C 
BRANCH   5   6
ATOM      6  C   UNL     1      -0.730   1.508  24.181  0.00  0.00    +0.100 C 
BRANCH   6   7
ATOM      7  C   UNL     1      -0.379   0.775  24.041  0.00  0.00    -0.003 A 
ATOM      8  C   UNL     1      -0.654   0.104  24.434  0.00  0.00    +0.018 A 
ATOM      9  C   UNL     1      -0.301  -0.629  24.293  0.00  0.00    +0.099 A 
ATOM     10  N   UNL     1       0.324  -0.690  23.760  0.00  0.00    -0.242 NA
ATOM     11  C   UNL     1       0.599  -0.019  23.366  0.00  0.00    +0.099 A 
ATOM     12  C   UNL     1       0.247   0.713  23.507  0.00  0.00    +0.018 A 
ENDBRANCH   6   7
ENDBRANCH   5   6
ENDBRANCH  14   4
BRANCH  16  19
ATOM     19  C   UNL     1      -3.802   2.906  25.002  0.00  0.00    +0.039 A 
ATOM     20  C   UNL     1      -4.233   2.327  24.603  0.00  0.00    +0.006 A 
ATOM     21  C   UNL     1      -5.041   2.245  24.742  0.00  0.00    +0.037 A 
ATOM     22  C   UNL     1      -5.420   2.742  25.281  0.00  0.00    +0.147 A 
ATOM     28  C   UNL     1      -4.989   3.321  25.680  0.00  0.00    +0.037 A 
ATOM     29  C   UNL     1      -4.180   3.404  25.541  0.00  0.00    +0.006 A 
BRANCH  22  23
ATOM     23  O   UNL     1      -6.229   2.661  25.420  0.00  0.00    -0.404 OA
BRANCH  23  24
ATOM     24  C   UNL     1      -6.510   2.015  25.849  0.00  0.00    +0.575 C 
ATOM     25  F   UNL     1      -6.791   1.368  26.278  0.00  0.00    -0.133 F 
ATOM     26  F   UNL     1      -6.734   1.644  25.146  0.00  0.00    -0.133 F 
ATOM     27  F   UNL     1      -6.286   2.383  26.552  0.00  0.00    -0.133 F 
ENDBRANCH  23  24
ENDBRANCH  22  23
ENDBRANCH  16  19
TORSDOF 6
ENDMDL
MODEL 4
REMARK VINA RESULT:     -10.4      1.381      2.276
REMARK  Name = 
REMARK  6 active torsions:
REMARK  status: ('A' for Active; 'I' for Inactive)
REMARK    1  A    between atoms: C_4  and  C_14
REMARK    2  A    between atoms: N_5  and  C_6
REMARK    3  A    between atoms: C_6  and  C_7
REMARK    4  A    between atoms: C_16  and  C_19
REMARK    5  A    between atoms: C_22  and  O_23
REMARK    6  A    between atoms: O_23  and  C_24
REMARK                            x       y       z     vdW  Elec       q    Type
REMARK                         _______ _______ _______ _____ _____    ______ ____
ROOT
ATOM     14  C   UNL     1      -2.251   1.944  24.517  0.00  0.00    +0.251 A 
ATOM     15  N   UNL     1      -2.410   1.227  24.893  0.00  0.00    -0.190 NA
ATOM     16  C   UNL     1      -2.255   0.618  24.358  0.00  0.00    +0.203 A 
ATOM     17  N   UNL     1      -1.999   0.959  23.652  0.00  0.00    -0.056 NA
ATOM     18  O   UNL     1      -1.997   1.778  23.750  0.00  0.00    -0.336 OA
ENDROOT
BRANCH  14   4
ATOM      1  O   UNL     1      -1.642   4.470  25.812  0.00  0.00    -0.222 OA
ATOM      2  C   UNL     1      -2.052   3.856  25.445  0.00  0.00    +0.170 C 
ATOM      3  C   UNL     1      -1.725   3.146  25.180  0.00  0.00    +0.060 C 
ATOM      4  C   UNL     1      -2.332   2.694  24.850  0.00  0.00    +0.140 C 
ATOM      5  N   UNL     1      -3.032   3.125  24.911  0.00  0.00    -0.260 NA
ATOM     13  C   UNL     1      -2.859   3.843  25.279  0.00  0.00    +0.106 C 
BRANCH   5   6
ATOM      6  C   UNL     1      -3.776   2.882  24.650  0.00  0.00    +0.100 C 
BRANCH   6   7
ATOM      7  C   UNL     1      -4.455   3.135  25.044  0.00  0.00    -0.003 A 
ATOM      8  C   UNL     1      -4.760   3.888  24.897  0.00  0.00    +0.018 A 
ATOM      9  C   UNL     1      -5.440   4.141  25.291  0.00  0.00    +0.099 A 
ATOM     10  N   UNL     1      -5.813   3.642  25.831  0.00  0.00    -0.242 NA
ATOM     11  C   UNL     1      -5.508   2.889  25.977  0.00  0.00    +0.099 A 
ATOM     12  C   UNL     1      -4.829   2.637  25.583  0.00  0.00    +0.018 A 
ENDBRANCH   6   7
ENDBRANCH   5   6
ENDBRANCH  14   4
BRANCH  16  19
ATOM     19  C   UNL     1      -2.339  -0.190  24.504  0.00  0.00    +0.039 A 
ATOM     20  C   UNL     1      -3.092  -0.526  24.535  0.00  0.00    +0.006 A 
ATOM     21  C   UNL     1      -3.176  -1.333  24.681  0.00  0.00    +0.037 A 
ATOM     22  C   UNL     1      -2.509  -1.804  24.796  0.00  0.00    +0.147 A 
ATOM     28  C   UNL     1      -1.757  -1.468  24.765  0.00  0.00    +0.037 A 
ATOM     29  C   UNL     1      -1.672  -0.660  24.619  0.00  0.00    +0.006 A 
BRANCH  22  23
ATOM     23  O   UNL     1      -2.594  -2.611  24.942  0.00  0.00    -0.404 OA
BRANCH  23  24
ATOM     24  C   UNL     1      -3.264  -3.011  24.674  0.00  0.00    +0.575 C 
ATOM     25  F   UNL     1      -3.934  -3.411  24.405  0.00  0.00    -0.133 F 
ATOM     26  F   UNL     1      -2.912  -3.106  23.933  0.00  0.00    -0.133 F 
ATOM     27  F   UNL     1      -3.616  -2.916  25.413  0.00  0.00    -0.133 F 
ENDBRANCH  23  24
ENDBRANCH  22  23
ENDBRANCH  16  19
TORSDOF 6
ENDMDL
MODEL 5
REMARK VINA RESULT:     -10.4      3.536      6.207
REMARK  Name = 
REMARK  6 active torsions:
REMARK  status: ('A' for Active; 'I' for Inactive)
REMARK    1  A    between atoms: C_4  and  C_14
REMARK    2  A    between atoms: N_5  and  C_6
REMARK    3  A    between atoms: C_6  and  C_7
REMARK    4  A    between atoms: C_16  and  C_19
REMARK    5  A    between atoms: C_22  and  O_23
REMARK    6  A    between atoms: O_23  and  C_24
REMARK                            x       y       z     vdW  Elec       q    Type
REMARK                         _______ _______ _______ _____ _____    ______ ____
ROOT
ATOM     14  C   UNL     1      -1.117   0.339  24.509  0.00  0.00    +0.251 A 
ATOM     15  N   UNL     1      -1.145   0.993  25.011  0.00  0.00    -0.190 NA
ATOM     16  C   UNL     1      -1.251   1.667  24.547  0.00  0.00    +0.203 A 
ATOM     17  N   UNL     1      -1.289   1.429  23.758  0.00  0.00    -0.056 NA
ATOM     18  O   UNL     1      -1.206   0.608  23.734  0.00  0.00    -0.336 OA
ENDROOT
BRANCH  14   4
ATOM      1  O   UNL     1       0.099  -2.156  25.363  0.00  0.00    -0.222 OA
ATOM      2  C   UNL     1      -0.459  -1.593  25.133  0.00  0.00    +0.170 C 
ATOM      3  C   UNL     1      -0.302  -0.808  24.935  0.00  0.00    +0.060 C 
ATOM      4  C   UNL     1      -1.018  -0.447  24.741  0.00  0.00    +0.140 C 
ATOM      5  N   UNL     1      -1.617  -1.009  24.819  0.00  0.00    -0.260 NA
ATOM     13  C   UNL     1      -1.271  -1.718  25.062  0.00  0.00    +0.106 C 
BRANCH   5   6
ATOM      6  C   UNL     1      -2.420  -0.884  24.679  0.00  0.00    +0.100 C 
BRANCH   6   7
ATOM      7  C   UNL     1      -2.941  -1.523  24.670  0.00  0.00    -0.003 A 
ATOM      8  C   UNL     1      -3.226  -1.833  25.379  0.00  0.00    +0.018 A 
ATOM      9  C   UNL     1      -3.748  -2.473  25.369  0.00  0.00    +0.099 A 
ATOM     10  N   UNL     1      -3.983  -2.802  24.651  0.00  0.00    -0.242 NA
ATOM     11  C   UNL     1      -3.697  -2.492  23.941  0.00  0.00    +0.099 A 
ATOM     12  C   UNL     1      -3.176  -1.853  23.952  0.00  0.00    +0.018 A 
ENDBRANCH   6   7
ENDBRANCH   5   6
ENDBRANCH  14   4
BRANCH  16  19
ATOM     19  C   UNL     1      -1.309   2.442  24.823  0.00  0.00    +0.039 A 
ATOM     20  C   UNL     1      -2.050   2.794  24.912  0.00  0.00    +0.006 A 
ATOM     21  C   UNL     1      -2.108   3.569  25.188  0.00  0.00    +0.037 A 
ATOM     22  C   UNL     1      -1.426   3.992  25.375  0.00  0.00    +0.147 A 
ATOM     28  C   UNL     1      -0.685   3.641  25.287  0.00  0.00    +0.037 A 
ATOM     29  C   UNL     1      -0.626   2.865  25.010  0.00  0.00    +0.006 A 
BRANCH  22  23
ATOM     23  O   UNL     1      -1.484   4.767  25.651  0.00  0.00    -0.404 OA
BRANCH  23  24
ATOM     24  C   UNL     1      -1.499   5.395  25.117  0.00  0.00    +0.575 C 
ATOM     25  F   UNL     1      -1.514   6.024  24.582  0.00  0.00    -0.133 F 
ATOM     26  F   UNL     1      -0.674   5.409  25.108  0.00  0.00    -0.133 F 
ATOM     27  F   UNL     1      -2.323   5.382  25.124  0.00  0.00    -0.133 F 
ENDBRANCH  23  24
ENDBRANCH  22  23
ENDBRANCH  16  19
TORSDOF 6
ENDMDL
