MODEL 1
REMARK VINA RESULT:      -9.6      0.000      0.000
REMARK  Name = 
REMARK  7 active torsions:
REMARK  status: ('A' for Active; 'I' for Inactive)
REMARK    1  A    between atoms: N_2  and  C_4
REMARK    2  A    between atoms: C_7  and  C_10
REMARK    3  A    between atoms: N_15  and  C_16
REMARK    4  A    between atoms: C_20  and  N_24
REMARK    5  A    between atoms: C_25  and  C_27
REMARK    6  A    between atoms: C_27  and  O_28
REMARK    7  A    between atoms: O_28  and  C_29
REMARK                            x       y       z     vdW  Elec       q    Type
REMARK                         _______ _______ _______ _____ _____    ______ ____
ROOT
ATOM     16  C   UNL     1      -0.455   1.397  24.551  0.00  0.00    +0.154 C 
ATOM     17  C   UNL     1       0.031   1.947  24.927  0.00  0.00    +0.166 C 
ATOM     18  O   UNL     1       0.793   1.863  24.623  0.00  0.00    -0.350 OA
ATOM     19  C   UNL     1       0.778   1.262  24.060  0.00  0.00    +0.166 C 
ATOM     20  C   UNL     1       1.240   0.837  23.523  0.00  0.00    +0.154 C 
ATOM     21  C   UNL     1       0.754   0.287  23.147  0.00  0.00    +0.166 C 
ATOM     22  O   UNL     1      -0.008   0.371  23.451  0.00  0.00    -0.350 OA
ATOM     23  C   UNL     1       0.007   0.973  24.015  0.00  0.00    +0.166 C 
ENDROOT
BRANCH  16  15
ATOM     10  C   UNL     1      -3.082   2.484  24.850  0.00  0.00    +0.086 A 
ATOM     11  C   UNL     1      -2.781   3.243  24.728  0.00  0.00    +0.040 A 
ATOM     12  C   UNL     1      -1.974   3.350  24.591  0.00  0.00    +0.103 A 
ATOM     13  N   UNL     1      -1.468   2.699  24.578  0.00  0.00    -0.211 NA
ATOM     14  C   UNL     1      -1.769   1.940  24.701  0.00  0.00    +0.237 A 
ATOM     15  N   UNL     1      -1.262   1.289  24.687  0.00  0.00    -0.200 NA
ATOM     35  N   UNL     1      -2.575   1.833  24.837  0.00  0.00    -0.212 NA
BRANCH  10   7
ATOM      4  C   UNL     1      -5.502   2.162  25.258  0.00  0.00    +0.048 A 
ATOM      5  C   UNL     1      -5.140   2.877  25.460  0.00  0.00    +0.015 A 
ATOM      6  C   UNL     1      -4.334   2.984  25.324  0.00  0.00    +0.003 A 
ATOM      7  C   UNL     1      -3.888   2.377  24.986  0.00  0.00    +0.018 A 
ATOM      8  C   UNL     1      -4.248   1.664  24.784  0.00  0.00    +0.003 A 
ATOM      9  C   UNL     1      -5.055   1.556  24.920  0.00  0.00    +0.015 A 
BRANCH   4   2
ATOM      1  C   UNL     1      -6.599   2.057  26.166  0.00  0.00    +0.112 C 
ATOM      2  N   UNL     1      -6.308   2.055  25.395  0.00  0.00    -0.304 N 
ATOM      3  C   UNL     1      -6.823   1.947  24.759  0.00  0.00    +0.112 C 
ENDBRANCH   4   2
ENDBRANCH  10   7
ENDBRANCH  16  15
BRANCH  20  24
ATOM     24  N   UNL     1       2.047   0.944  23.387  0.00  0.00    -0.199 NA
ATOM     25  C   UNL     1       2.453   0.429  22.887  0.00  0.00    +0.286 C 
ATOM     26  O   UNL     1       2.053  -0.194  22.523  0.00  0.00    -0.269 OA
BRANCH  25  27
ATOM     27  C   UNL     1       3.260   0.536  22.751  0.00  0.00    +0.291 C 
BRANCH  27  28
ATOM     28  O   UNL     1       3.769  -0.113  22.755  0.00  0.00    -0.466 OA
BRANCH  28  29
ATOM     29  C   UNL     1       4.471  -0.084  23.187  0.00  0.00    +0.139 A 
ATOM     30  C   UNL     1       4.954   0.582  23.147  0.00  0.00    +0.037 A 
ATOM     31  C   UNL     1       5.656   0.611  23.578  0.00  0.00    +0.003 A 
ATOM     32  C   UNL     1       5.876  -0.030  24.050  0.00  0.00    +0.000 A 
ATOM     33  C   UNL     1       5.393  -0.698  24.091  0.00  0.00    +0.003 A 
ATOM     34  C   UNL     1       4.690  -0.726  23.659  0.00  0.00    +0.037 A 
ENDBRANCH  28  29
ENDBRANCH  27  28
ENDBRANCH  25  27
ENDBRANCH  20  24
TORSDOF 7
ENDMDL
MODEL 2
REMARK VINA RESULT:      -8.1      1.525      8.017
REMARK  Name = 
REMARK  7 active torsions:
REMARK  status: ('A' for Active; 'I' for Inactive)
REMARK    1  A    between atoms: N_2  and  C_4
REMARK    2  A    between atoms: C_7  and  C_10
REMARK    3  A    between atoms: N_15  and  C_16
REMARK    4  A    between atoms: C_20  and  N_24
REMARK    5  A    between atoms: C_25  and  C_27
REMARK    6  A    between atoms: C_27  and  O_28
REMARK    7  A    between atoms: O_28  and  C_29
REMARK                            x       y       z     vdW  Elec       q    Type
REMARK                         _______ _______ _______ _____ _____    ______ ____
ROOT
ATOM     16  C   UNL     1      -0.086   1.163  24.025  0.00  0.00    +0.154 C 
ATOM     17  C   UNL     1      -0.592   0.531  23.869  0.00  0.00    +0.166 C 
ATOM     18  O   UNL     1      -1.364   0.821  23.855  0.00  0.00    -0.350 OA
ATOM     19  C   UNL     1      -1.335   1.631  24.001  0.00  0.00    +0.166 C 
ATOM     20  C   UNL     1      -1.794   2.312  24.083  0.00  0.00    +0.154 C 
ATOM     21  C   UNL     1      -1.287   2.945  24.239  0.00  0.00    +0.166 C 
ATOM     22  O   UNL     1      -0.516   2.655  24.253  0.00  0.00    -0.350 OA
ATOM     23  C   UNL     1      -0.545   1.843  24.106  0.00  0.00    +0.166 C 
ENDROOT
BRANCH  16  15
ATOM     10  C   UNL     1       2.430   0.243  23.028  0.00  0.00    +0.086 A 
ATOM     11  C   UNL     1       2.045  -0.135  22.404  0.00  0.00    +0.040 A 
ATOM     12  C   UNL     1       1.223  -0.094  22.341  0.00  0.00    +0.103 A 
ATOM     13  N   UNL     1       0.786   0.325  22.902  0.00  0.00    -0.211 NA
ATOM     14  C   UNL     1       1.173   0.703  23.527  0.00  0.00    +0.237 A 
ATOM     15  N   UNL     1       0.736   1.122  24.088  0.00  0.00    -0.200 NA
ATOM     35  N   UNL     1       1.994   0.662  23.589  0.00  0.00    -0.212 NA
BRANCH  10   7
ATOM      4  C   UNL     1       4.895   0.118  23.216  0.00  0.00    +0.048 A 
ATOM      5  C   UNL     1       4.539   0.788  22.892  0.00  0.00    +0.015 A 
ATOM      6  C   UNL     1       3.718   0.830  22.829  0.00  0.00    +0.003 A 
ATOM      7  C   UNL     1       3.251   0.201  23.091  0.00  0.00    +0.018 A 
ATOM      8  C   UNL     1       3.607  -0.469  23.415  0.00  0.00    +0.003 A 
ATOM      9  C   UNL     1       4.429  -0.510  23.478  0.00  0.00    +0.015 A 
BRANCH   4   2
ATOM      1  C   UNL     1       6.095   0.386  23.943  0.00  0.00    +0.112 C 
ATOM      2  N   UNL     1       5.716   0.077  23.279  0.00  0.00    -0.304 N 
ATOM      3  C   UNL     1       6.159  -0.274  22.678  0.00  0.00    +0.112 C 
ENDBRANCH   4   2
ENDBRANCH  10   7
ENDBRANCH  16  15
BRANCH  20  24
ATOM     24  N   UNL     1      -2.616   2.354  24.020  0.00  0.00    -0.199 NA
ATOM     25  C   UNL     1      -3.045   2.837  24.532  0.00  0.00    +0.286 C 
ATOM     26  O   UNL     1      -2.653   3.279  25.108  0.00  0.00    -0.269 OA
BRANCH  25  27
ATOM     27  C   UNL     1      -3.867   2.878  24.470  0.00  0.00    +0.291 C 
BRANCH  27  28
ATOM     28  O   UNL     1      -4.323   3.057  25.133  0.00  0.00    -0.466 OA
BRANCH  28  29
ATOM     29  C   UNL     1      -5.043   2.673  25.255  0.00  0.00    +0.139 A 
ATOM     30  C   UNL     1      -5.407   2.269  24.636  0.00  0.00    +0.037 A 
ATOM     31  C   UNL     1      -6.126   1.887  24.758  0.00  0.00    +0.003 A 
ATOM     32  C   UNL     1      -6.484   1.908  25.501  0.00  0.00    +0.000 A 
ATOM     33  C   UNL     1      -6.121   2.312  26.122  0.00  0.00    +0.003 A 
ATOM     34  C   UNL     1      -5.400   2.695  26.000  0.00  0.00    +0.037 A 
ENDBRANCH  28  29
ENDBRANCH  27  28
ENDBRANCH  25  27
ENDBRANCH  20  24
TORSDOF 7
ENDMDL
