MODEL 1
REMARK VINA RESULT:     -12.5      0.000      0.000
REMARK  Name = 
REMARK  7 active torsions:
REMARK  status: ('A' for Active; 'I' for Inactive)
REMARK    1  A    between atoms: N_4  and  C_21
REMARK    2  A    between atoms: C_7  and  C_8
REMARK    3  A    between atoms: C_10  and  N_11
REMARK    4  A    between atoms: C_12  and  C_14
REMARK    5  A    between atoms: C_14  and  C_15
REMARK    6  A    between atoms: C_15  and  C_16
REMARK    7  A    between atoms: C_24  and  C_27
REMARK                            x       y       z     vdW  Elec       q    Type
REMARK                         _______ _______ _______ _____ _____    ______ ____
ROOT
ATOM      1  C   UNL     1      -5.664   1.563  25.719  0.00  0.00    +0.054 C 
ATOM      2  C   UNL     1      -5.098   1.110  25.326  0.00  0.00    +0.077 A 
ATOM      3  N   UNL     1      -5.039   0.287  25.340  0.00  0.00    -0.170 NA
ATOM      4  N   UNL     1      -4.396   0.069  24.872  0.00  0.00    -0.234 N 
ATOM      5  C   UNL     1      -4.057   0.757  24.568  0.00  0.00    +0.058 A 
ATOM      6  C   UNL     1      -3.400   0.796  24.071  0.00  0.00    +0.052 C 
ATOM      7  C   UNL     1      -4.491   1.401  24.848  0.00  0.00    +0.010 A 
ENDROOT
BRANCH   4  21
ATOM     21  C   UNL     1      -4.137  -0.702  24.733  0.00  0.00    +0.082 A 
ATOM     22  C   UNL     1      -4.369  -1.096  24.047  0.00  0.00    +0.019 A 
ATOM     23  C   UNL     1      -4.110  -1.867  23.907  0.00  0.00    +0.005 A 
ATOM     24  C   UNL     1      -3.619  -2.243  24.453  0.00  0.00    +0.072 A 
ATOM     25  C   UNL     1      -3.387  -1.847  25.140  0.00  0.00    +0.005 A 
ATOM     26  C   UNL     1      -3.646  -1.077  25.279  0.00  0.00    +0.019 A 
BRANCH  24  27
ATOM     27  C   UNL     1      -3.360  -3.013  24.314  0.00  0.00    +0.419 C 
ATOM     28  F   UNL     1      -3.101  -3.784  24.174  0.00  0.00    -0.166 F 
ATOM     29  F   UNL     1      -4.139  -3.281  24.344  0.00  0.00    -0.166 F 
ATOM     30  F   UNL     1      -2.580  -2.746  24.284  0.00  0.00    -0.166 F 
ENDBRANCH  24  27
ENDBRANCH   4  21
BRANCH   7   8
ATOM      8  C   UNL     1      -4.344   2.195  24.681  0.00  0.00    +0.048 C 
ATOM      9  C   UNL     1      -3.608   2.568  24.707  0.00  0.00    +0.035 C 
ATOM     10  C   UNL     1      -3.717   3.359  24.500  0.00  0.00    +0.118 C 
ATOM     19  C   UNL     1      -4.518   3.475  24.345  0.00  0.00    -0.009 C 
ATOM     20  C   UNL     1      -4.906   2.756  24.457  0.00  0.00    -0.025 C 
BRANCH  10  11
ATOM     11  N   UNL     1      -3.126   3.934  24.455  0.00  0.00    -0.203 NA
ATOM     12  C   UNL     1      -2.784   4.228  25.146  0.00  0.00    +0.242 C 
ATOM     13  O   UNL     1      -3.033   3.949  25.881  0.00  0.00    -0.273 OA
BRANCH  12  14
ATOM     14  C   UNL     1      -2.194   4.803  25.101  0.00  0.00    +0.099 C 
BRANCH  14  15
ATOM     15  C   UNL     1      -1.414   4.607  25.287  0.00  0.00    +0.124 C 
BRANCH  15  16
ATOM     16  C   UNL     1      -0.791   5.026  24.945  0.00  0.00    +0.365 C 
ATOM     17  O   UNL     1      -0.141   4.620  24.637  0.00  0.00    -0.246 OA
ATOM     18  O   UNL     1      -0.818   5.850  24.909  0.00  0.00    -0.246 OA
ENDBRANCH  15  16
ENDBRANCH  14  15
ENDBRANCH  12  14
ENDBRANCH  10  11
ENDBRANCH   7   8
TORSDOF 7
ENDMDL
MODEL 2
REMARK VINA RESULT:     -11.8      3.512      5.890
REMARK  Name = 
REMARK  7 active torsions:
REMARK  status: ('A' for Active; 'I' for Inactive)
REMARK    1  A    between atoms: N_4  and  C_21
REMARK    2  A    between atoms: C_7  and  C_8
REMARK    3  A    between atoms: C_10  and  N_11
REMARK    4  A    between atoms: C_12  and  C_14
REMARK    5  A    between atoms: C_14  and  C_15
REMARK    6  A    between atoms: C_15  and  C_16
REMARK    7  A    between atoms: C_24  and  C_27
REMARK                            x       y       z     vdW  Elec       q    Type
REMARK                         _______ _______ _______ _____ _____    ______ ____
ROOT
ATOM      1  C   UNL     1      -5.414   2.851  25.852  0.00  0.00    +0.054 C 
ATOM      2  C   UNL     1      -4.643   2.906  25.564  0.00  0.00    +0.077 A 
ATOM      3  N   UNL     1      -4.157   3.572  25.602  0.00  0.00    -0.170 NA
ATOM      4  N   UNL     1      -3.436   3.383  25.249  0.00  0.00    -0.234 N 
ATOM      5  C   UNL     1      -3.476   2.600  24.992  0.00  0.00    +0.058 A 
ATOM      6  C   UNL     1      -2.876   2.185  24.607  0.00  0.00    +0.052 C 
ATOM      7  C   UNL     1      -4.222   2.305  25.186  0.00  0.00    +0.010 A 
ENDROOT
BRANCH   4  21
ATOM     21  C   UNL     1      -2.789   3.888  25.167  0.00  0.00    +0.082 A 
ATOM     22  C   UNL     1      -2.215   3.921  25.758  0.00  0.00    +0.019 A 
ATOM     23  C   UNL     1      -1.567   4.426  25.676  0.00  0.00    +0.005 A 
ATOM     24  C   UNL     1      -1.494   4.898  25.004  0.00  0.00    +0.072 A 
ATOM     25  C   UNL     1      -2.070   4.865  24.412  0.00  0.00    +0.005 A 
ATOM     26  C   UNL     1      -2.717   4.360  24.494  0.00  0.00    +0.019 A 
BRANCH  24  27
ATOM     27  C   UNL     1      -0.847   5.403  24.922  0.00  0.00    +0.419 C 
ATOM     28  F   UNL     1      -0.200   5.907  24.840  0.00  0.00    -0.166 F 
ATOM     29  F   UNL     1      -0.403   4.782  24.609  0.00  0.00    -0.166 F 
ATOM     30  F   UNL     1      -1.292   6.023  25.234  0.00  0.00    -0.166 F 
ENDBRANCH  24  27
ENDBRANCH   4  21
BRANCH   7   8
ATOM      8  C   UNL     1      -4.498   1.544  25.030  0.00  0.00    +0.048 C 
ATOM      9  C   UNL     1      -4.116   0.840  25.227  0.00  0.00    +0.035 C 
ATOM     10  C   UNL     1      -4.587   0.213  24.969  0.00  0.00    +0.118 C 
ATOM     19  C   UNL     1      -5.259   0.530  24.612  0.00  0.00    -0.009 C 
ATOM     20  C   UNL     1      -5.205   1.353  24.650  0.00  0.00    -0.025 C 
BRANCH  10  11
ATOM     11  N   UNL     1      -4.415  -0.590  25.052  0.00  0.00    -0.203 NA
ATOM     12  C   UNL     1      -4.155  -1.025  24.402  0.00  0.00    +0.242 C 
ATOM     13  O   UNL     1      -4.067  -0.659  23.668  0.00  0.00    -0.273 OA
BRANCH  12  14
ATOM     14  C   UNL     1      -3.983  -1.827  24.486  0.00  0.00    +0.099 C 
BRANCH  14  15
ATOM     15  C   UNL     1      -3.293  -2.138  24.155  0.00  0.00    +0.124 C 
BRANCH  15  16
ATOM     16  C   UNL     1      -2.986  -2.851  24.435  0.00  0.00    +0.365 C 
ATOM     17  O   UNL     1      -2.177  -2.922  24.580  0.00  0.00    -0.246 OA
ATOM     18  O   UNL     1      -3.488  -3.491  24.570  0.00  0.00    -0.246 OA
ENDBRANCH  15  16
ENDBRANCH  14  15
ENDBRANCH  12  14
ENDBRANCH  10  11
ENDBRANCH   7   8
TORSDOF 7
ENDMDL
MODEL 3
REMARK VINA RESULT:     -11.3      3.665      5.033
REMARK  Name = 
REMARK  7 active torsions:
REMARK  status: ('A' for Active; 'I' for Inactive)
REMARK    1  A    between atoms: N_4  and  C_21
REMARK    2  A    between atoms: C_7  and  C_8
REMARK    3  A    between atoms: C_10  and  N_11
REMARK    4  A    between atoms: C_12  and  C_14
REMARK    5  A    between atoms: C_14  and  C_15
REMARK    6  A    between atoms: C_15  and  C_16
REMARK    7  A    between atoms: C_24  and  C_27
REMARK                            x       y       z     vdW  Elec       q    Type
REMARK                         _______ _______ _______ _____ _____    ______ ____
ROOT
ATOM      1  C   UNL     1      -3.672  -1.036  24.262  0.00  0.00    +0.054 C 
ATOM      2  C   UNL     1      -3.614  -0.252  24.512  0.00  0.00    +0.077 A 
ATOM      3  N   UNL     1      -4.239   0.283  24.578  0.00  0.00    -0.170 NA
ATOM      4  N   UNL     1      -3.933   1.000  24.846  0.00  0.00    -0.234 N 
ATOM      5  C   UNL     1      -3.119   0.909  24.946  0.00  0.00    +0.058 A 
ATOM      6  C   UNL     1      -2.594   1.489  25.207  0.00  0.00    +0.052 C 
ATOM      7  C   UNL     1      -2.922   0.135  24.740  0.00  0.00    +0.010 A 
ENDROOT
BRANCH   4  21
ATOM     21  C   UNL     1      -4.365   1.688  24.990  0.00  0.00    +0.082 A 
ATOM     22  C   UNL     1      -4.260   2.349  24.507  0.00  0.00    +0.019 A 
ATOM     23  C   UNL     1      -4.692   3.038  24.650  0.00  0.00    +0.005 A 
ATOM     24  C   UNL     1      -5.228   3.065  25.276  0.00  0.00    +0.072 A 
ATOM     25  C   UNL     1      -5.333   2.404  25.759  0.00  0.00    +0.005 A 
ATOM     26  C   UNL     1      -4.901   1.715  25.616  0.00  0.00    +0.019 A 
BRANCH  24  27
ATOM     27  C   UNL     1      -5.660   3.753  25.420  0.00  0.00    +0.419 C 
ATOM     28  F   UNL     1      -6.092   4.441  25.563  0.00  0.00    -0.166 F 
ATOM     29  F   UNL     1      -4.960   4.188  25.441  0.00  0.00    -0.166 F 
ATOM     30  F   UNL     1      -6.361   3.318  25.398  0.00  0.00    -0.166 F 
ENDBRANCH  24  27
ENDBRANCH   4  21
BRANCH   7   8
ATOM      8  C   UNL     1      -2.166  -0.194  24.757  0.00  0.00    +0.048 C 
ATOM      9  C   UNL     1      -1.657  -0.277  24.113  0.00  0.00    +0.035 C 
ATOM     10  C   UNL     1      -0.962  -0.632  24.381  0.00  0.00    +0.118 C 
ATOM     19  C   UNL     1      -1.041  -0.770  25.190  0.00  0.00    -0.009 C 
ATOM     20  C   UNL     1      -1.785  -0.499  25.423  0.00  0.00    -0.025 C 
BRANCH  10  11
ATOM     11  N   UNL     1      -0.304  -0.818  23.919  0.00  0.00    -0.203 NA
ATOM     12  C   UNL     1       0.239  -0.229  23.720  0.00  0.00    +0.242 C 
ATOM     13  O   UNL     1       0.123   0.544  23.982  0.00  0.00    -0.273 OA
BRANCH  12  14
ATOM     14  C   UNL     1       0.897  -0.415  23.259  0.00  0.00    +0.099 C 
BRANCH  14  15
ATOM     15  C   UNL     1       1.297   0.182  22.852  0.00  0.00    +0.124 C 
BRANCH  15  16
ATOM     16  C   UNL     1       1.963  -0.002  22.402  0.00  0.00    +0.365 C 
ATOM     17  O   UNL     1       2.717   0.088  22.726  0.00  0.00    -0.246 OA
ATOM     18  O   UNL     1       1.876  -0.275  21.628  0.00  0.00    -0.246 OA
ENDBRANCH  15  16
ENDBRANCH  14  15
ENDBRANCH  12  14
ENDBRANCH  10  11
ENDBRANCH   7   8
TORSDOF 7
ENDMDL
MODEL 4
REMARK VINA RESULT:     -11.1      3.449      4.806
REMARK  Name = 
REMARK  7 active torsions:
REMARK  status: ('A' for Active; 'I' for Inactive)
REMARK    1  A    between atoms: N_4  and  C_21
REMARK    2  A    between atoms: C_7  and  C_8
REMARK    3  A    between atoms: C_10  and  N_11
REMARK    4  A    between atoms: C_12  and  C_14
REMARK    5  A    between atoms: C_14  and  C_15
REMARK    6  A    between atoms: C_15  and  C_16
REMARK    7  A    between atoms: C_24  and  C_27
REMARK                            x       y       z     vdW  Elec       q    Type
REMARK                         _______ _______ _______ _____ _____    ______ ____
ROOT
ATOM      1  C   UNL     1      -1.466   4.369  25.136  0.00  0.00    +0.054 C 
ATOM      2  C   UNL     1      -1.975   3.720  25.100  0.00  0.00    +0.077 A 
ATOM      3  N   UNL     1      -2.800   3.751  25.089  0.00  0.00    -0.170 NA
ATOM      4  N   UNL     1      -3.083   2.978  25.052  0.00  0.00    -0.234 N 
ATOM      5  C   UNL     1      -2.434   2.468  25.039  0.00  0.00    +0.058 A 
ATOM      6  C   UNL     1      -2.464   1.645  25.003  0.00  0.00    +0.052 C 
ATOM      7  C   UNL     1      -1.749   2.928  25.069  0.00  0.00    +0.010 A 
ENDROOT
BRANCH   4  21
ATOM     21  C   UNL     1      -3.876   2.753  25.030  0.00  0.00    +0.082 A 
ATOM     22  C   UNL     1      -4.201   2.451  24.334  0.00  0.00    +0.019 A 
ATOM     23  C   UNL     1      -4.994   2.226  24.312  0.00  0.00    +0.005 A 
ATOM     24  C   UNL     1      -5.463   2.302  24.987  0.00  0.00    +0.072 A 
ATOM     25  C   UNL     1      -5.138   2.604  25.683  0.00  0.00    +0.005 A 
ATOM     26  C   UNL     1      -4.345   2.829  25.705  0.00  0.00    +0.019 A 
BRANCH  24  27
ATOM     27  C   UNL     1      -6.256   2.077  24.966  0.00  0.00    +0.419 C 
ATOM     28  F   UNL     1      -7.050   1.852  24.944  0.00  0.00    -0.166 F 
ATOM     29  F   UNL     1      -6.469   2.793  25.317  0.00  0.00    -0.166 F 
ATOM     30  F   UNL     1      -6.044   1.362  24.615  0.00  0.00    -0.166 F 
ENDBRANCH  24  27
ENDBRANCH   4  21
BRANCH   7   8
ATOM      8  C   UNL     1      -0.975   2.644  25.068  0.00  0.00    +0.048 C 
ATOM      9  C   UNL     1      -0.527   2.458  24.401  0.00  0.00    +0.035 C 
ATOM     10  C   UNL     1       0.213   2.195  24.655  0.00  0.00    +0.118 C 
ATOM     19  C   UNL     1       0.222   2.218  25.479  0.00  0.00    -0.009 C 
ATOM     20  C   UNL     1      -0.512   2.495  25.735  0.00  0.00    -0.025 C 
BRANCH  10  11
ATOM     11  N   UNL     1       0.835   1.951  24.169  0.00  0.00    -0.203 NA
ATOM     12  C   UNL     1       0.875   1.168  23.914  0.00  0.00    +0.242 C 
ATOM     13  O   UNL     1       0.295   0.628  24.144  0.00  0.00    -0.273 OA
BRANCH  12  14
ATOM     14  C   UNL     1       1.496   0.925  23.429  0.00  0.00    +0.099 C 
BRANCH  14  15
ATOM     15  C   UNL     1       1.438   0.217  23.009  0.00  0.00    +0.124 C 
BRANCH  15  16
ATOM     16  C   UNL     1       2.008   0.025  22.444  0.00  0.00    +0.365 C 
ATOM     17  O   UNL     1       1.777  -0.270  21.709  0.00  0.00    -0.246 OA
ATOM     18  O   UNL     1       2.809   0.129  22.614  0.00  0.00    -0.246 OA
ENDBRANCH  15  16
ENDBRANCH  14  15
ENDBRANCH  12  14
ENDBRANCH  10  11
ENDBRANCH   7   8
TORSDOF 7
ENDMDL
MODEL 5
REMARK VINA RESULT:     -10.9      4.057      6.569
REMARK  Name = 
REMARK  7 active torsions:
REMARK  status: ('A' for Active; 'I' for Inactive)
REMARK    1  A    between atoms: N_4  and  C_21
REMARK    2  A    between atoms: C_7  and  C_8
REMARK    3  A    between atoms: C_10  and  N_11
REMARK    4  A    between atoms: C_12  and  C_14
REMARK    5  A    between atoms: C_14  and  C_15
REMARK    6  A    between atoms: C_15  and  C_16
REMARK    7  A    between atoms: C_24  and  C_27
REMARK                            x       y       z     vdW  Elec       q    Type
REMARK                         _______ _______ _______ _____ _____    ______ ____
ROOT
ATOM      1  C   UNL     1       0.582   0.540  23.681  0.00  0.00    +0.054 C 
ATOM      2  C   UNL     1       0.060   1.028  24.093  0.00  0.00    +0.077 A 
ATOM      3  N   UNL     1       0.062   1.854  24.087  0.00  0.00    -0.170 NA
ATOM      4  N   UNL     1      -0.551   2.113  24.573  0.00  0.00    -0.234 N 
ATOM      5  C   UNL     1      -0.933   1.449  24.881  0.00  0.00    +0.058 A 
ATOM      6  C   UNL     1      -1.578   1.454  25.394  0.00  0.00    +0.052 C 
ATOM      7  C   UNL     1      -0.554   0.778  24.584  0.00  0.00    +0.010 A 
ENDROOT
BRANCH   4  21
ATOM     21  C   UNL     1      -0.749   2.900  24.726  0.00  0.00    +0.082 A 
ATOM     22  C   UNL     1      -0.350   3.318  25.314  0.00  0.00    +0.019 A 
ATOM     23  C   UNL     1      -0.548   4.105  25.467  0.00  0.00    +0.005 A 
ATOM     24  C   UNL     1      -1.146   4.472  25.032  0.00  0.00    +0.072 A 
ATOM     25  C   UNL     1      -1.545   4.052  24.444  0.00  0.00    +0.005 A 
ATOM     26  C   UNL     1      -1.347   3.266  24.291  0.00  0.00    +0.019 A 
BRANCH  24  27
ATOM     27  C   UNL     1      -1.344   5.258  25.185  0.00  0.00    +0.419 C 
ATOM     28  F   UNL     1      -1.542   6.044  25.338  0.00  0.00    -0.166 F 
ATOM     29  F   UNL     1      -1.993   5.008  25.628  0.00  0.00    -0.166 F 
ATOM     30  F   UNL     1      -0.694   5.507  24.742  0.00  0.00    -0.166 F 
ENDBRANCH  24  27
ENDBRANCH   4  21
BRANCH   7   8
ATOM      8  C   UNL     1      -0.755  -0.004  24.748  0.00  0.00    +0.048 C 
ATOM      9  C   UNL     1      -1.311  -0.458  24.341  0.00  0.00    +0.035 C 
ATOM     10  C   UNL     1      -1.335  -1.206  24.691  0.00  0.00    +0.118 C 
ATOM     19  C   UNL     1      -0.794  -1.214  25.313  0.00  0.00    -0.009 C 
ATOM     20  C   UNL     1      -0.435  -0.472  25.349  0.00  0.00    -0.025 C 
BRANCH  10  11
ATOM     11  N   UNL     1      -1.816  -1.835  24.458  0.00  0.00    -0.203 NA
ATOM     12  C   UNL     1      -2.527  -1.977  24.851  0.00  0.00    +0.242 C 
ATOM     13  O   UNL     1      -2.757  -1.491  25.477  0.00  0.00    -0.273 OA
BRANCH  12  14
ATOM     14  C   UNL     1      -3.007  -2.606  24.618  0.00  0.00    +0.099 C 
BRANCH  14  15
ATOM     15  C   UNL     1      -3.819  -2.490  24.520  0.00  0.00    +0.124 C 
BRANCH  15  16
ATOM     16  C   UNL     1      -4.230  -2.921  23.949  0.00  0.00    +0.365 C 
ATOM     17  O   UNL     1      -4.106  -3.734  23.879  0.00  0.00    -0.246 OA
ATOM     18  O   UNL     1      -4.764  -2.540  23.449  0.00  0.00    -0.246 OA
ENDBRANCH  15  16
ENDBRANCH  14  15
ENDBRANCH  12  14
ENDBRANCH  10  11
ENDBRANCH   7   8
TORSDOF 7
ENDMDL
MODEL 6
REMARK VINA RESULT:     -10.4      2.084      2.735
REMARK  Name = 
REMARK  7 active torsions:
REMARK  status: ('A' for Active; 'I' for Inactive)
REMARK    1  A    between atoms: N_4  and  C_21
REMARK    2  A    between atoms: C_7  and  C_8
REMARK    3  A    between atoms: C_10  and  N_11
REMARK    4  A    between atoms: C_12  and  C_14
REMARK    5  A    between atoms: C_14  and  C_15
REMARK    6  A    between atoms: C_15  and  C_16
REMARK    7  A    between atoms: C_24  and  C_27
REMARK                            x       y       z     vdW  Elec       q    Type
REMARK                         _______ _______ _______ _____ _____    ______ ____
ROOT
ATOM      1  C   UNL     1      -0.689  -0.316  26.556  0.00  0.00    +0.054 C 
ATOM      2  C   UNL     1      -1.196  -0.405  25.912  0.00  0.00    +0.077 A 
ATOM      3  N   UNL     1      -1.728  -1.026  25.796  0.00  0.00    -0.170 NA
ATOM      4  N   UNL     1      -2.122  -0.895  25.084  0.00  0.00    -0.234 N 
ATOM      5  C   UNL     1      -1.835  -0.193  24.759  0.00  0.00    +0.058 A 
ATOM      6  C   UNL     1      -2.076   0.147  24.048  0.00  0.00    +0.052 C 
ATOM      7  C   UNL     1      -1.262   0.110  25.271  0.00  0.00    +0.010 A 
ENDROOT
BRANCH   4  21
ATOM     21  C   UNL     1      -2.702  -1.379  24.754  0.00  0.00    +0.082 A 
ATOM     22  C   UNL     1      -3.480  -1.112  24.698  0.00  0.00    +0.019 A 
ATOM     23  C   UNL     1      -4.061  -1.596  24.367  0.00  0.00    +0.005 A 
ATOM     24  C   UNL     1      -3.863  -2.349  24.094  0.00  0.00    +0.072 A 
ATOM     25  C   UNL     1      -3.084  -2.617  24.151  0.00  0.00    +0.005 A 
ATOM     26  C   UNL     1      -2.504  -2.132  24.481  0.00  0.00    +0.019 A 
BRANCH  24  27
ATOM     27  C   UNL     1      -4.443  -2.834  23.764  0.00  0.00    +0.419 C 
ATOM     28  F   UNL     1      -5.023  -3.319  23.434  0.00  0.00    -0.166 F 
ATOM     29  F   UNL     1      -4.098  -3.491  24.124  0.00  0.00    -0.166 F 
ATOM     30  F   UNL     1      -4.788  -2.177  23.405  0.00  0.00    -0.166 F 
ENDBRANCH  24  27
ENDBRANCH   4  21
BRANCH   7   8
ATOM      8  C   UNL     1      -0.832   0.804  25.161  0.00  0.00    +0.048 C 
ATOM      9  C   UNL     1      -1.029   1.549  25.456  0.00  0.00    +0.035 C 
ATOM     10  C   UNL     1      -0.447   2.082  25.214  0.00  0.00    +0.118 C 
ATOM     19  C   UNL     1       0.110   1.666  24.769  0.00  0.00    -0.009 C 
ATOM     20  C   UNL     1      -0.128   0.877  24.736  0.00  0.00    -0.025 C 
BRANCH  10  11
ATOM     11  N   UNL     1      -0.426   2.889  25.386  0.00  0.00    -0.203 NA
ATOM     12  C   UNL     1      -0.763   3.431  24.864  0.00  0.00    +0.242 C 
ATOM     13  O   UNL     1      -1.120   3.167  24.169  0.00  0.00    -0.273 OA
BRANCH  12  14
ATOM     14  C   UNL     1      -0.741   4.237  25.037  0.00  0.00    +0.099 C 
BRANCH  14  15
ATOM     15  C   UNL     1      -1.318   4.740  24.727  0.00  0.00    +0.124 C 
BRANCH  15  16
ATOM     16  C   UNL     1      -1.418   5.495  25.043  0.00  0.00    +0.365 C 
ATOM     17  O   UNL     1      -2.057   5.651  25.543  0.00  0.00    -0.246 OA
ATOM     18  O   UNL     1      -0.881   6.095  24.861  0.00  0.00    -0.246 OA
ENDBRANCH  15  16
ENDBRANCH  14  15
ENDBRANCH  12  14
ENDBRANCH  10  11
ENDBRANCH   7   8
TORSDOF 7
ENDMDL
MODEL 7
REMARK VINA RESULT:     -10.1      3.978      4.968
REMARK  Name = 
REMARK  7 active torsions:
REMARK  status: ('A' for Active; 'I' for Inactive)
REMARK    1  A    between atoms: N_4  and  C_21
REMARK    2  A    between atoms: C_7  and  C_8
REMARK    3  A    between atoms: C_10  and  N_11
REMARK    4  A    between atoms: C_12  and  C_14
REMARK    5  A    between atoms: C_14  and  C_15
REMARK    6  A    between atoms: C_15  and  C_16
REMARK    7  A    between atoms: C_24  and  C_27
REMARK                            x       y       z     vdW  Elec       q    Type
REMARK                         _______ _______ _______ _____ _____    ______ ____
ROOT
ATOM      1  C   UNL     1      -1.083  -0.616  25.727  0.00  0.00    +0.054 C 
ATOM      2  C   UNL     1      -1.593  -0.131  25.296  0.00  0.00    +0.077 A 
ATOM      3  N   UNL     1      -2.359   0.085  25.517  0.00  0.00    -0.170 NA
ATOM      4  N   UNL     1      -2.666   0.573  24.927  0.00  0.00    -0.234 N 
ATOM      5  C   UNL     1      -2.091   0.659  24.341  0.00  0.00    +0.058 A 
ATOM      6  C   UNL     1      -2.165   1.101  23.649  0.00  0.00    +0.052 C 
ATOM      7  C   UNL     1      -1.428   0.223  24.570  0.00  0.00    +0.010 A 
ENDROOT
BRANCH   4  21
ATOM     21  C   UNL     1      -3.417   0.915  24.923  0.00  0.00    +0.082 A 
ATOM     22  C   UNL     1      -4.081   0.448  24.784  0.00  0.00    +0.019 A 
ATOM     23  C   UNL     1      -4.833   0.790  24.780  0.00  0.00    +0.005 A 
ATOM     24  C   UNL     1      -4.918   1.599  24.914  0.00  0.00    +0.072 A 
ATOM     25  C   UNL     1      -4.252   2.067  25.053  0.00  0.00    +0.005 A 
ATOM     26  C   UNL     1      -3.501   1.725  25.058  0.00  0.00    +0.019 A 
BRANCH  24  27
ATOM     27  C   UNL     1      -5.668   1.941  24.910  0.00  0.00    +0.419 C 
ATOM     28  F   UNL     1      -6.419   2.283  24.906  0.00  0.00    -0.166 F 
ATOM     29  F   UNL     1      -5.843   1.566  25.624  0.00  0.00    -0.166 F 
ATOM     30  F   UNL     1      -5.493   2.316  24.197  0.00  0.00    -0.166 F 
ENDBRANCH  24  27
ENDBRANCH   4  21
BRANCH   7   8
ATOM      8  C   UNL     1      -0.723   0.155  24.146  0.00  0.00    +0.048 C 
ATOM      9  C   UNL     1      -0.110   0.707  24.133  0.00  0.00    +0.035 C 
ATOM     10  C   UNL     1       0.484   0.415  23.639  0.00  0.00    +0.118 C 
ATOM     19  C   UNL     1       0.238  -0.316  23.348  0.00  0.00    -0.009 C 
ATOM     20  C   UNL     1      -0.508  -0.478  23.661  0.00  0.00    -0.025 C 
BRANCH  10  11
ATOM     11  N   UNL     1       1.199   0.790  23.467  0.00  0.00    -0.203 NA
ATOM     12  C   UNL     1       1.787   0.385  23.054  0.00  0.00    +0.242 C 
ATOM     13  O   UNL     1       1.661  -0.393  22.812  0.00  0.00    -0.273 OA
BRANCH  12  14
ATOM     14  C   UNL     1       2.501   0.760  22.882  0.00  0.00    +0.099 C 
BRANCH  14  15
ATOM     15  C   UNL     1       3.197   0.319  22.833  0.00  0.00    +0.124 C 
BRANCH  15  16
ATOM     16  C   UNL     1       3.919   0.700  22.711  0.00  0.00    +0.365 C 
ATOM     17  O   UNL     1       4.158   0.894  21.945  0.00  0.00    -0.246 OA
ATOM     18  O   UNL     1       4.402   0.886  23.354  0.00  0.00    -0.246 OA
ENDBRANCH  15  16
ENDBRANCH  14  15
ENDBRANCH  12  14
ENDBRANCH  10  11
ENDBRANCH   7   8
TORSDOF 7
ENDMDL
MODEL 8
REMARK VINA RESULT:      -9.6      3.372      4.693
REMARK  Name = 
REMARK  7 active torsions:
REMARK  status: ('A' for Active; 'I' for Inactive)
REMARK    1  A    between atoms: N_4  and  C_21
REMARK    2  A    between atoms: C_7  and  C_8
REMARK    3  A    between atoms: C_10  and  N_11
REMARK    4  A    between atoms: C_12  and  C_14
REMARK    5  A    between atoms: C_14  and  C_15
REMARK    6  A    between atoms: C_15  and  C_16
REMARK    7  A    between atoms: C_24  and  C_27
REMARK                            x       y       z     vdW  Elec       q    Type
REMARK                         _______ _______ _______ _____ _____    ______ ____
ROOT
ATOM      1  C   UNL     1      -1.949  -1.170  25.706  0.00  0.00    +0.054 C 
ATOM      2  C   UNL     1      -1.611  -0.721  25.102  0.00  0.00    +0.077 A 
ATOM      3  N   UNL     1      -0.810  -0.703  24.901  0.00  0.00    -0.170 NA
ATOM      4  N   UNL     1      -0.718  -0.183  24.268  0.00  0.00    -0.234 N 
ATOM      5  C   UNL     1      -1.460   0.122  24.078  0.00  0.00    +0.058 A 
ATOM      6  C   UNL     1      -1.623   0.664  23.478  0.00  0.00    +0.052 C 
ATOM      7  C   UNL     1      -2.013  -0.211  24.593  0.00  0.00    +0.010 A 
ENDROOT
BRANCH   4  21
ATOM     21  C   UNL     1      -0.007   0.001  23.892  0.00  0.00    +0.082 A 
ATOM     22  C   UNL     1       0.338   0.742  24.004  0.00  0.00    +0.019 A 
ATOM     23  C   UNL     1       1.050   0.927  23.627  0.00  0.00    +0.005 A 
ATOM     24  C   UNL     1       1.414   0.370  23.139  0.00  0.00    +0.072 A 
ATOM     25  C   UNL     1       1.068  -0.371  23.028  0.00  0.00    +0.005 A 
ATOM     26  C   UNL     1       0.357  -0.555  23.404  0.00  0.00    +0.019 A 
BRANCH  24  27
ATOM     27  C   UNL     1       2.124   0.554  22.763  0.00  0.00    +0.419 C 
ATOM     28  F   UNL     1       2.835   0.738  22.386  0.00  0.00    -0.166 F 
ATOM     29  F   UNL     1       2.254   1.162  23.305  0.00  0.00    -0.166 F 
ATOM     30  F   UNL     1       1.995  -0.054  22.220  0.00  0.00    -0.166 F 
ENDBRANCH  24  27
ENDBRANCH   4  21
BRANCH   7   8
ATOM      8  C   UNL     1      -2.823  -0.060  24.599  0.00  0.00    +0.048 C 
ATOM      9  C   UNL     1      -3.208   0.504  25.061  0.00  0.00    +0.035 C 
ATOM     10  C   UNL     1      -4.015   0.466  24.890  0.00  0.00    +0.118 C 
ATOM     19  C   UNL     1      -4.128  -0.122  24.323  0.00  0.00    -0.009 C 
ATOM     20  C   UNL     1      -3.392  -0.447  24.142  0.00  0.00    -0.025 C 
BRANCH  10  11
ATOM     11  N   UNL     1      -4.605   0.934  25.228  0.00  0.00    -0.203 NA
ATOM     12  C   UNL     1      -4.823   1.645  24.870  0.00  0.00    +0.242 C 
ATOM     13  O   UNL     1      -4.451   1.887  24.175  0.00  0.00    -0.273 OA
BRANCH  12  14
ATOM     14  C   UNL     1      -5.412   2.112  25.208  0.00  0.00    +0.099 C 
BRANCH  14  15
ATOM     15  C   UNL     1      -5.312   2.930  25.259  0.00  0.00    +0.124 C 
BRANCH  15  16
ATOM     16  C   UNL     1      -5.757   3.367  25.798  0.00  0.00    +0.365 C 
ATOM     17  O   UNL     1      -5.906   4.167  25.657  0.00  0.00    -0.246 OA
ATOM     18  O   UNL     1      -6.054   3.006  26.478  0.00  0.00    -0.246 OA
ENDBRANCH  15  16
ENDBRANCH  14  15
ENDBRANCH  12  14
ENDBRANCH  10  11
ENDBRANCH   7   8
TORSDOF 7
ENDMDL
