MODEL 1
REMARK VINA RESULT:     -10.9      0.000      0.000
REMARK  Name = 
REMARK  8 active torsions:
REMARK  status: ('A' for Active; 'I' for Inactive)
REMARK    1  A    between atoms: N_2  and  C_4
REMARK    2  A    between atoms: C_7  and  C_10
REMARK    3  A    between atoms: C_16  and  C_18
REMARK    4  A    between atoms: N_20  and  C_21
REMARK    5  A    between atoms: C_21  and  C_22
REMARK    6  A    between atoms: C_21  and  C_29
REMARK    7  A    between atoms: C_22  and  C_23
REMARK    8  A    between atoms: N_34  and  C_35
REMARK                            x       y       z     vdW  Elec       q    Type
REMARK                         _______ _______ _______ _____ _____    ______ ____
ROOT
ATOM     10  C   UNL     1       0.155  -0.371  23.599  0.00  0.00    +0.249 C 
ATOM     11  O   UNL     1      -0.106  -1.154  23.620  0.00  0.00    -0.270 OA
ATOM     12  N   UNL     1      -0.319   0.230  23.908  0.00  0.00    -0.272 N 
ATOM     13  C   UNL     1      -0.059   1.013  23.886  0.00  0.00    +0.115 C 
ATOM     14  C   UNL     1      -0.533   1.613  24.195  0.00  0.00    +0.117 C 
ATOM     15  N   UNL     1      -1.266   1.431  24.526  0.00  0.00    -0.253 N 
ATOM     16  C   UNL     1      -1.526   0.649  24.548  0.00  0.00    +0.175 C 
ATOM     17  C   UNL     1      -1.052   0.049  24.238  0.00  0.00    +0.123 C 
ATOM     32  C   UNL     1      -1.740   2.032  24.835  0.00  0.00    +0.324 C 
ATOM     33  O   UNL     1      -2.473   1.850  25.166  0.00  0.00    -0.251 OA
ATOM     34  N   UNL     1      -1.479   2.814  24.813  0.00  0.00    -0.190 NA
ENDROOT
BRANCH  10   7
ATOM      4  C   UNL     1       2.355   0.175  22.607  0.00  0.00    +0.048 A 
ATOM      5  C   UNL     1       1.705   0.040  22.117  0.00  0.00    +0.015 A 
ATOM      6  C   UNL     1       0.971  -0.142  22.448  0.00  0.00    +0.006 A 
ATOM      7  C   UNL     1       0.888  -0.189  23.268  0.00  0.00    +0.054 A 
ATOM      8  C   UNL     1       1.539  -0.053  23.757  0.00  0.00    +0.006 A 
ATOM      9  C   UNL     1       2.273   0.129  23.426  0.00  0.00    +0.015 A 
BRANCH   4   2
ATOM      1  C   UNL     1       3.293   0.059  21.533  0.00  0.00    +0.112 C 
ATOM      2  N   UNL     1       3.089   0.358  22.276  0.00  0.00    -0.304 N 
ATOM      3  C   UNL     1       3.620   0.838  22.687  0.00  0.00    +0.112 C 
ENDBRANCH   4   2
ENDBRANCH  10   7
BRANCH  34  35
ATOM     35  C   UNL     1      -1.953   3.415  25.123  0.00  0.00    +0.097 C 
ATOM     36  C   UNL     1      -1.812   3.700  25.884  0.00  0.00    +0.022 C 
ATOM     37  C   UNL     1      -2.286   4.302  26.193  0.00  0.00    +0.002 C 
ATOM     38  C   UNL     1      -2.901   4.616  25.742  0.00  0.00    +0.000 C 
ATOM     39  C   UNL     1      -3.041   4.330  24.980  0.00  0.00    +0.002 C 
ATOM     40  C   UNL     1      -2.568   3.730  24.671  0.00  0.00    +0.022 C 
ENDBRANCH  34  35
BRANCH  16  18
ATOM     18  C   UNL     1      -2.260   0.467  24.878  0.00  0.00    +0.262 C 
ATOM     19  O   UNL     1      -2.415   0.656  25.665  0.00  0.00    -0.271 OA
ATOM     20  N   UNL     1      -2.837   0.095  24.422  0.00  0.00    -0.196 NA
BRANCH  20  21
ATOM     21  C   UNL     1      -3.570  -0.087  24.752  0.00  0.00    +0.174 C 
BRANCH  21  29
ATOM     29  C   UNL     1      -4.216   0.410  24.624  0.00  0.00    +0.281 C 
ATOM     30  N   UNL     1      -4.710   0.616  25.252  0.00  0.00    -0.086 NA
ATOM     31  O   UNL     1      -4.367   0.701  23.867  0.00  0.00    -0.270 OA
ENDBRANCH  21  29
BRANCH  21  22
ATOM     22  C   UNL     1      -3.659  -0.767  25.212  0.00  0.00    +0.031 C 
BRANCH  22  23
ATOM     23  C   UNL     1      -3.723  -1.505  24.849  0.00  0.00    +0.002 C 
ATOM     24  C   UNL     1      -4.170  -1.588  24.162  0.00  0.00    +0.000 C 
ATOM     25  C   UNL     1      -4.235  -2.327  23.799  0.00  0.00    +0.000 C 
ATOM     26  C   UNL     1      -3.853  -2.981  24.124  0.00  0.00    +0.000 C 
ATOM     27  C   UNL     1      -3.405  -2.898  24.812  0.00  0.00    +0.000 C 
ATOM     28  C   UNL     1      -3.340  -2.159  25.175  0.00  0.00    +0.000 C 
ENDBRANCH  22  23
ENDBRANCH  21  22
ENDBRANCH  20  21
ENDBRANCH  16  18
TORSDOF 8
ENDMDL
MODEL 2
REMARK VINA RESULT:      -8.8      1.405      5.621
REMARK  Name = 
REMARK  8 active torsions:
REMARK  status: ('A' for Active; 'I' for Inactive)
REMARK    1  A    between atoms: N_2  and  C_4
REMARK    2  A    between atoms: C_7  and  C_10
REMARK    3  A    between atoms: C_16  and  C_18
REMARK    4  A    between atoms: N_20  and  C_21
REMARK    5  A    between atoms: C_21  and  C_22
REMARK    6  A    between atoms: C_21  and  C_29
REMARK    7  A    between atoms: C_22  and  C_23
REMARK    8  A    between atoms: N_34  and  C_35
REMARK                            x       y       z     vdW  Elec       q    Type
REMARK                         _______ _______ _______ _____ _____    ______ ____
ROOT
ATOM     10  C   UNL     1      -2.694  -0.157  24.823  0.00  0.00    +0.249 C 
ATOM     11  O   UNL     1      -3.063   0.404  25.303  0.00  0.00    -0.270 OA
ATOM     12  N   UNL     1      -1.930  -0.019  24.540  0.00  0.00    -0.272 N 
ATOM     13  C   UNL     1      -1.562  -0.581  24.061  0.00  0.00    +0.115 C 
ATOM     14  C   UNL     1      -0.799  -0.442  23.778  0.00  0.00    +0.117 C 
ATOM     15  N   UNL     1      -0.407   0.255  23.973  0.00  0.00    -0.253 N 
ATOM     16  C   UNL     1      -0.776   0.816  24.452  0.00  0.00    +0.175 C 
ATOM     17  C   UNL     1      -1.538   0.678  24.735  0.00  0.00    +0.123 C 
ATOM     32  C   UNL     1       0.356   0.393  23.690  0.00  0.00    +0.324 C 
ATOM     33  O   UNL     1       0.749   1.092  23.886  0.00  0.00    -0.251 OA
ATOM     34  N   UNL     1       0.725  -0.168  23.211  0.00  0.00    -0.190 NA
ENDROOT
BRANCH  10   7
ATOM      4  C   UNL     1      -3.872  -2.253  24.236  0.00  0.00    +0.048 A 
ATOM      5  C   UNL     1      -3.998  -1.571  23.789  0.00  0.00    +0.015 A 
ATOM      6  C   UNL     1      -3.604  -0.871  23.985  0.00  0.00    +0.006 A 
ATOM      7  C   UNL     1      -3.087  -0.856  24.627  0.00  0.00    +0.054 A 
ATOM      8  C   UNL     1      -2.961  -1.538  25.074  0.00  0.00    +0.006 A 
ATOM      9  C   UNL     1      -3.355  -2.238  24.878  0.00  0.00    +0.015 A 
BRANCH   4   2
ATOM      1  C   UNL     1      -3.976  -3.677  24.308  0.00  0.00    +0.112 C 
ATOM      2  N   UNL     1      -4.265  -2.951  24.040  0.00  0.00    -0.304 N 
ATOM      3  C   UNL     1      -4.948  -2.925  23.576  0.00  0.00    +0.112 C 
ENDBRANCH   4   2
ENDBRANCH  10   7
BRANCH  34  35
ATOM     35  C   UNL     1       1.489  -0.030  22.928  0.00  0.00    +0.097 C 
ATOM     36  C   UNL     1       1.633  -0.031  22.115  0.00  0.00    +0.022 C 
ATOM     37  C   UNL     1       2.396   0.107  21.832  0.00  0.00    +0.002 C 
ATOM     38  C   UNL     1       3.014   0.246  22.361  0.00  0.00    +0.000 C 
ATOM     39  C   UNL     1       2.868   0.246  23.173  0.00  0.00    +0.002 C 
ATOM     40  C   UNL     1       2.107   0.108  23.456  0.00  0.00    +0.022 C 
ENDBRANCH  34  35
BRANCH  16  18
ATOM     18  C   UNL     1      -0.383   1.515  24.648  0.00  0.00    +0.262 C 
ATOM     19  O   UNL     1       0.298   1.733  24.238  0.00  0.00    -0.271 OA
ATOM     20  N   UNL     1      -0.671   1.994  25.254  0.00  0.00    -0.196 NA
BRANCH  20  21
ATOM     21  C   UNL     1      -0.278   2.693  25.449  0.00  0.00    +0.174 C 
BRANCH  21  29
ATOM     29  C   UNL     1       0.184   2.729  26.131  0.00  0.00    +0.281 C 
ATOM     30  N   UNL     1      -0.103   2.424  26.842  0.00  0.00    -0.086 NA
ATOM     31  O   UNL     1       0.935   3.071  26.101  0.00  0.00    -0.270 OA
ENDBRANCH  21  29
BRANCH  21  22
ATOM     22  C   UNL     1      -0.348   3.356  24.963  0.00  0.00    +0.031 C 
BRANCH  22  23
ATOM     23  C   UNL     1      -0.934   3.917  25.111  0.00  0.00    +0.002 C 
ATOM     24  C   UNL     1      -1.658   3.683  25.428  0.00  0.00    +0.000 C 
ATOM     25  C   UNL     1      -2.245   4.245  25.577  0.00  0.00    +0.000 C 
ATOM     26  C   UNL     1      -2.106   5.040  25.409  0.00  0.00    +0.000 C 
ATOM     27  C   UNL     1      -1.382   5.275  25.091  0.00  0.00    +0.000 C 
ATOM     28  C   UNL     1      -0.795   4.713  24.942  0.00  0.00    +0.000 C 
ENDBRANCH  22  23
ENDBRANCH  21  22
ENDBRANCH  20  21
ENDBRANCH  16  18
TORSDOF 8
ENDMDL
MODEL 3
REMARK VINA RESULT:      -8.3      1.078      3.893
REMARK  Name = 
REMARK  8 active torsions:
REMARK  status: ('A' for Active; 'I' for Inactive)
REMARK    1  A    between atoms: N_2  and  C_4
REMARK    2  A    between atoms: C_7  and  C_10
REMARK    3  A    between atoms: C_16  and  C_18
REMARK    4  A    between atoms: N_20  and  C_21
REMARK    5  A    between atoms: C_21  and  C_22
REMARK    6  A    between atoms: C_21  and  C_29
REMARK    7  A    between atoms: C_22  and  C_23
REMARK    8  A    between atoms: N_34  and  C_35
REMARK                            x       y       z     vdW  Elec       q    Type
REMARK                         _______ _______ _______ _____ _____    ______ ____
ROOT
ATOM     10  C   UNL     1       0.590   1.343  23.715  0.00  0.00    +0.249 C 
ATOM     11  O   UNL     1       0.539   2.161  23.812  0.00  0.00    -0.270 OA
ATOM     12  N   UNL     1      -0.055   0.864  23.907  0.00  0.00    -0.272 N 
ATOM     13  C   UNL     1      -0.004   0.046  23.810  0.00  0.00    +0.115 C 
ATOM     14  C   UNL     1      -0.648  -0.432  24.001  0.00  0.00    +0.117 C 
ATOM     15  N   UNL     1      -1.342  -0.094  24.289  0.00  0.00    -0.253 N 
ATOM     16  C   UNL     1      -1.393   0.724  24.386  0.00  0.00    +0.175 C 
ATOM     17  C   UNL     1      -0.749   1.202  24.195  0.00  0.00    +0.123 C 
ATOM     32  C   UNL     1      -1.986  -0.573  24.481  0.00  0.00    +0.324 C 
ATOM     33  O   UNL     1      -2.681  -0.234  24.769  0.00  0.00    -0.251 OA
ATOM     34  N   UNL     1      -1.935  -1.390  24.384  0.00  0.00    -0.190 NA
ENDROOT
BRANCH  10   7
ATOM      4  C   UNL     1       2.674   0.326  22.850  0.00  0.00    +0.048 A 
ATOM      5  C   UNL     1       1.945   0.111  22.527  0.00  0.00    +0.015 A 
ATOM      6  C   UNL     1       1.250   0.450  22.816  0.00  0.00    +0.006 A 
ATOM      7  C   UNL     1       1.284   1.004  23.427  0.00  0.00    +0.054 A 
ATOM      8  C   UNL     1       2.013   1.219  23.749  0.00  0.00    +0.006 A 
ATOM      9  C   UNL     1       2.708   0.880  23.460  0.00  0.00    +0.015 A 
BRANCH   4   2
ATOM      1  C   UNL     1       3.699  -0.666  22.943  0.00  0.00    +0.112 C 
ATOM      2  N   UNL     1       3.369  -0.013  22.561  0.00  0.00    -0.304 N 
ATOM      3  C   UNL     1       3.734   0.302  21.891  0.00  0.00    +0.112 C 
ENDBRANCH   4   2
ENDBRANCH  10   7
BRANCH  34  35
ATOM     35  C   UNL     1      -2.579  -1.869  24.575  0.00  0.00    +0.097 C 
ATOM     36  C   UNL     1      -2.624  -2.221  25.320  0.00  0.00    +0.022 C 
ATOM     37  C   UNL     1      -3.269  -2.700  25.512  0.00  0.00    +0.002 C 
ATOM     38  C   UNL     1      -3.867  -2.827  24.958  0.00  0.00    +0.000 C 
ATOM     39  C   UNL     1      -3.821  -2.475  24.213  0.00  0.00    +0.002 C 
ATOM     40  C   UNL     1      -3.178  -1.997  24.022  0.00  0.00    +0.022 C 
ENDBRANCH  34  35
BRANCH  16  18
ATOM     18  C   UNL     1      -2.088   1.063  24.675  0.00  0.00    +0.262 C 
ATOM     19  O   UNL     1      -2.501   0.697  25.287  0.00  0.00    -0.271 OA
ATOM     20  N   UNL     1      -2.368   1.767  24.351  0.00  0.00    -0.196 NA
BRANCH  20  21
ATOM     21  C   UNL     1      -3.063   2.105  24.639  0.00  0.00    +0.174 C 
BRANCH  21  29
ATOM     29  C   UNL     1      -3.773   2.001  24.233  0.00  0.00    +0.281 C 
ATOM     30  N   UNL     1      -4.460   1.804  24.645  0.00  0.00    -0.086 NA
ATOM     31  O   UNL     1      -3.796   2.094  23.413  0.00  0.00    -0.270 OA
ENDBRANCH  21  29
BRANCH  21  22
ATOM     22  C   UNL     1      -3.048   2.550  25.335  0.00  0.00    +0.031 C 
BRANCH  22  23
ATOM     23  C   UNL     1      -2.746   3.317  25.328  0.00  0.00    +0.002 C 
ATOM     24  C   UNL     1      -3.103   3.896  24.862  0.00  0.00    +0.000 C 
ATOM     25  C   UNL     1      -2.800   4.665  24.855  0.00  0.00    +0.000 C 
ATOM     26  C   UNL     1      -2.142   4.853  25.314  0.00  0.00    +0.000 C 
ATOM     27  C   UNL     1      -1.784   4.273  25.780  0.00  0.00    +0.000 C 
ATOM     28  C   UNL     1      -2.086   3.505  25.787  0.00  0.00    +0.000 C 
ENDBRANCH  22  23
ENDBRANCH  21  22
ENDBRANCH  20  21
ENDBRANCH  16  18
TORSDOF 8
ENDMDL
MODEL 4
REMARK VINA RESULT:      -7.7      1.262      4.641
REMARK  Name = 
REMARK  8 active torsions:
REMARK  status: ('A' for Active; 'I' for Inactive)
REMARK    1  A    between atoms: N_2  and  C_4
REMARK    2  A    between atoms: C_7  and  C_10
REMARK    3  A    between atoms: C_16  and  C_18
REMARK    4  A    between atoms: N_20  and  C_21
REMARK    5  A    between atoms: C_21  and  C_22
REMARK    6  A    between atoms: C_21  and  C_29
REMARK    7  A    between atoms: C_22  and  C_23
REMARK    8  A    between atoms: N_34  and  C_35
REMARK                            x       y       z     vdW  Elec       q    Type
REMARK                         _______ _______ _______ _____ _____    ______ ____
ROOT
ATOM     10  C   UNL     1      -1.829   2.156  25.241  0.00  0.00    +0.249 C 
ATOM     11  O   UNL     1      -2.421   1.762  25.661  0.00  0.00    -0.270 OA
ATOM     12  N   UNL     1      -1.254   1.724  24.836  0.00  0.00    -0.272 N 
ATOM     13  C   UNL     1      -0.663   2.118  24.416  0.00  0.00    +0.115 C 
ATOM     14  C   UNL     1      -0.088   1.686  24.012  0.00  0.00    +0.117 C 
ATOM     15  N   UNL     1      -0.104   0.862  24.027  0.00  0.00    -0.253 N 
ATOM     16  C   UNL     1      -0.695   0.468  24.447  0.00  0.00    +0.175 C 
ATOM     17  C   UNL     1      -1.270   0.900  24.851  0.00  0.00    +0.123 C 
ATOM     32  C   UNL     1       0.471   0.430  23.622  0.00  0.00    +0.324 C 
ATOM     33  O   UNL     1       0.455  -0.395  23.638  0.00  0.00    -0.251 OA
ATOM     34  N   UNL     1       1.062   0.824  23.202  0.00  0.00    -0.190 NA
ENDROOT
BRANCH  10   7
ATOM      4  C   UNL     1      -1.781   4.630  25.195  0.00  0.00    +0.048 A 
ATOM      5  C   UNL     1      -2.299   4.219  24.701  0.00  0.00    +0.015 A 
ATOM      6  C   UNL     1      -2.315   3.393  24.717  0.00  0.00    +0.006 A 
ATOM      7  C   UNL     1      -1.813   2.981  25.226  0.00  0.00    +0.054 A 
ATOM      8  C   UNL     1      -1.295   3.392  25.719  0.00  0.00    +0.006 A 
ATOM      9  C   UNL     1      -1.279   4.218  25.704  0.00  0.00    +0.015 A 
BRANCH   4   2
ATOM      1  C   UNL     1      -2.399   5.886  25.484  0.00  0.00    +0.112 C 
ATOM      2  N   UNL     1      -1.765   5.455  25.179  0.00  0.00    -0.304 N 
ATOM      3  C   UNL     1      -1.114   5.849  24.859  0.00  0.00    +0.112 C 
ENDBRANCH   4   2
ENDBRANCH  10   7
BRANCH  34  35
ATOM     35  C   UNL     1       1.637   0.392  22.797  0.00  0.00    +0.097 C 
ATOM     36  C   UNL     1       2.413   0.374  23.079  0.00  0.00    +0.022 C 
ATOM     37  C   UNL     1       2.988  -0.058  22.674  0.00  0.00    +0.002 C 
ATOM     38  C   UNL     1       2.788  -0.471  21.989  0.00  0.00    +0.000 C 
ATOM     39  C   UNL     1       2.012  -0.452  21.708  0.00  0.00    +0.002 C 
ATOM     40  C   UNL     1       1.437  -0.021  22.112  0.00  0.00    +0.022 C 
ENDBRANCH  34  35
BRANCH  16  18
ATOM     18  C   UNL     1      -0.711  -0.356  24.462  0.00  0.00    +0.262 C 
ATOM     19  O   UNL     1      -0.067  -0.786  24.181  0.00  0.00    -0.271 OA
ATOM     20  N   UNL     1      -1.372  -0.750  24.759  0.00  0.00    -0.196 NA
BRANCH  20  21
ATOM     21  C   UNL     1      -1.388  -1.575  24.775  0.00  0.00    +0.174 C 
BRANCH  21  29
ATOM     29  C   UNL     1      -1.012  -1.984  25.384  0.00  0.00    +0.281 C 
ATOM     30  N   UNL     1      -0.578  -2.665  25.217  0.00  0.00    -0.086 NA
ATOM     31  O   UNL     1      -1.070  -1.710  26.160  0.00  0.00    -0.270 OA
ENDBRANCH  21  29
BRANCH  21  22
ATOM     22  C   UNL     1      -1.782  -1.991  24.180  0.00  0.00    +0.031 C 
BRANCH  22  23
ATOM     23  C   UNL     1      -2.602  -2.076  24.209  0.00  0.00    +0.002 C 
ATOM     24  C   UNL     1      -2.935  -2.746  24.554  0.00  0.00    +0.000 C 
ATOM     25  C   UNL     1      -3.756  -2.831  24.583  0.00  0.00    +0.000 C 
ATOM     26  C   UNL     1      -4.242  -2.245  24.266  0.00  0.00    +0.000 C 
ATOM     27  C   UNL     1      -3.909  -1.574  23.920  0.00  0.00    +0.000 C 
ATOM     28  C   UNL     1      -3.088  -1.489  23.892  0.00  0.00    +0.000 C 
ENDBRANCH  22  23
ENDBRANCH  21  22
ENDBRANCH  20  21
ENDBRANCH  16  18
TORSDOF 8
ENDMDL
MODEL 5
REMARK VINA RESULT:      -7.5      2.673      4.635
REMARK  Name = 
REMARK  8 active torsions:
REMARK  status: ('A' for Active; 'I' for Inactive)
REMARK    1  A    between atoms: N_2  and  C_4
REMARK    2  A    between atoms: C_7  and  C_10
REMARK    3  A    between atoms: C_16  and  C_18
REMARK    4  A    between atoms: N_20  and  C_21
REMARK    5  A    between atoms: C_21  and  C_22
REMARK    6  A    between atoms: C_21  and  C_29
REMARK    7  A    between atoms: C_22  and  C_23
REMARK    8  A    between atoms: N_34  and  C_35
REMARK                            x       y       z     vdW  Elec       q    Type
REMARK                         _______ _______ _______ _____ _____    ______ ____
ROOT
ATOM     10  C   UNL     1      -0.337   2.731  26.316  0.00  0.00    +0.249 C 
ATOM     11  O   UNL     1      -0.501   3.467  25.979  0.00  0.00    -0.270 OA
ATOM     12  N   UNL     1      -0.698   2.051  26.016  0.00  0.00    -0.272 N 
ATOM     13  C   UNL     1      -0.534   1.316  26.353  0.00  0.00    +0.115 C 
ATOM     14  C   UNL     1      -0.894   0.637  26.054  0.00  0.00    +0.117 C 
ATOM     15  N   UNL     1      -1.417   0.693  25.419  0.00  0.00    -0.253 N 
ATOM     16  C   UNL     1      -1.580   1.428  25.082  0.00  0.00    +0.175 C 
ATOM     17  C   UNL     1      -1.220   2.107  25.382  0.00  0.00    +0.123 C 
ATOM     32  C   UNL     1      -1.777   0.013  25.120  0.00  0.00    +0.324 C 
ATOM     33  O   UNL     1      -2.300   0.069  24.484  0.00  0.00    -0.251 OA
ATOM     34  N   UNL     1      -1.613  -0.722  25.457  0.00  0.00    -0.190 NA
ENDROOT
BRANCH  10   7
ATOM      4  C   UNL     1       1.232   2.563  28.222  0.00  0.00    +0.048 A 
ATOM      5  C   UNL     1       1.523   2.681  27.458  0.00  0.00    +0.015 A 
ATOM      6  C   UNL     1       0.999   2.737  26.822  0.00  0.00    +0.006 A 
ATOM      7  C   UNL     1       0.186   2.675  26.951  0.00  0.00    +0.054 A 
ATOM      8  C   UNL     1      -0.104   2.557  27.715  0.00  0.00    +0.006 A 
ATOM      9  C   UNL     1       0.420   2.501  28.351  0.00  0.00    +0.015 A 
BRANCH   4   2
ATOM      1  C   UNL     1       1.496   2.205  29.580  0.00  0.00    +0.112 C 
ATOM      2  N   UNL     1       1.756   2.507  28.857  0.00  0.00    -0.304 N 
ATOM      3  C   UNL     1       2.539   2.754  28.770  0.00  0.00    +0.112 C 
ENDBRANCH   4   2
ENDBRANCH  10   7
BRANCH  34  35
ATOM     35  C   UNL     1      -1.974  -1.402  25.157  0.00  0.00    +0.097 C 
ATOM     36  C   UNL     1      -1.556  -1.900  24.650  0.00  0.00    +0.022 C 
ATOM     37  C   UNL     1      -1.916  -2.580  24.350  0.00  0.00    +0.002 C 
ATOM     38  C   UNL     1      -2.693  -2.761  24.559  0.00  0.00    +0.000 C 
ATOM     39  C   UNL     1      -3.111  -2.262  25.067  0.00  0.00    +0.002 C 
ATOM     40  C   UNL     1      -2.751  -1.583  25.366  0.00  0.00    +0.022 C 
ENDBRANCH  34  35
BRANCH  16  18
ATOM     18  C   UNL     1      -2.104   1.484  24.447  0.00  0.00    +0.262 C 
ATOM     19  O   UNL     1      -1.954   1.066  23.752  0.00  0.00    -0.271 OA
ATOM     20  N   UNL     1      -2.776   1.957  24.507  0.00  0.00    -0.196 NA
BRANCH  20  21
ATOM     21  C   UNL     1      -3.299   2.013  23.872  0.00  0.00    +0.174 C 
BRANCH  21  29
ATOM     29  C   UNL     1      -3.095   2.456  23.206  0.00  0.00    +0.281 C 
ATOM     30  N   UNL     1      -3.115   2.109  22.458  0.00  0.00    -0.086 NA
ATOM     31  O   UNL     1      -2.870   3.245  23.290  0.00  0.00    -0.270 OA
ENDBRANCH  21  29
BRANCH  21  22
ATOM     22  C   UNL     1      -4.028   1.626  23.902  0.00  0.00    +0.031 C 
BRANCH  22  23
ATOM     23  C   UNL     1      -4.603   1.871  24.441  0.00  0.00    +0.002 C 
ATOM     24  C   UNL     1      -4.743   2.674  24.558  0.00  0.00    +0.000 C 
ATOM     25  C   UNL     1      -5.319   2.919  25.097  0.00  0.00    +0.000 C 
ATOM     26  C   UNL     1      -5.753   2.359  25.518  0.00  0.00    +0.000 C 
ATOM     27  C   UNL     1      -5.613   1.554  25.401  0.00  0.00    +0.000 C 
ATOM     28  C   UNL     1      -5.037   1.309  24.862  0.00  0.00    +0.000 C 
ENDBRANCH  22  23
ENDBRANCH  21  22
ENDBRANCH  20  21
ENDBRANCH  16  18
TORSDOF 8
ENDMDL
