MODEL 1
REMARK VINA RESULT:     -13.8      0.000      0.000
REMARK  Name = 
REMARK  4 active torsions:
REMARK  status: ('A' for Active; 'I' for Inactive)
REMARK    1  A    between atoms: C_5  and  C_8
REMARK    2  A    between atoms: C_11  and  C_13
REMARK    3  A    between atoms: N_16  and  C_17
REMARK    4  A    between atoms: C_17  and  C_18
REMARK                            x       y       z     vdW  Elec       q    Type
REMARK                         _______ _______ _______ _____ _____    ______ ____
ROOT
ATOM     13  C   UNL     1      -4.395   2.014  25.043  0.00  0.00    +0.096 C 
ATOM     14  C   UNL     1      -5.173   1.822  25.242  0.00  0.00    +0.028 C 
ATOM     15  C   UNL     1      -5.312   1.044  25.007  0.00  0.00    +0.073 C 
ATOM     16  N   UNL     1      -4.621   0.754  24.663  0.00  0.00    -0.268 NA
ATOM     27  C   UNL     1      -4.054   1.354  24.686  0.00  0.00    +0.082 C 
ENDROOT
BRANCH  13  11
ATOM      8  C   UNL     1      -3.103   3.703  25.229  0.00  0.00    +0.250 A 
ATOM      9  N   UNL     1      -3.803   4.002  25.546  0.00  0.00    -0.107 NA
ATOM     10  N   UNL     1      -4.373   3.406  25.515  0.00  0.00    -0.111 NA
ATOM     11  C   UNL     1      -4.025   2.738  25.179  0.00  0.00    +0.227 A 
ATOM     12  O   UNL     1      -3.240   2.921  25.002  0.00  0.00    -0.419 OA
BRANCH   8   5
ATOM      1 CL   UNL     1      -0.257   5.343  24.922  0.00  0.00    -0.082 Cl
ATOM      2  C   UNL     1      -0.968   4.933  24.999  0.00  0.00    +0.058 A 
ATOM      3  C   UNL     1      -1.683   5.345  24.999  0.00  0.00    +0.012 A 
ATOM      4  C   UNL     1      -2.395   4.934  25.076  0.00  0.00    +0.006 A 
ATOM      5  C   UNL     1      -2.392   4.113  25.152  0.00  0.00    +0.055 A 
ATOM      6  C   UNL     1      -1.676   3.702  25.152  0.00  0.00    +0.006 A 
ATOM      7  C   UNL     1      -0.965   4.111  25.075  0.00  0.00    +0.012 A 
ENDBRANCH   8   5
ENDBRANCH  13  11
BRANCH  16  17
ATOM     17  C   UNL     1      -4.514  -0.002  24.351  0.00  0.00    +0.101 C 
BRANCH  17  18
ATOM     18  C   UNL     1      -4.104  -0.573  24.782  0.00  0.00    +0.014 A 
ATOM     19  C   UNL     1      -3.756  -0.464  25.523  0.00  0.00    +0.096 A 
ATOM     20  N   UNL     1      -3.407  -1.176  25.748  0.00  0.00    -0.244 NA
ATOM     21  C   UNL     1      -3.540  -1.726  25.147  0.00  0.00    +0.081 A 
ATOM     22  C   UNL     1      -3.971  -1.353  24.551  0.00  0.00    +0.016 A 
ATOM     23  C   UNL     1      -4.185  -1.773  23.874  0.00  0.00    +0.001 A 
ATOM     24  C   UNL     1      -3.970  -2.564  23.793  0.00  0.00    +0.000 A 
ATOM     25  C   UNL     1      -3.539  -2.937  24.389  0.00  0.00    +0.002 A 
ATOM     26  C   UNL     1      -3.323  -2.519  25.067  0.00  0.00    +0.019 A 
ENDBRANCH  17  18
ENDBRANCH  16  17
TORSDOF 4
ENDMDL
MODEL 2
REMARK VINA RESULT:     -13.3      1.854      2.466
REMARK  Name = 
REMARK  4 active torsions:
REMARK  status: ('A' for Active; 'I' for Inactive)
REMARK    1  A    between atoms: C_5  and  C_8
REMARK    2  A    between atoms: C_11  and  C_13
REMARK    3  A    between atoms: N_16  and  C_17
REMARK    4  A    between atoms: C_17  and  C_18
REMARK                            x       y       z     vdW  Elec       q    Type
REMARK                         _______ _______ _______ _____ _____    ______ ____
ROOT
ATOM     13  C   UNL     1      -1.034   0.746  25.309  0.00  0.00    +0.096 C 
ATOM     14  C   UNL     1      -0.588   0.218  24.859  0.00  0.00    +0.028 C 
ATOM     15  C   UNL     1      -0.991  -0.501  24.834  0.00  0.00    +0.073 C 
ATOM     16  N   UNL     1      -1.687  -0.418  25.269  0.00  0.00    -0.268 NA
ATOM     27  C   UNL     1      -1.712   0.353  25.563  0.00  0.00    +0.082 C 
ENDROOT
BRANCH  13  11
ATOM      8  C   UNL     1      -0.850   2.864  25.507  0.00  0.00    +0.250 A 
ATOM      9  N   UNL     1      -0.209   2.605  25.958  0.00  0.00    -0.107 NA
ATOM     10  N   UNL     1      -0.200   1.780  25.939  0.00  0.00    -0.111 NA
ATOM     11  C   UNL     1      -0.835   1.529  25.476  0.00  0.00    +0.227 A 
ATOM     12  O   UNL     1      -1.236   2.198  25.209  0.00  0.00    -0.419 OA
BRANCH   8   5
ATOM      1 CL   UNL     1      -1.714   6.005  24.985  0.00  0.00    -0.082 Cl
ATOM      2  C   UNL     1      -1.498   5.220  25.115  0.00  0.00    +0.058 A 
ATOM      3  C   UNL     1      -1.995   4.721  25.545  0.00  0.00    +0.012 A 
ATOM      4  C   UNL     1      -1.779   3.935  25.675  0.00  0.00    +0.006 A 
ATOM      5  C   UNL     1      -1.065   3.649  25.376  0.00  0.00    +0.055 A 
ATOM      6  C   UNL     1      -0.568   4.148  24.947  0.00  0.00    +0.006 A 
ATOM      7  C   UNL     1      -0.784   4.933  24.816  0.00  0.00    +0.012 A 
ENDBRANCH   8   5
ENDBRANCH  13  11
BRANCH  16  17
ATOM     17  C   UNL     1      -2.257  -1.003  25.390  0.00  0.00    +0.101 C 
BRANCH  17  18
ATOM     18  C   UNL     1      -2.923  -1.036  24.906  0.00  0.00    +0.014 A 
ATOM     19  C   UNL     1      -3.343  -0.388  24.614  0.00  0.00    +0.096 A 
ATOM     20  N   UNL     1      -3.967  -0.675  24.156  0.00  0.00    -0.244 NA
ATOM     21  C   UNL     1      -3.932  -1.499  24.165  0.00  0.00    +0.081 A 
ATOM     22  C   UNL     1      -3.287  -1.722  24.629  0.00  0.00    +0.016 A 
ATOM     23  C   UNL     1      -3.115  -2.521  24.738  0.00  0.00    +0.001 A 
ATOM     24  C   UNL     1      -3.587  -3.097  24.384  0.00  0.00    +0.000 A 
ATOM     25  C   UNL     1      -4.232  -2.874  23.920  0.00  0.00    +0.002 A 
ATOM     26  C   UNL     1      -4.405  -2.075  23.810  0.00  0.00    +0.019 A 
ENDBRANCH  17  18
ENDBRANCH  16  17
TORSDOF 4
ENDMDL
MODEL 3
REMARK VINA RESULT:     -13.2      2.002      5.635
REMARK  Name = 
REMARK  4 active torsions:
REMARK  status: ('A' for Active; 'I' for Inactive)
REMARK    1  A    between atoms: C_5  and  C_8
REMARK    2  A    between atoms: C_11  and  C_13
REMARK    3  A    between atoms: N_16  and  C_17
REMARK    4  A    between atoms: C_17  and  C_18
REMARK                            x       y       z     vdW  Elec       q    Type
REMARK                         _______ _______ _______ _____ _____    ______ ____
ROOT
ATOM     13  C   UNL     1      -4.102   1.946  24.792  0.00  0.00    +0.096 C 
ATOM     14  C   UNL     1      -4.340   2.525  24.254  0.00  0.00    +0.028 C 
ATOM     15  C   UNL     1      -3.954   3.227  24.448  0.00  0.00    +0.073 C 
ATOM     16  N   UNL     1      -3.478   3.084  25.106  0.00  0.00    -0.268 NA
ATOM     27  C   UNL     1      -3.569   2.292  25.318  0.00  0.00    +0.082 C 
ENDROOT
BRANCH  13  11
ATOM      8  C   UNL     1      -4.352  -0.174  24.739  0.00  0.00    +0.250 A 
ATOM      9  N   UNL     1      -5.124   0.075  24.893  0.00  0.00    -0.107 NA
ATOM     10  N   UNL     1      -5.124   0.899  24.932  0.00  0.00    -0.111 NA
ATOM     11  C   UNL     1      -4.353   1.160  24.802  0.00  0.00    +0.227 A 
ATOM     12  O   UNL     1      -3.876   0.498  24.683  0.00  0.00    -0.419 OA
BRANCH   8   5
ATOM      1 CL   UNL     1      -3.347  -3.299  24.409  0.00  0.00    -0.082 Cl
ATOM      2  C   UNL     1      -3.599  -2.518  24.491  0.00  0.00    +0.058 A 
ATOM      3  C   UNL     1      -3.414  -2.096  25.176  0.00  0.00    +0.012 A 
ATOM      4  C   UNL     1      -3.666  -1.314  25.259  0.00  0.00    +0.006 A 
ATOM      5  C   UNL     1      -4.101  -0.955  24.657  0.00  0.00    +0.055 A 
ATOM      6  C   UNL     1      -4.285  -1.378  23.972  0.00  0.00    +0.006 A 
ATOM      7  C   UNL     1      -4.034  -2.158  23.890  0.00  0.00    +0.012 A 
ENDBRANCH   8   5
ENDBRANCH  13  11
BRANCH  16  17
ATOM     17  C   UNL     1      -2.995   3.635  25.485  0.00  0.00    +0.101 C 
BRANCH  17  18
ATOM     18  C   UNL     1      -2.186   3.656  25.324  0.00  0.00    +0.014 A 
ATOM     19  C   UNL     1      -1.681   3.003  25.294  0.00  0.00    +0.096 A 
ATOM     20  N   UNL     1      -0.923   3.276  25.116  0.00  0.00    -0.244 NA
ATOM     21  C   UNL     1      -0.960   4.096  25.036  0.00  0.00    +0.081 A 
ATOM     22  C   UNL     1      -1.740   4.330  25.164  0.00  0.00    +0.016 A 
ATOM     23  C   UNL     1      -1.943   5.129  25.119  0.00  0.00    +0.001 A 
ATOM     24  C   UNL     1      -1.367   5.692  24.946  0.00  0.00    +0.000 A 
ATOM     25  C   UNL     1      -0.586   5.458  24.818  0.00  0.00    +0.002 A 
ATOM     26  C   UNL     1      -0.382   4.660  24.863  0.00  0.00    +0.019 A 
ENDBRANCH  17  18
ENDBRANCH  16  17
TORSDOF 4
ENDMDL
MODEL 4
REMARK VINA RESULT:     -12.5      2.601      6.104
REMARK  Name = 
REMARK  4 active torsions:
REMARK  status: ('A' for Active; 'I' for Inactive)
REMARK    1  A    between atoms: C_5  and  C_8
REMARK    2  A    between atoms: C_11  and  C_13
REMARK    3  A    between atoms: N_16  and  C_17
REMARK    4  A    between atoms: C_17  and  C_18
REMARK                            x       y       z     vdW  Elec       q    Type
REMARK                         _______ _______ _______ _____ _____    ______ ____
ROOT
ATOM     13  C   UNL     1      -0.774   0.656  24.912  0.00  0.00    +0.096 C 
ATOM     14  C   UNL     1      -0.238   0.893  24.331  0.00  0.00    +0.028 C 
ATOM     15  C   UNL     1      -0.008   1.667  24.497  0.00  0.00    +0.073 C 
ATOM     16  N   UNL     1      -0.400   1.910  25.180  0.00  0.00    -0.268 NA
ATOM     27  C   UNL     1      -0.874   1.284  25.437  0.00  0.00    +0.082 C 
ENDROOT
BRANCH  13  11
ATOM      8  C   UNL     1      -2.024  -1.071  24.796  0.00  0.00    +0.250 A 
ATOM      9  N   UNL     1      -1.407  -1.352  25.266  0.00  0.00    -0.107 NA
ATOM     10  N   UNL     1      -0.863  -0.739  25.367  0.00  0.00    -0.111 NA
ATOM     11  C   UNL     1      -1.144  -0.080  24.959  0.00  0.00    +0.227 A 
ATOM     12  O   UNL     1      -1.861  -0.284  24.606  0.00  0.00    -0.419 OA
BRANCH   8   5
ATOM      1 CL   UNL     1      -4.675  -2.788  23.842  0.00  0.00    -0.082 Cl
ATOM      2  C   UNL     1      -4.012  -2.359  24.081  0.00  0.00    +0.058 A 
ATOM      3  C   UNL     1      -4.020  -1.535  24.044  0.00  0.00    +0.012 A 
ATOM      4  C   UNL     1      -3.357  -1.106  24.283  0.00  0.00    +0.006 A 
ATOM      5  C   UNL     1      -2.686  -1.500  24.558  0.00  0.00    +0.055 A 
ATOM      6  C   UNL     1      -2.679  -2.325  24.593  0.00  0.00    +0.006 A 
ATOM      7  C   UNL     1      -3.341  -2.754  24.355  0.00  0.00    +0.012 A 
ENDBRANCH   8   5
ENDBRANCH  13  11
BRANCH  16  17
ATOM     17  C   UNL     1      -0.331   2.647  25.544  0.00  0.00    +0.101 C 
BRANCH  17  18
ATOM     18  C   UNL     1      -0.988   3.142  25.601  0.00  0.00    +0.014 A 
ATOM     19  C   UNL     1      -1.720   2.941  25.927  0.00  0.00    +0.096 A 
ATOM     20  N   UNL     1      -2.213   3.600  25.870  0.00  0.00    -0.244 NA
ATOM     21  C   UNL     1      -1.788   4.206  25.509  0.00  0.00    +0.081 A 
ATOM     22  C   UNL     1      -1.031   3.924  25.343  0.00  0.00    +0.016 A 
ATOM     23  C   UNL     1      -0.478   4.416  24.977  0.00  0.00    +0.001 A 
ATOM     24  C   UNL     1      -0.682   5.189  24.778  0.00  0.00    +0.000 A 
ATOM     25  C   UNL     1      -1.439   5.472  24.944  0.00  0.00    +0.002 A 
ATOM     26  C   UNL     1      -1.992   4.981  25.310  0.00  0.00    +0.019 A 
ENDBRANCH  17  18
ENDBRANCH  16  17
TORSDOF 4
ENDMDL
