MODEL 1
REMARK VINA RESULT:     -12.7      0.000      0.000
REMARK  Name = 
REMARK  8 active torsions:
REMARK  status: ('A' for Active; 'I' for Inactive)
REMARK    1  A    between atoms: O_2  and  C_3
REMARK    2  A    between atoms: C_6  and  C_7
REMARK    3  A    between atoms: C_7  and  N_8
REMARK    4  A    between atoms: C_9  and  C_11
REMARK    5  A    between atoms: C_11  and  C_13
REMARK    6  A    between atoms: C_20  and  N_21
REMARK    7  A    between atoms: C_22  and  C_24
REMARK    8  A    between atoms: C_24  and  C_25
REMARK                            x       y       z     vdW  Elec       q    Type
REMARK                         _______ _______ _______ _____ _____    ______ ____
ROOT
ATOM     13  C   UNL     1      -0.238   1.937  25.181  0.00  0.00    +0.039 C 
ATOM     14  C   UNL     1       0.146   1.935  24.451  0.00  0.00    +0.003 C 
ATOM     15  C   UNL     1       0.153   1.251  23.991  0.00  0.00    +0.000 C 
ATOM     16  C   UNL     1      -0.225   0.568  24.260  0.00  0.00    +0.002 C 
ATOM     17  C   UNL     1       0.159   0.566  23.530  0.00  0.00    +0.000 C 
ATOM     18  C   UNL     1      -0.218  -0.116  23.801  0.00  0.00    +0.002 C 
ATOM     19  C   UNL     1      -0.596  -0.799  24.070  0.00  0.00    +0.022 C 
ATOM     20  C   UNL     1      -0.980  -0.796  24.800  0.00  0.00    +0.095 C 
ATOM     29  C   UNL     1      -0.986  -0.111  25.261  0.00  0.00    +0.022 C 
ATOM     30  C   UNL     1      -1.370  -0.109  25.990  0.00  0.00    +0.002 C 
ATOM     31  C   UNL     1      -0.609   0.571  24.991  0.00  0.00    +0.032 C 
ATOM     32  C   UNL     1      -0.615   1.256  25.451  0.00  0.00    +0.152 C 
ATOM     33  O   UNL     1      -0.999   1.258  26.181  0.00  0.00    -0.223 OA
ENDROOT
BRANCH  20  21
ATOM     21  N   UNL     1      -1.357  -1.478  25.070  0.00  0.00    -0.207 NA
ATOM     22  C   UNL     1      -2.010  -1.777  24.662  0.00  0.00    +0.241 C 
ATOM     23  O   UNL     1      -2.284  -1.394  23.984  0.00  0.00    -0.273 OA
BRANCH  22  24
ATOM     24  C   UNL     1      -2.388  -2.459  24.932  0.00  0.00    +0.087 C 
BRANCH  24  25
ATOM     25  C   UNL     1      -3.112  -2.684  24.608  0.00  0.00    +0.009 C 
ATOM     26  C   UNL     1      -3.836  -2.909  24.283  0.00  0.00    +0.000 C 
ATOM     27  C   UNL     1      -2.717  -3.105  24.019  0.00  0.00    +0.000 C 
ATOM     28  C   UNL     1      -3.508  -2.263  25.197  0.00  0.00    +0.000 C 
ENDBRANCH  24  25
ENDBRANCH  22  24
ENDBRANCH  20  21
BRANCH  13  11
ATOM     11  C   UNL     1      -0.244   2.622  25.642  0.00  0.00    +0.081 C 
ATOM     12  C   UNL     1       0.198   2.656  26.336  0.00  0.00    +0.010 C 
BRANCH  11   9
ATOM      8  N   UNL     1      -1.493   3.315  25.609  0.00  0.00    -0.201 NA
ATOM      9  C   UNL     1      -0.694   3.273  25.407  0.00  0.00    +0.241 C 
ATOM     10  O   UNL     1      -0.346   3.880  24.970  0.00  0.00    -0.273 OA
BRANCH   8   7
ATOM      7  C   UNL     1      -1.943   3.966  25.374  0.00  0.00    +0.141 C 
BRANCH   7   6
ATOM      3  C   UNL     1      -4.414   3.831  25.396  0.00  0.00    +0.139 A 
ATOM      4  C   UNL     1      -4.002   3.961  26.098  0.00  0.00    +0.037 A 
ATOM      5  C   UNL     1      -3.179   4.006  26.091  0.00  0.00    +0.001 A 
ATOM      6  C   UNL     1      -2.768   3.921  25.381  0.00  0.00    -0.000 A 
ATOM     34  C   UNL     1      -3.180   3.790  24.679  0.00  0.00    +0.001 A 
ATOM     35  C   UNL     1      -4.003   3.745  24.686  0.00  0.00    +0.037 A 
BRANCH   3   2
ATOM      1  C   UNL     1      -5.612   3.092  25.649  0.00  0.00    +0.252 C 
ATOM      2  O   UNL     1      -5.238   3.786  25.403  0.00  0.00    -0.471 OA
ENDBRANCH   3   2
ENDBRANCH   7   6
ENDBRANCH   8   7
ENDBRANCH  11   9
ENDBRANCH  13  11
TORSDOF 8
ENDMDL
MODEL 2
REMARK VINA RESULT:     -12.0      1.874      3.728
REMARK  Name = 
REMARK  8 active torsions:
REMARK  status: ('A' for Active; 'I' for Inactive)
REMARK    1  A    between atoms: O_2  and  C_3
REMARK    2  A    between atoms: C_6  and  C_7
REMARK    3  A    between atoms: C_7  and  N_8
REMARK    4  A    between atoms: C_9  and  C_11
REMARK    5  A    between atoms: C_11  and  C_13
REMARK    6  A    between atoms: C_20  and  N_21
REMARK    7  A    between atoms: C_22  and  C_24
REMARK    8  A    between atoms: C_24  and  C_25
REMARK                            x       y       z     vdW  Elec       q    Type
REMARK                         _______ _______ _______ _____ _____    ______ ____
ROOT
ATOM     13  C   UNL     1      -4.290   2.876  24.468  0.00  0.00    +0.039 C 
ATOM     14  C   UNL     1      -4.886   2.830  25.036  0.00  0.00    +0.003 C 
ATOM     15  C   UNL     1      -5.186   2.096  25.261  0.00  0.00    +0.000 C 
ATOM     16  C   UNL     1      -4.890   1.406  24.917  0.00  0.00    +0.002 C 
ATOM     17  C   UNL     1      -5.486   1.360  25.485  0.00  0.00    +0.000 C 
ATOM     18  C   UNL     1      -5.190   0.672  25.142  0.00  0.00    +0.002 C 
ATOM     19  C   UNL     1      -4.893  -0.018  24.798  0.00  0.00    +0.022 C 
ATOM     20  C   UNL     1      -4.297   0.028  24.230  0.00  0.00    +0.095 C 
ATOM     29  C   UNL     1      -3.997   0.764  24.005  0.00  0.00    +0.022 C 
ATOM     30  C   UNL     1      -3.401   0.810  23.438  0.00  0.00    +0.002 C 
ATOM     31  C   UNL     1      -4.293   1.452  24.349  0.00  0.00    +0.032 C 
ATOM     32  C   UNL     1      -3.993   2.188  24.124  0.00  0.00    +0.152 C 
ATOM     33  O   UNL     1      -3.397   2.234  23.557  0.00  0.00    -0.223 OA
ENDROOT
BRANCH  20  21
ATOM     21  N   UNL     1      -4.000  -0.660  23.886  0.00  0.00    -0.207 NA
ATOM     22  C   UNL     1      -3.757  -1.288  24.364  0.00  0.00    +0.241 C 
ATOM     23  O   UNL     1      -3.811  -1.227  25.185  0.00  0.00    -0.273 OA
BRANCH  22  24
ATOM     24  C   UNL     1      -3.461  -1.977  24.020  0.00  0.00    +0.087 C 
BRANCH  24  25
ATOM     25  C   UNL     1      -3.377  -2.660  24.475  0.00  0.00    +0.009 C 
ATOM     26  C   UNL     1      -3.294  -3.344  24.929  0.00  0.00    +0.000 C 
ATOM     27  C   UNL     1      -4.108  -2.930  24.203  0.00  0.00    +0.000 C 
ATOM     28  C   UNL     1      -2.646  -2.391  24.747  0.00  0.00    +0.000 C 
ENDBRANCH  24  25
ENDBRANCH  22  24
ENDBRANCH  20  21
BRANCH  13  11
ATOM     11  C   UNL     1      -3.989   3.612  24.243  0.00  0.00    +0.081 C 
ATOM     12  C   UNL     1      -4.219   3.949  23.527  0.00  0.00    +0.010 C 
BRANCH  11   9
ATOM      8  N   UNL     1      -2.657   3.818  24.716  0.00  0.00    -0.201 NA
ATOM      9  C   UNL     1      -3.460   4.008  24.736  0.00  0.00    +0.241 C 
ATOM     10  O   UNL     1      -3.732   4.594  25.249  0.00  0.00    -0.273 OA
BRANCH   8   7
ATOM      7  C   UNL     1      -2.127   4.215  25.208  0.00  0.00    +0.141 C 
BRANCH   7   6
ATOM      3  C   UNL     1      -0.054   3.088  25.954  0.00  0.00    +0.139 A 
ATOM      4  C   UNL     1      -0.741   3.025  26.403  0.00  0.00    +0.037 A 
ATOM      5  C   UNL     1      -1.433   3.400  26.155  0.00  0.00    +0.001 A 
ATOM      6  C   UNL     1      -1.435   3.839  25.457  0.00  0.00    -0.000 A 
ATOM     34  C   UNL     1      -0.747   3.902  25.007  0.00  0.00    +0.001 A 
ATOM     35  C   UNL     1      -0.056   3.527  25.255  0.00  0.00    +0.037 A 
BRANCH   3   2
ATOM      1  C   UNL     1       0.656   2.317  26.926  0.00  0.00    +0.252 C 
ATOM      2  O   UNL     1       0.638   2.713  26.202  0.00  0.00    -0.471 OA
ENDBRANCH   3   2
ENDBRANCH   7   6
ENDBRANCH   8   7
ENDBRANCH  11   9
ENDBRANCH  13  11
TORSDOF 8
ENDMDL
MODEL 3
REMARK VINA RESULT:     -10.8      2.581      5.747
REMARK  Name = 
REMARK  8 active torsions:
REMARK  status: ('A' for Active; 'I' for Inactive)
REMARK    1  A    between atoms: O_2  and  C_3
REMARK    2  A    between atoms: C_6  and  C_7
REMARK    3  A    between atoms: C_7  and  N_8
REMARK    4  A    between atoms: C_9  and  C_11
REMARK    5  A    between atoms: C_11  and  C_13
REMARK    6  A    between atoms: C_20  and  N_21
REMARK    7  A    between atoms: C_22  and  C_24
REMARK    8  A    between atoms: C_24  and  C_25
REMARK                            x       y       z     vdW  Elec       q    Type
REMARK                         _______ _______ _______ _____ _____    ______ ____
ROOT
ATOM     13  C   UNL     1      -0.220   0.818  23.972  0.00  0.00    +0.039 C 
ATOM     14  C   UNL     1       0.197   1.474  24.251  0.00  0.00    +0.003 C 
ATOM     15  C   UNL     1      -0.207   2.166  24.444  0.00  0.00    +0.000 C 
ATOM     16  C   UNL     1      -1.027   2.205  24.359  0.00  0.00    +0.002 C 
ATOM     17  C   UNL     1      -0.610   2.860  24.637  0.00  0.00    +0.000 C 
ATOM     18  C   UNL     1      -1.430   2.897  24.552  0.00  0.00    +0.002 C 
ATOM     19  C   UNL     1      -2.250   2.935  24.467  0.00  0.00    +0.022 C 
ATOM     20  C   UNL     1      -2.666   2.280  24.188  0.00  0.00    +0.095 C 
ATOM     29  C   UNL     1      -2.263   1.586  23.995  0.00  0.00    +0.022 C 
ATOM     30  C   UNL     1      -2.678   0.931  23.717  0.00  0.00    +0.002 C 
ATOM     31  C   UNL     1      -1.443   1.549  24.080  0.00  0.00    +0.032 C 
ATOM     32  C   UNL     1      -1.039   0.855  23.887  0.00  0.00    +0.152 C 
ATOM     33  O   UNL     1      -1.455   0.200  23.609  0.00  0.00    -0.223 OA
ENDROOT
BRANCH  20  21
ATOM     21  N   UNL     1      -3.486   2.317  24.103  0.00  0.00    -0.207 NA
ATOM     22  C   UNL     1      -3.953   2.591  24.726  0.00  0.00    +0.241 C 
ATOM     23  O   UNL     1      -3.600   2.827  25.433  0.00  0.00    -0.273 OA
BRANCH  22  24
ATOM     24  C   UNL     1      -4.773   2.628  24.641  0.00  0.00    +0.087 C 
BRANCH  24  25
ATOM     25  C   UNL     1      -5.253   2.696  25.308  0.00  0.00    +0.009 C 
ATOM     26  C   UNL     1      -5.734   2.763  25.975  0.00  0.00    +0.000 C 
ATOM     27  C   UNL     1      -5.388   1.882  25.293  0.00  0.00    +0.000 C 
ATOM     28  C   UNL     1      -5.119   3.510  25.323  0.00  0.00    +0.000 C 
ENDBRANCH  24  25
ENDBRANCH  22  24
ENDBRANCH  20  21
BRANCH  13  11
ATOM     11  C   UNL     1       0.184   0.124  23.779  0.00  0.00    +0.081 C 
ATOM     12  C   UNL     1       0.063  -0.560  24.222  0.00  0.00    +0.010 C 
BRANCH  11   9
ATOM      8  N   UNL     1       1.522   0.141  23.279  0.00  0.00    -0.201 NA
ATOM      9  C   UNL     1       0.708   0.117  23.142  0.00  0.00    +0.241 C 
ATOM     10  O   UNL     1       0.420   0.085  22.370  0.00  0.00    -0.273 OA
BRANCH   8   7
ATOM      7  C   UNL     1       2.047   0.134  22.642  0.00  0.00    +0.141 C 
BRANCH   7   6
ATOM      3  C   UNL     1       4.482   0.299  23.047  0.00  0.00    +0.139 A 
ATOM      4  C   UNL     1       4.092  -0.416  23.170  0.00  0.00    +0.037 A 
ATOM      5  C   UNL     1       3.280  -0.471  23.036  0.00  0.00    +0.001 A 
ATOM      6  C   UNL     1       2.859   0.189  22.777  0.00  0.00    -0.000 A 
ATOM     34  C   UNL     1       3.250   0.904  22.653  0.00  0.00    +0.001 A 
ATOM     35  C   UNL     1       4.062   0.960  22.788  0.00  0.00    +0.037 A 
BRANCH   3   2
ATOM      1  C   UNL     1       5.603   0.175  23.925  0.00  0.00    +0.252 C 
ATOM      2  O   UNL     1       5.295   0.355  23.181  0.00  0.00    -0.471 OA
ENDBRANCH   3   2
ENDBRANCH   7   6
ENDBRANCH   8   7
ENDBRANCH  11   9
ENDBRANCH  13  11
TORSDOF 8
ENDMDL
MODEL 4
REMARK VINA RESULT:     -10.6      1.186      4.936
REMARK  Name = 
REMARK  8 active torsions:
REMARK  status: ('A' for Active; 'I' for Inactive)
REMARK    1  A    between atoms: O_2  and  C_3
REMARK    2  A    between atoms: C_6  and  C_7
REMARK    3  A    between atoms: C_7  and  N_8
REMARK    4  A    between atoms: C_9  and  C_11
REMARK    5  A    between atoms: C_11  and  C_13
REMARK    6  A    between atoms: C_20  and  N_21
REMARK    7  A    between atoms: C_22  and  C_24
REMARK    8  A    between atoms: C_24  and  C_25
REMARK                            x       y       z     vdW  Elec       q    Type
REMARK                         _______ _______ _______ _____ _____    ______ ____
ROOT
ATOM     13  C   UNL     1      -0.339   1.212  24.368  0.00  0.00    +0.039 C 
ATOM     14  C   UNL     1       0.074   1.500  25.022  0.00  0.00    +0.003 C 
ATOM     15  C   UNL     1      -0.230   2.131  25.456  0.00  0.00    +0.000 C 
ATOM     16  C   UNL     1      -0.948   2.475  25.239  0.00  0.00    +0.002 C 
ATOM     17  C   UNL     1      -0.534   2.762  25.892  0.00  0.00    +0.000 C 
ATOM     18  C   UNL     1      -1.252   3.106  25.674  0.00  0.00    +0.002 C 
ATOM     19  C   UNL     1      -1.970   3.450  25.456  0.00  0.00    +0.022 C 
ATOM     20  C   UNL     1      -2.383   3.162  24.803  0.00  0.00    +0.095 C 
ATOM     29  C   UNL     1      -2.079   2.530  24.367  0.00  0.00    +0.022 C 
ATOM     30  C   UNL     1      -2.492   2.243  23.714  0.00  0.00    +0.002 C 
ATOM     31  C   UNL     1      -1.361   2.187  24.585  0.00  0.00    +0.032 C 
ATOM     32  C   UNL     1      -1.057   1.555  24.150  0.00  0.00    +0.152 C 
ATOM     33  O   UNL     1      -1.470   1.268  23.497  0.00  0.00    -0.223 OA
ENDROOT
BRANCH  20  21
ATOM     21  N   UNL     1      -3.101   3.505  24.584  0.00  0.00    -0.207 NA
ATOM     22  C   UNL     1      -3.748   3.466  25.095  0.00  0.00    +0.241 C 
ATOM     23  O   UNL     1      -3.678   3.085  25.823  0.00  0.00    -0.273 OA
BRANCH  22  24
ATOM     24  C   UNL     1      -4.466   3.810  24.876  0.00  0.00    +0.087 C 
BRANCH  24  25
ATOM     25  C   UNL     1      -5.153   3.629  25.295  0.00  0.00    +0.009 C 
ATOM     26  C   UNL     1      -5.840   3.448  25.715  0.00  0.00    +0.000 C 
ATOM     27  C   UNL     1      -5.059   4.314  25.744  0.00  0.00    +0.000 C 
ATOM     28  C   UNL     1      -5.248   2.943  24.847  0.00  0.00    +0.000 C 
ENDBRANCH  24  25
ENDBRANCH  22  24
ENDBRANCH  20  21
BRANCH  13  11
ATOM     11  C   UNL     1      -0.035   0.580  23.932  0.00  0.00    +0.081 C 
ATOM     12  C   UNL     1       0.296   0.713  23.190  0.00  0.00    +0.010 C 
BRANCH  11   9
ATOM      8  N   UNL     1      -0.786  -0.579  24.299  0.00  0.00    -0.201 NA
ATOM      9  C   UNL     1      -0.063  -0.184  24.241  0.00  0.00    +0.241 C 
ATOM     10  O   UNL     1       0.631  -0.554  24.491  0.00  0.00    -0.273 OA
BRANCH   8   7
ATOM      7  C   UNL     1      -0.814  -1.343  24.608  0.00  0.00    +0.141 C 
BRANCH   7   6
ATOM      3  C   UNL     1      -2.961  -2.572  24.673  0.00  0.00    +0.139 A 
ATOM      4  C   UNL     1      -2.354  -2.828  24.178  0.00  0.00    +0.037 A 
ATOM      5  C   UNL     1      -1.638  -2.419  24.156  0.00  0.00    +0.001 A 
ATOM      6  C   UNL     1      -1.530  -1.753  24.630  0.00  0.00    -0.000 A 
ATOM     34  C   UNL     1      -2.137  -1.496  25.125  0.00  0.00    +0.001 A 
ATOM     35  C   UNL     1      -2.853  -1.905  25.147  0.00  0.00    +0.037 A 
BRANCH   3   2
ATOM      1  C   UNL     1      -4.257  -2.828  24.129  0.00  0.00    +0.252 C 
ATOM      2  O   UNL     1      -3.677  -2.981  24.695  0.00  0.00    -0.471 OA
ENDBRANCH   3   2
ENDBRANCH   7   6
ENDBRANCH   8   7
ENDBRANCH  11   9
ENDBRANCH  13  11
TORSDOF 8
ENDMDL
MODEL 5
REMARK VINA RESULT:     -10.2      2.142      4.101
REMARK  Name = 
REMARK  8 active torsions:
REMARK  status: ('A' for Active; 'I' for Inactive)
REMARK    1  A    between atoms: O_2  and  C_3
REMARK    2  A    between atoms: C_6  and  C_7
REMARK    3  A    between atoms: C_7  and  N_8
REMARK    4  A    between atoms: C_9  and  C_11
REMARK    5  A    between atoms: C_11  and  C_13
REMARK    6  A    between atoms: C_20  and  N_21
REMARK    7  A    between atoms: C_22  and  C_24
REMARK    8  A    between atoms: C_24  and  C_25
REMARK                            x       y       z     vdW  Elec       q    Type
REMARK                         _______ _______ _______ _____ _____    ______ ____
ROOT
ATOM     13  C   UNL     1      -1.415   0.268  24.889  0.00  0.00    +0.039 C 
ATOM     14  C   UNL     1      -1.372   1.048  25.155  0.00  0.00    +0.003 C 
ATOM     15  C   UNL     1      -0.738   1.525  24.932  0.00  0.00    +0.000 C 
ATOM     16  C   UNL     1      -0.146   1.224  24.443  0.00  0.00    +0.002 C 
ATOM     17  C   UNL     1      -0.104   2.004  24.709  0.00  0.00    +0.000 C 
ATOM     18  C   UNL     1       0.488   1.702  24.220  0.00  0.00    +0.002 C 
ATOM     19  C   UNL     1       1.080   1.400  23.730  0.00  0.00    +0.022 C 
ATOM     20  C   UNL     1       1.038   0.621  23.464  0.00  0.00    +0.095 C 
ATOM     29  C   UNL     1       0.403   0.142  23.688  0.00  0.00    +0.022 C 
ATOM     30  C   UNL     1       0.360  -0.637  23.422  0.00  0.00    +0.002 C 
ATOM     31  C   UNL     1      -0.188   0.444  24.177  0.00  0.00    +0.032 C 
ATOM     32  C   UNL     1      -0.823  -0.034  24.400  0.00  0.00    +0.152 C 
ATOM     33  O   UNL     1      -0.866  -0.813  24.134  0.00  0.00    -0.223 OA
ENDROOT
BRANCH  20  21
ATOM     21  N   UNL     1       1.629   0.318  22.975  0.00  0.00    -0.207 NA
ATOM     22  C   UNL     1       2.399   0.613  23.029  0.00  0.00    +0.241 C 
ATOM     23  O   UNL     1       2.576   1.209  23.571  0.00  0.00    -0.273 OA
BRANCH  22  24
ATOM     24  C   UNL     1       2.990   0.311  22.539  0.00  0.00    +0.087 C 
BRANCH  24  25
ATOM     25  C   UNL     1       3.783   0.396  22.751  0.00  0.00    +0.009 C 
ATOM     26  C   UNL     1       4.576   0.483  22.963  0.00  0.00    +0.000 C 
ATOM     27  C   UNL     1       3.793   1.147  22.409  0.00  0.00    +0.000 C 
ATOM     28  C   UNL     1       3.774  -0.354  23.094  0.00  0.00    +0.000 C 
ENDBRANCH  24  25
ENDBRANCH  22  24
ENDBRANCH  20  21
BRANCH  13  11
ATOM     11  C   UNL     1      -2.049  -0.211  25.113  0.00  0.00    +0.081 C 
ATOM     12  C   UNL     1      -1.951  -0.776  25.704  0.00  0.00    +0.010 C 
BRANCH  11   9
ATOM      8  N   UNL     1      -3.305   0.462  25.000  0.00  0.00    -0.201 NA
ATOM      9  C   UNL     1      -2.782  -0.122  24.743  0.00  0.00    +0.241 C 
ATOM     10  O   UNL     1      -2.991  -0.617  24.117  0.00  0.00    -0.273 OA
BRANCH   8   7
ATOM      7  C   UNL     1      -4.037   0.551  24.631  0.00  0.00    +0.141 C 
BRANCH   7   6
ATOM      3  C   UNL     1      -5.461   2.503  25.162  0.00  0.00    +0.139 A 
ATOM      4  C   UNL     1      -5.550   1.802  25.585  0.00  0.00    +0.037 A 
ATOM      5  C   UNL     1      -5.075   1.150  25.408  0.00  0.00    +0.001 A 
ATOM      6  C   UNL     1      -4.512   1.202  24.808  0.00  0.00    -0.000 A 
ATOM     34  C   UNL     1      -4.424   1.904  24.385  0.00  0.00    +0.001 A 
ATOM     35  C   UNL     1      -4.898   2.555  24.562  0.00  0.00    +0.037 A 
BRANCH   3   2
ATOM      1  C   UNL     1      -5.592   3.857  25.601  0.00  0.00    +0.252 C 
ATOM      2  O   UNL     1      -5.936   3.155  25.339  0.00  0.00    -0.471 OA
ENDBRANCH   3   2
ENDBRANCH   7   6
ENDBRANCH   8   7
ENDBRANCH  11   9
ENDBRANCH  13  11
TORSDOF 8
ENDMDL
MODEL 6
REMARK VINA RESULT:     -10.2      1.356      4.531
REMARK  Name = 
REMARK  8 active torsions:
REMARK  status: ('A' for Active; 'I' for Inactive)
REMARK    1  A    between atoms: O_2  and  C_3
REMARK    2  A    between atoms: C_6  and  C_7
REMARK    3  A    between atoms: C_7  and  N_8
REMARK    4  A    between atoms: C_9  and  C_11
REMARK    5  A    between atoms: C_11  and  C_13
REMARK    6  A    between atoms: C_20  and  N_21
REMARK    7  A    between atoms: C_22  and  C_24
REMARK    8  A    between atoms: C_24  and  C_25
REMARK                            x       y       z     vdW  Elec       q    Type
REMARK                         _______ _______ _______ _____ _____    ______ ____
ROOT
ATOM     13  C   UNL     1      -0.534  -0.716  24.682  0.00  0.00    +0.039 C 
ATOM     14  C   UNL     1      -0.172  -0.724  23.940  0.00  0.00    +0.003 C 
ATOM     15  C   UNL     1       0.123  -0.024  23.618  0.00  0.00    +0.000 C 
ATOM     16  C   UNL     1       0.057   0.684  24.037  0.00  0.00    +0.002 C 
ATOM     17  C   UNL     1       0.418   0.676  23.296  0.00  0.00    +0.000 C 
ATOM     18  C   UNL     1       0.351   1.383  23.716  0.00  0.00    +0.002 C 
ATOM     19  C   UNL     1       0.285   2.091  24.135  0.00  0.00    +0.022 C 
ATOM     20  C   UNL     1      -0.076   2.098  24.876  0.00  0.00    +0.095 C 
ATOM     29  C   UNL     1      -0.372   1.398  25.198  0.00  0.00    +0.022 C 
ATOM     30  C   UNL     1      -0.733   1.406  25.939  0.00  0.00    +0.002 C 
ATOM     31  C   UNL     1      -0.305   0.691  24.779  0.00  0.00    +0.032 C 
ATOM     32  C   UNL     1      -0.601  -0.009  25.101  0.00  0.00    +0.152 C 
ATOM     33  O   UNL     1      -0.962  -0.002  25.842  0.00  0.00    -0.223 OA
ENDROOT
BRANCH  20  21
ATOM     21  N   UNL     1      -0.143   2.805  25.296  0.00  0.00    -0.207 NA
ATOM     22  C   UNL     1      -0.581   3.431  24.982  0.00  0.00    +0.241 C 
ATOM     23  O   UNL     1      -0.951   3.349  24.249  0.00  0.00    -0.273 OA
BRANCH  22  24
ATOM     24  C   UNL     1      -0.648   4.138  25.401  0.00  0.00    +0.087 C 
BRANCH  24  25
ATOM     25  C   UNL     1      -1.147   4.734  25.126  0.00  0.00    +0.009 C 
ATOM     26  C   UNL     1      -1.647   5.331  24.851  0.00  0.00    +0.000 C 
ATOM     27  C   UNL     1      -0.527   5.050  24.685  0.00  0.00    +0.000 C 
ATOM     28  C   UNL     1      -1.769   4.419  25.568  0.00  0.00    +0.000 C 
ENDBRANCH  24  25
ENDBRANCH  22  24
ENDBRANCH  20  21
BRANCH  13  11
ATOM     11  C   UNL     1      -0.829  -1.416  25.004  0.00  0.00    +0.081 C 
ATOM     12  C   UNL     1      -0.373  -1.850  25.536  0.00  0.00    +0.010 C 
BRANCH  11   9
ATOM      8  N   UNL     1      -2.250  -1.262  25.039  0.00  0.00    -0.201 NA
ATOM      9  C   UNL     1      -1.582  -1.681  24.794  0.00  0.00    +0.241 C 
ATOM     10  O   UNL     1      -1.667  -2.364  24.339  0.00  0.00    -0.273 OA
BRANCH   8   7
ATOM      7  C   UNL     1      -3.002  -1.527  24.829  0.00  0.00    +0.141 C 
BRANCH   7   6
ATOM      3  C   UNL     1      -4.886   0.073  24.710  0.00  0.00    +0.139 A 
ATOM      4  C   UNL     1      -4.594  -0.272  24.021  0.00  0.00    +0.037 A 
ATOM      5  C   UNL     1      -3.966  -0.805  24.060  0.00  0.00    +0.001 A 
ATOM      6  C   UNL     1      -3.631  -0.993  24.790  0.00  0.00    -0.000 A 
ATOM     34  C   UNL     1      -3.923  -0.649  25.479  0.00  0.00    +0.001 A 
ATOM     35  C   UNL     1      -4.551  -0.115  25.440  0.00  0.00    +0.037 A 
BRANCH   3   2
ATOM      1  C   UNL     1      -5.436   1.362  24.994  0.00  0.00    +0.252 C 
ATOM      2  O   UNL     1      -5.515   0.607  24.671  0.00  0.00    -0.471 OA
ENDBRANCH   3   2
ENDBRANCH   7   6
ENDBRANCH   8   7
ENDBRANCH  11   9
ENDBRANCH  13  11
TORSDOF 8
ENDMDL
