MODEL 1
REMARK VINA RESULT:     -13.0      0.000      0.000
REMARK  Name = 
REMARK  5 active torsions:
REMARK  status: ('A' for Active; 'I' for Inactive)
REMARK    1  A    between atoms: C_2  and  C_5
REMARK    2  A    between atoms: C_8  and  C_11
REMARK    3  A    between atoms: C_14  and  C_16
REMARK    4  A    between atoms: N_21  and  C_22
REMARK    5  A    between atoms: C_22  and  C_23
REMARK                            x       y       z     vdW  Elec       q    Type
REMARK                         _______ _______ _______ _____ _____    ______ ____
ROOT
ATOM     16  C   UNL     1      -3.963   2.118  24.667  0.00  0.00    +0.144 C 
ATOM     17  C   UNL     1      -4.741   2.337  24.827  0.00  0.00    +0.073 C 
ATOM     18  C   UNL     1      -4.902   3.066  25.178  0.00  0.00    +0.077 A 
ATOM     19  C   UNL     1      -4.282   3.577  25.368  0.00  0.00    +0.090 A 
ATOM     20  C   UNL     1      -3.502   3.358  25.208  0.00  0.00    +0.121 C 
ATOM     21  N   UNL     1      -3.343   2.628  24.857  0.00  0.00    -0.256 NA
ATOM     29  N   UNL     1      -4.606   4.255  25.707  0.00  0.00    -0.226 NA
ATOM     30  C   UNL     1      -5.425   4.164  25.727  0.00  0.00    +0.198 A 
ATOM     31  N   UNL     1      -5.607   3.429  25.399  0.00  0.00    -0.227 NA
ENDROOT
BRANCH  16  14
ATOM     11  C   UNL     1      -3.651   0.075  24.130  0.00  0.00    +0.203 A 
ATOM     12  N   UNL     1      -3.462   0.456  23.423  0.00  0.00    -0.056 NA
ATOM     13  O   UNL     1      -3.556   1.269  23.538  0.00  0.00    -0.336 OA
ATOM     14  C   UNL     1      -3.803   1.389  24.316  0.00  0.00    +0.251 A 
ATOM     15  N   UNL     1      -3.861   0.652  24.681  0.00  0.00    -0.190 NA
BRANCH  11   8
ATOM      5  C   UNL     1      -3.597  -2.367  24.526  0.00  0.00    +0.071 A 
ATOM      6  C   UNL     1      -3.034  -1.879  24.880  0.00  0.00    +0.004 A 
ATOM      7  C   UNL     1      -3.052  -1.065  24.748  0.00  0.00    +0.003 A 
ATOM      8  C   UNL     1      -3.633  -0.739  24.262  0.00  0.00    +0.039 A 
ATOM      9  C   UNL     1      -4.197  -1.226  23.908  0.00  0.00    +0.003 A 
ATOM     10  C   UNL     1      -4.178  -2.041  24.040  0.00  0.00    +0.004 A 
BRANCH   5   2
ATOM      1  F   UNL     1      -3.562  -3.995  24.791  0.00  0.00    -0.166 F 
ATOM      2  C   UNL     1      -3.580  -3.181  24.658  0.00  0.00    +0.419 C 
ATOM      3  F   UNL     1      -3.596  -3.050  25.473  0.00  0.00    -0.166 F 
ATOM      4  F   UNL     1      -3.563  -3.312  23.844  0.00  0.00    -0.166 F 
ENDBRANCH   5   2
ENDBRANCH  11   8
ENDBRANCH  16  14
BRANCH  21  22
ATOM     22  C   UNL     1      -2.564   2.410  24.697  0.00  0.00    +0.119 C 
BRANCH  22  23
ATOM     23  C   UNL     1      -1.942   2.894  24.940  0.00  0.00    +0.075 A 
ATOM     24  N   UNL     1      -1.698   3.522  24.464  0.00  0.00    -0.247 NA
ATOM     25  C   UNL     1      -1.076   4.006  24.706  0.00  0.00    +0.098 A 
ATOM     26  C   UNL     1      -0.696   3.862  25.424  0.00  0.00    +0.021 A 
ATOM     27  C   UNL     1      -0.940   3.234  25.901  0.00  0.00    +0.003 A 
ATOM     28  C   UNL     1      -1.563   2.750  25.659  0.00  0.00    +0.016 A 
ENDBRANCH  22  23
ENDBRANCH  21  22
TORSDOF 5
ENDMDL
MODEL 2
REMARK VINA RESULT:     -12.1      0.690      2.427
REMARK  Name = 
REMARK  5 active torsions:
REMARK  status: ('A' for Active; 'I' for Inactive)
REMARK    1  A    between atoms: C_2  and  C_5
REMARK    2  A    between atoms: C_8  and  C_11
REMARK    3  A    between atoms: C_14  and  C_16
REMARK    4  A    between atoms: N_21  and  C_22
REMARK    5  A    between atoms: C_22  and  C_23
REMARK                            x       y       z     vdW  Elec       q    Type
REMARK                         _______ _______ _______ _____ _____    ______ ____
ROOT
ATOM     16  C   UNL     1      -2.540   2.302  24.414  0.00  0.00    +0.144 C 
ATOM     17  C   UNL     1      -1.749   2.509  24.520  0.00  0.00    +0.073 C 
ATOM     18  C   UNL     1      -1.552   3.250  24.825  0.00  0.00    +0.077 A 
ATOM     19  C   UNL     1      -2.148   3.784  25.025  0.00  0.00    +0.090 A 
ATOM     20  C   UNL     1      -2.940   3.578  24.920  0.00  0.00    +0.121 C 
ATOM     21  N   UNL     1      -3.136   2.837  24.614  0.00  0.00    -0.256 NA
ATOM     29  N   UNL     1      -1.790   4.469  25.312  0.00  0.00    -0.226 NA
ATOM     30  C   UNL     1      -0.973   4.358  25.290  0.00  0.00    +0.198 A 
ATOM     31  N   UNL     1      -0.827   3.605  24.989  0.00  0.00    -0.227 NA
ENDROOT
BRANCH  16  14
ATOM     11  C   UNL     1      -3.025   0.261  24.019  0.00  0.00    +0.203 A 
ATOM     12  N   UNL     1      -3.052   0.581  23.260  0.00  0.00    -0.056 NA
ATOM     13  O   UNL     1      -2.874   1.386  23.315  0.00  0.00    -0.336 OA
ATOM     14  C   UNL     1      -2.736   1.562  24.109  0.00  0.00    +0.251 A 
ATOM     15  N   UNL     1      -2.829   0.867  24.544  0.00  0.00    -0.190 NA
BRANCH  11   8
ATOM      5  C   UNL     1      -3.453  -2.101  24.620  0.00  0.00    +0.071 A 
ATOM      6  C   UNL     1      -2.725  -1.756  24.797  0.00  0.00    +0.004 A 
ATOM      7  C   UNL     1      -2.582  -0.969  24.597  0.00  0.00    +0.003 A 
ATOM      8  C   UNL     1      -3.167  -0.526  24.220  0.00  0.00    +0.039 A 
ATOM      9  C   UNL     1      -3.896  -0.871  24.042  0.00  0.00    +0.003 A 
ATOM     10  C   UNL     1      -4.038  -1.659  24.243  0.00  0.00    +0.004 A 
BRANCH   5   2
ATOM      1  F   UNL     1      -3.740  -3.676  25.019  0.00  0.00    -0.166 F 
ATOM      2  C   UNL     1      -3.596  -2.889  24.820  0.00  0.00    +0.419 C 
ATOM      3  F   UNL     1      -3.589  -3.093  24.020  0.00  0.00    -0.166 F 
ATOM      4  F   UNL     1      -3.604  -2.684  25.619  0.00  0.00    -0.166 F 
ENDBRANCH   5   2
ENDBRANCH  11   8
ENDBRANCH  16  14
BRANCH  21  22
ATOM     22  C   UNL     1      -3.928   2.631  24.509  0.00  0.00    +0.119 C 
BRANCH  22  23
ATOM     23  C   UNL     1      -4.515   3.017  24.941  0.00  0.00    +0.075 A 
ATOM     24  N   UNL     1      -4.773   3.765  24.709  0.00  0.00    -0.247 NA
ATOM     25  C   UNL     1      -5.360   4.151  25.141  0.00  0.00    +0.098 A 
ATOM     26  C   UNL     1      -5.691   3.789  25.804  0.00  0.00    +0.021 A 
ATOM     27  C   UNL     1      -5.433   3.040  26.036  0.00  0.00    +0.003 A 
ATOM     28  C   UNL     1      -4.846   2.654  25.604  0.00  0.00    +0.016 A 
ENDBRANCH  22  23
ENDBRANCH  21  22
TORSDOF 5
ENDMDL
MODEL 3
REMARK VINA RESULT:     -11.5      2.884      5.358
REMARK  Name = 
REMARK  5 active torsions:
REMARK  status: ('A' for Active; 'I' for Inactive)
REMARK    1  A    between atoms: C_2  and  C_5
REMARK    2  A    between atoms: C_8  and  C_11
REMARK    3  A    between atoms: C_14  and  C_16
REMARK    4  A    between atoms: N_21  and  C_22
REMARK    5  A    between atoms: C_22  and  C_23
REMARK                            x       y       z     vdW  Elec       q    Type
REMARK                         _______ _______ _______ _____ _____    ______ ____
ROOT
ATOM     16  C   UNL     1      -2.049   0.478  24.078  0.00  0.00    +0.144 C 
ATOM     17  C   UNL     1      -1.276   0.700  23.895  0.00  0.00    +0.073 C 
ATOM     18  C   UNL     1      -0.653   0.175  24.026  0.00  0.00    +0.077 A 
ATOM     19  C   UNL     1      -0.804  -0.573  24.340  0.00  0.00    +0.090 A 
ATOM     20  C   UNL     1      -1.578  -0.796  24.523  0.00  0.00    +0.121 C 
ATOM     21  N   UNL     1      -2.200  -0.270  24.392  0.00  0.00    -0.256 NA
ATOM     29  N   UNL     1      -0.086  -0.971  24.408  0.00  0.00    -0.226 NA
ATOM     30  C   UNL     1       0.510  -0.469  24.137  0.00  0.00    +0.198 A 
ATOM     31  N   UNL     1       0.159   0.238  23.901  0.00  0.00    -0.227 NA
ENDROOT
BRANCH  16  14
ATOM     11  C   UNL     1      -3.633   1.907  24.147  0.00  0.00    +0.203 A 
ATOM     12  N   UNL     1      -3.624   1.719  23.345  0.00  0.00    -0.056 NA
ATOM     13  O   UNL     1      -3.029   1.160  23.220  0.00  0.00    -0.336 OA
ATOM     14  C   UNL     1      -2.671   1.004  23.947  0.00  0.00    +0.251 A 
ATOM     15  N   UNL     1      -3.044   1.465  24.519  0.00  0.00    -0.190 NA
BRANCH  11   8
ATOM      5  C   UNL     1      -5.160   3.514  25.248  0.00  0.00    +0.071 A 
ATOM      6  C   UNL     1      -4.381   3.729  25.088  0.00  0.00    +0.004 A 
ATOM      7  C   UNL     1      -3.871   3.194  24.721  0.00  0.00    +0.003 A 
ATOM      8  C   UNL     1      -4.142   2.443  24.514  0.00  0.00    +0.039 A 
ATOM      9  C   UNL     1      -4.923   2.227  24.674  0.00  0.00    +0.003 A 
ATOM     10  C   UNL     1      -5.432   2.763  25.041  0.00  0.00    +0.004 A 
BRANCH   5   2
ATOM      1  F   UNL     1      -6.179   4.584  25.982  0.00  0.00    -0.166 F 
ATOM      2  C   UNL     1      -5.670   4.049  25.615  0.00  0.00    +0.419 C 
ATOM      3  F   UNL     1      -5.962   3.443  26.094  0.00  0.00    -0.166 F 
ATOM      4  F   UNL     1      -5.378   4.654  25.136  0.00  0.00    -0.166 F 
ENDBRANCH   5   2
ENDBRANCH  11   8
ENDBRANCH  16  14
BRANCH  21  22
ATOM     22  C   UNL     1      -2.973  -0.492  24.575  0.00  0.00    +0.119 C 
BRANCH  22  23
ATOM     23  C   UNL     1      -3.158  -1.288  24.686  0.00  0.00    +0.075 A 
ATOM     24  N   UNL     1      -3.322  -1.768  24.036  0.00  0.00    -0.247 NA
ATOM     25  C   UNL     1      -3.507  -2.564  24.148  0.00  0.00    +0.098 A 
ATOM     26  C   UNL     1      -3.528  -2.881  24.910  0.00  0.00    +0.021 A 
ATOM     27  C   UNL     1      -3.364  -2.400  25.560  0.00  0.00    +0.003 A 
ATOM     28  C   UNL     1      -3.179  -1.604  25.449  0.00  0.00    +0.016 A 
ENDBRANCH  22  23
ENDBRANCH  21  22
TORSDOF 5
ENDMDL
