MODEL 1
REMARK VINA RESULT:     -12.1      0.000      0.000
REMARK  Name = 
REMARK  5 active torsions:
REMARK  status: ('A' for Active; 'I' for Inactive)
REMARK    1  A    between atoms: N_2  and  C_4
REMARK    2  A    between atoms: C_7  and  C_10
REMARK    3  A    between atoms: C_13  and  C_15
REMARK    4  A    between atoms: N_18  and  C_19
REMARK    5  A    between atoms: C_19  and  C_20
REMARK                            x       y       z     vdW  Elec       q    Type
REMARK                         _______ _______ _______ _____ _____    ______ ____
ROOT
ATOM     15  C   UNL     1      -4.416   2.568  25.275  0.00  0.00    +0.096 C 
ATOM     16  C   UNL     1      -4.854   3.229  25.048  0.00  0.00    +0.028 C 
ATOM     17  C   UNL     1      -4.462   3.901  25.321  0.00  0.00    +0.073 C 
ATOM     18  N   UNL     1      -3.782   3.656  25.717  0.00  0.00    -0.268 NA
ATOM     29  C   UNL     1      -3.753   2.832  25.689  0.00  0.00    +0.082 C 
ENDROOT
BRANCH  15  13
ATOM     10  C   UNL     1      -4.502   0.470  24.891  0.00  0.00    +0.250 A 
ATOM     11  N   UNL     1      -5.302   0.672  24.855  0.00  0.00    -0.107 NA
ATOM     12  N   UNL     1      -5.366   1.482  24.995  0.00  0.00    -0.111 NA
ATOM     13  C   UNL     1      -4.607   1.781  25.117  0.00  0.00    +0.227 A 
ATOM     14  O   UNL     1      -4.073   1.156  25.053  0.00  0.00    -0.419 OA
BRANCH  10   7
ATOM      4  C   UNL     1      -3.557  -1.795  24.570  0.00  0.00    +0.048 A 
ATOM      5  C   UNL     1      -3.909  -1.400  23.936  0.00  0.00    +0.015 A 
ATOM      6  C   UNL     1      -4.224  -0.646  24.042  0.00  0.00    +0.006 A 
ATOM      7  C   UNL     1      -4.187  -0.284  24.784  0.00  0.00    +0.055 A 
ATOM      8  C   UNL     1      -3.836  -0.678  25.417  0.00  0.00    +0.006 A 
ATOM      9  C   UNL     1      -3.521  -1.434  25.311  0.00  0.00    +0.015 A 
BRANCH   4   2
ATOM      1  C   UNL     1      -3.745  -3.192  24.338  0.00  0.00    +0.112 C 
ATOM      2  N   UNL     1      -3.243  -2.550  24.463  0.00  0.00    -0.304 N 
ATOM      3  C   UNL     1      -2.425  -2.663  24.481  0.00  0.00    +0.112 C 
ENDBRANCH   4   2
ENDBRANCH  10   7
ENDBRANCH  15  13
BRANCH  18  19
ATOM     19  C   UNL     1      -3.227   4.149  26.078  0.00  0.00    +0.099 C 
BRANCH  19  20
ATOM     20  C   UNL     1      -2.482   4.250  25.738  0.00  0.00    -0.003 A 
ATOM     21  C   UNL     1      -2.304   4.948  25.335  0.00  0.00    +0.000 A 
ATOM     22  C   UNL     1      -1.559   5.049  24.995  0.00  0.00    +0.040 A 
ATOM     23  C   UNL     1      -0.992   4.453  25.058  0.00  0.00    +0.176 A 
ATOM     24  O   UNL     1      -0.217   4.397  24.782  0.00  0.00    -0.435 OA
ATOM     25  C   UNL     1       0.084   3.665  25.014  0.00  0.00    +0.429 C 
ATOM     26  O   UNL     1      -0.505   3.269  25.434  0.00  0.00    -0.435 OA
ATOM     27  C   UNL     1      -1.170   3.756  25.461  0.00  0.00    +0.176 A 
ATOM     28  C   UNL     1      -1.915   3.654  25.802  0.00  0.00    +0.037 A 
ENDBRANCH  19  20
ENDBRANCH  18  19
TORSDOF 5
ENDMDL
MODEL 2
REMARK VINA RESULT:     -10.6      1.893      3.019
REMARK  Name = 
REMARK  5 active torsions:
REMARK  status: ('A' for Active; 'I' for Inactive)
REMARK    1  A    between atoms: N_2  and  C_4
REMARK    2  A    between atoms: C_7  and  C_10
REMARK    3  A    between atoms: C_13  and  C_15
REMARK    4  A    between atoms: N_18  and  C_19
REMARK    5  A    between atoms: C_19  and  C_20
REMARK                            x       y       z     vdW  Elec       q    Type
REMARK                         _______ _______ _______ _____ _____    ______ ____
ROOT
ATOM     15  C   UNL     1      -0.800   1.682  25.269  0.00  0.00    +0.096 C 
ATOM     16  C   UNL     1      -0.185   2.033  25.692  0.00  0.00    +0.028 C 
ATOM     17  C   UNL     1      -0.337   2.842  25.739  0.00  0.00    +0.073 C 
ATOM     18  N   UNL     1      -1.047   2.991  25.345  0.00  0.00    -0.268 NA
ATOM     29  C   UNL     1      -1.333   2.273  25.054  0.00  0.00    +0.082 C 
ENDROOT
BRANCH  15  13
ATOM     10  C   UNL     1      -1.388  -0.328  24.851  0.00  0.00    +0.250 A 
ATOM     11  N   UNL     1      -0.566  -0.386  24.789  0.00  0.00    -0.107 NA
ATOM     12  N   UNL     1      -0.247   0.360  24.939  0.00  0.00    -0.111 NA
ATOM     13  C   UNL     1      -0.869   0.878  25.092  0.00  0.00    +0.227 A 
ATOM     14  O   UNL     1      -1.574   0.453  25.038  0.00  0.00    -0.419 OA
BRANCH  10   7
ATOM      4  C   UNL     1      -3.003  -2.175  24.531  0.00  0.00    +0.048 A 
ATOM      5  C   UNL     1      -3.272  -1.421  24.733  0.00  0.00    +0.015 A 
ATOM      6  C   UNL     1      -2.735  -0.806  24.840  0.00  0.00    +0.006 A 
ATOM      7  C   UNL     1      -1.926  -0.943  24.745  0.00  0.00    +0.055 A 
ATOM      8  C   UNL     1      -1.657  -1.695  24.542  0.00  0.00    +0.006 A 
ATOM      9  C   UNL     1      -2.195  -2.312  24.435  0.00  0.00    +0.015 A 
BRANCH   4   2
ATOM      1  C   UNL     1      -4.125  -2.731  23.844  0.00  0.00    +0.112 C 
ATOM      2  N   UNL     1      -3.542  -2.790  24.424  0.00  0.00    -0.304 N 
ATOM      3  C   UNL     1      -3.497  -3.465  24.897  0.00  0.00    +0.112 C 
ENDBRANCH   4   2
ENDBRANCH  10   7
ENDBRANCH  15  13
BRANCH  18  19
ATOM     19  C   UNL     1      -1.407   3.728  25.256  0.00  0.00    +0.099 C 
BRANCH  19  20
ATOM     20  C   UNL     1      -2.206   3.821  25.441  0.00  0.00    -0.003 A 
ATOM     21  C   UNL     1      -2.429   4.061  26.198  0.00  0.00    +0.000 A 
ATOM     22  C   UNL     1      -3.227   4.154  26.383  0.00  0.00    +0.040 A 
ATOM     23  C   UNL     1      -3.804   4.008  25.810  0.00  0.00    +0.176 A 
ATOM     24  O   UNL     1      -4.626   4.053  25.830  0.00  0.00    -0.435 OA
ATOM     25  C   UNL     1      -4.912   3.842  25.086  0.00  0.00    +0.429 C 
ATOM     26  O   UNL     1      -4.266   3.666  24.606  0.00  0.00    -0.435 OA
ATOM     27  C   UNL     1      -3.581   3.769  25.053  0.00  0.00    +0.176 A 
ATOM     28  C   UNL     1      -2.781   3.675  24.868  0.00  0.00    +0.037 A 
ENDBRANCH  19  20
ENDBRANCH  18  19
TORSDOF 5
ENDMDL
MODEL 3
REMARK VINA RESULT:     -10.4      1.630      5.366
REMARK  Name = 
REMARK  5 active torsions:
REMARK  status: ('A' for Active; 'I' for Inactive)
REMARK    1  A    between atoms: N_2  and  C_4
REMARK    2  A    between atoms: C_7  and  C_10
REMARK    3  A    between atoms: C_13  and  C_15
REMARK    4  A    between atoms: N_18  and  C_19
REMARK    5  A    between atoms: C_19  and  C_20
REMARK                            x       y       z     vdW  Elec       q    Type
REMARK                         _______ _______ _______ _____ _____    ______ ____
ROOT
ATOM     15  C   UNL     1      -4.227   0.518  24.839  0.00  0.00    +0.096 C 
ATOM     16  C   UNL     1      -4.706   0.122  24.296  0.00  0.00    +0.028 C 
ATOM     17  C   UNL     1      -4.594  -0.688  24.401  0.00  0.00    +0.073 C 
ATOM     18  N   UNL     1      -4.045  -0.793  25.008  0.00  0.00    -0.268 NA
ATOM     29  C   UNL     1      -3.819  -0.047  25.279  0.00  0.00    +0.082 C 
ENDROOT
BRANCH  15  13
ATOM     10  C   UNL     1      -3.665   2.570  25.018  0.00  0.00    +0.250 A 
ATOM     11  N   UNL     1      -4.486   2.622  25.099  0.00  0.00    -0.107 NA
ATOM     12  N   UNL     1      -4.795   1.859  25.042  0.00  0.00    -0.111 NA
ATOM     13  C   UNL     1      -4.168   1.337  24.925  0.00  0.00    +0.227 A 
ATOM     14  O   UNL     1      -3.469   1.777  24.911  0.00  0.00    -0.419 OA
BRANCH  10   7
ATOM      4  C   UNL     1      -2.076   4.466  25.087  0.00  0.00    +0.048 A 
ATOM      5  C   UNL     1      -2.133   3.999  24.409  0.00  0.00    +0.015 A 
ATOM      6  C   UNL     1      -2.662   3.368  24.385  0.00  0.00    +0.006 A 
ATOM      7  C   UNL     1      -3.136   3.202  25.041  0.00  0.00    +0.055 A 
ATOM      8  C   UNL     1      -3.078   3.668  25.719  0.00  0.00    +0.006 A 
ATOM      9  C   UNL     1      -2.549   4.300  25.742  0.00  0.00    +0.015 A 
BRANCH   4   2
ATOM      1  C   UNL     1      -1.827   5.867  25.206  0.00  0.00    +0.112 C 
ATOM      2  N   UNL     1      -1.546   5.098  25.110  0.00  0.00    -0.304 N 
ATOM      3  C   UNL     1      -0.736   4.960  25.037  0.00  0.00    +0.112 C 
ENDBRANCH   4   2
ENDBRANCH  10   7
ENDBRANCH  15  13
BRANCH  18  19
ATOM     19  C   UNL     1      -3.772  -1.516  25.295  0.00  0.00    +0.099 C 
BRANCH  19  20
ATOM     20  C   UNL     1      -3.015  -1.780  25.095  0.00  0.00    -0.003 A 
ATOM     21  C   UNL     1      -2.922  -2.376  24.532  0.00  0.00    +0.000 A 
ATOM     22  C   UNL     1      -2.167  -2.640  24.332  0.00  0.00    +0.040 A 
ATOM     23  C   UNL     1      -1.504  -2.308  24.694  0.00  0.00    +0.176 A 
ATOM     24  O   UNL     1      -0.697  -2.454  24.610  0.00  0.00    -0.435 OA
ATOM     25  C   UNL     1      -0.291  -1.949  25.121  0.00  0.00    +0.429 C 
ATOM     26  O   UNL     1      -0.848  -1.490  25.520  0.00  0.00    -0.435 OA
ATOM     27  C   UNL     1      -1.597  -1.712  25.257  0.00  0.00    +0.176 A 
ATOM     28  C   UNL     1      -2.353  -1.448  25.458  0.00  0.00    +0.037 A 
ENDBRANCH  19  20
ENDBRANCH  18  19
TORSDOF 5
ENDMDL
MODEL 4
REMARK VINA RESULT:     -10.1      2.794      4.509
REMARK  Name = 
REMARK  5 active torsions:
REMARK  status: ('A' for Active; 'I' for Inactive)
REMARK    1  A    between atoms: N_2  and  C_4
REMARK    2  A    between atoms: C_7  and  C_10
REMARK    3  A    between atoms: C_13  and  C_15
REMARK    4  A    between atoms: N_18  and  C_19
REMARK    5  A    between atoms: C_19  and  C_20
REMARK                            x       y       z     vdW  Elec       q    Type
REMARK                         _______ _______ _______ _____ _____    ______ ____
ROOT
ATOM     15  C   UNL     1      -2.984  -0.111  25.020  0.00  0.00    +0.096 C 
ATOM     16  C   UNL     1      -3.500  -0.598  25.441  0.00  0.00    +0.028 C 
ATOM     17  C   UNL     1      -4.269  -0.331  25.307  0.00  0.00    +0.073 C 
ATOM     18  N   UNL     1      -4.228   0.321  24.804  0.00  0.00    -0.268 NA
ATOM     29  C   UNL     1      -3.434   0.457  24.626  0.00  0.00    +0.082 C 
ENDROOT
BRANCH  15  13
ATOM     10  C   UNL     1      -0.900  -0.185  24.562  0.00  0.00    +0.250 A 
ATOM     11  N   UNL     1      -0.895  -0.388  25.363  0.00  0.00    -0.107 NA
ATOM     12  N   UNL     1      -1.675  -0.384  25.631  0.00  0.00    -0.111 NA
ATOM     13  C   UNL     1      -2.162  -0.180  24.998  0.00  0.00    +0.227 A 
ATOM     14  O   UNL     1      -1.683  -0.057  24.337  0.00  0.00    -0.419 OA
BRANCH  10   7
ATOM      4  C   UNL     1       1.086   0.004  23.098  0.00  0.00    +0.048 A 
ATOM      5  C   UNL     1       0.775  -0.739  23.278  0.00  0.00    +0.015 A 
ATOM      6  C   UNL     1       0.113  -0.803  23.766  0.00  0.00    +0.006 A 
ATOM      7  C   UNL     1      -0.239  -0.122  24.075  0.00  0.00    +0.055 A 
ATOM      8  C   UNL     1       0.072   0.620  23.894  0.00  0.00    +0.006 A 
ATOM      9  C   UNL     1       0.734   0.684  23.406  0.00  0.00    +0.015 A 
BRANCH   4   2
ATOM      1  C   UNL     1       2.428   0.444  22.884  0.00  0.00    +0.112 C 
ATOM      2  N   UNL     1       1.747   0.067  22.610  0.00  0.00    -0.304 N 
ATOM      3  C   UNL     1       1.729  -0.246  21.847  0.00  0.00    +0.112 C 
ENDBRANCH   4   2
ENDBRANCH  10   7
ENDBRANCH  15  13
BRANCH  18  19
ATOM     19  C   UNL     1      -4.869   0.760  24.526  0.00  0.00    +0.099 C 
BRANCH  19  20
ATOM     20  C   UNL     1      -5.081   1.464  24.901  0.00  0.00    -0.003 A 
ATOM     21  C   UNL     1      -5.647   1.458  25.501  0.00  0.00    +0.000 A 
ATOM     22  C   UNL     1      -5.858   2.161  25.875  0.00  0.00    +0.040 A 
ATOM     23  C   UNL     1      -5.504   2.872  25.650  0.00  0.00    +0.176 A 
ATOM     24  O   UNL     1      -5.600   3.646  25.917  0.00  0.00    -0.435 OA
ATOM     25  C   UNL     1      -5.094   4.130  25.482  0.00  0.00    +0.429 C 
ATOM     26  O   UNL     1      -4.685   3.656  24.947  0.00  0.00    -0.435 OA
ATOM     27  C   UNL     1      -4.938   2.878  25.050  0.00  0.00    +0.176 A 
ATOM     28  C   UNL     1      -4.726   2.173  24.675  0.00  0.00    +0.037 A 
ENDBRANCH  19  20
ENDBRANCH  18  19
TORSDOF 5
ENDMDL
MODEL 5
REMARK VINA RESULT:     -10.1      2.095      3.683
REMARK  Name = 
REMARK  5 active torsions:
REMARK  status: ('A' for Active; 'I' for Inactive)
REMARK    1  A    between atoms: N_2  and  C_4
REMARK    2  A    between atoms: C_7  and  C_10
REMARK    3  A    between atoms: C_13  and  C_15
REMARK    4  A    between atoms: N_18  and  C_19
REMARK    5  A    between atoms: C_19  and  C_20
REMARK                            x       y       z     vdW  Elec       q    Type
REMARK                         _______ _______ _______ _____ _____    ______ ____
ROOT
ATOM     15  C   UNL     1      -1.736   3.113  25.157  0.00  0.00    +0.096 C 
ATOM     16  C   UNL     1      -1.548   3.878  25.399  0.00  0.00    +0.028 C 
ATOM     17  C   UNL     1      -2.211   4.353  25.282  0.00  0.00    +0.073 C 
ATOM     18  N   UNL     1      -2.810   3.882  24.967  0.00  0.00    -0.268 NA
ATOM     29  C   UNL     1      -2.516   3.115  24.889  0.00  0.00    +0.082 C 
ENDROOT
BRANCH  15  13
ATOM     10  C   UNL     1      -0.782   1.203  25.161  0.00  0.00    +0.250 A 
ATOM     11  N   UNL     1      -0.133   1.706  25.260  0.00  0.00    -0.107 NA
ATOM     12  N   UNL     1      -0.413   2.482  25.270  0.00  0.00    -0.111 NA
ATOM     13  C   UNL     1      -1.232   2.459  25.178  0.00  0.00    +0.227 A 
ATOM     14  O   UNL     1      -1.460   1.669  25.111  0.00  0.00    -0.419 OA
BRANCH  10   7
ATOM      4  C   UNL     1      -0.700  -1.268  25.040  0.00  0.00    +0.048 A 
ATOM      5  C   UNL     1      -0.397  -0.813  24.421  0.00  0.00    +0.015 A 
ATOM      6  C   UNL     1      -0.424   0.009  24.460  0.00  0.00    +0.006 A 
ATOM      7  C   UNL     1      -0.754   0.380  25.121  0.00  0.00    +0.055 A 
ATOM      8  C   UNL     1      -1.057  -0.074  25.739  0.00  0.00    +0.006 A 
ATOM      9  C   UNL     1      -1.030  -0.897  25.699  0.00  0.00    +0.015 A 
BRANCH   4   2
ATOM      1  C   UNL     1      -0.057  -2.501  25.363  0.00  0.00    +0.112 C 
ATOM      2  N   UNL     1      -0.673  -2.091  24.999  0.00  0.00    -0.304 N 
ATOM      3  C   UNL     1      -1.262  -2.504  24.596  0.00  0.00    +0.112 C 
ENDBRANCH   4   2
ENDBRANCH  10   7
ENDBRANCH  15  13
BRANCH  18  19
ATOM     19  C   UNL     1      -3.569   4.133  24.764  0.00  0.00    +0.099 C 
BRANCH  19  20
ATOM     20  C   UNL     1      -4.228   3.707  25.022  0.00  0.00    -0.003 A 
ATOM     21  C   UNL     1      -4.591   3.901  25.737  0.00  0.00    +0.000 A 
ATOM     22  C   UNL     1      -5.249   3.475  25.994  0.00  0.00    +0.040 A 
ATOM     23  C   UNL     1      -5.544   2.854  25.537  0.00  0.00    +0.176 A 
ATOM     24  O   UNL     1      -6.178   2.340  25.647  0.00  0.00    -0.435 OA
ATOM     25  C   UNL     1      -6.207   1.828  25.001  0.00  0.00    +0.429 C 
ATOM     26  O   UNL     1      -5.590   2.026  24.491  0.00  0.00    -0.435 OA
ATOM     27  C   UNL     1      -5.180   2.660  24.822  0.00  0.00    +0.176 A 
ATOM     28  C   UNL     1      -4.522   3.087  24.564  0.00  0.00    +0.037 A 
ENDBRANCH  19  20
ENDBRANCH  18  19
TORSDOF 5
ENDMDL
MODEL 6
REMARK VINA RESULT:     -10.0      2.311      6.290
REMARK  Name = 
REMARK  5 active torsions:
REMARK  status: ('A' for Active; 'I' for Inactive)
REMARK    1  A    between atoms: N_2  and  C_4
REMARK    2  A    between atoms: C_7  and  C_10
REMARK    3  A    between atoms: C_13  and  C_15
REMARK    4  A    between atoms: N_18  and  C_19
REMARK    5  A    between atoms: C_19  and  C_20
REMARK                            x       y       z     vdW  Elec       q    Type
REMARK                         _______ _______ _______ _____ _____    ______ ____
ROOT
ATOM     15  C   UNL     1      -0.325  -0.002  24.505  0.00  0.00    +0.096 C 
ATOM     16  C   UNL     1       0.027  -0.559  24.008  0.00  0.00    +0.028 C 
ATOM     17  C   UNL     1      -0.286  -1.299  24.193  0.00  0.00    +0.073 C 
ATOM     18  N   UNL     1      -0.831  -1.200  24.804  0.00  0.00    -0.268 NA
ATOM     29  C   UNL     1      -0.855  -0.398  24.997  0.00  0.00    +0.082 C 
ENDROOT
BRANCH  15  13
ATOM     10  C   UNL     1      -0.327   2.129  24.640  0.00  0.00    +0.250 A 
ATOM     11  N   UNL     1       0.447   1.986  24.389  0.00  0.00    -0.107 NA
ATOM     12  N   UNL     1       0.541   1.170  24.309  0.00  0.00    -0.111 NA
ATOM     13  C   UNL     1      -0.173   0.809  24.509  0.00  0.00    +0.227 A 
ATOM     14  O   UNL     1      -0.710   1.402  24.713  0.00  0.00    -0.419 OA
BRANCH  10   7
ATOM      4  C   UNL     1      -1.322   4.350  25.090  0.00  0.00    +0.048 A 
ATOM      5  C   UNL     1      -0.842   4.239  24.428  0.00  0.00    +0.015 A 
ATOM      6  C   UNL     1      -0.510   3.499  24.277  0.00  0.00    +0.006 A 
ATOM      7  C   UNL     1      -0.658   2.868  24.790  0.00  0.00    +0.055 A 
ATOM      8  C   UNL     1      -1.138   2.979  25.451  0.00  0.00    +0.006 A 
ATOM      9  C   UNL     1      -1.470   3.719  25.602  0.00  0.00    +0.015 A 
BRANCH   4   2
ATOM      1  C   UNL     1      -2.379   5.145  25.629  0.00  0.00    +0.112 C 
ATOM      2  N   UNL     1      -1.653   5.090  25.240  0.00  0.00    -0.304 N 
ATOM      3  C   UNL     1      -1.260   5.775  25.002  0.00  0.00    +0.112 C 
ENDBRANCH   4   2
ENDBRANCH  10   7
ENDBRANCH  15  13
BRANCH  18  19
ATOM     19  C   UNL     1      -1.274  -1.798  25.160  0.00  0.00    +0.099 C 
BRANCH  19  20
ATOM     20  C   UNL     1      -2.086  -1.852  25.017  0.00  0.00    -0.003 A 
ATOM     21  C   UNL     1      -2.616  -1.434  25.490  0.00  0.00    +0.000 A 
ATOM     22  C   UNL     1      -3.427  -1.487  25.347  0.00  0.00    +0.040 A 
ATOM     23  C   UNL     1      -3.707  -1.958  24.731  0.00  0.00    +0.176 A 
ATOM     24  O   UNL     1      -4.469  -2.117  24.460  0.00  0.00    -0.435 OA
ATOM     25  C   UNL     1      -4.410  -2.634  23.820  0.00  0.00    +0.429 C 
ATOM     26  O   UNL     1      -3.611  -2.793  23.695  0.00  0.00    -0.435 OA
ATOM     27  C   UNL     1      -3.177  -2.376  24.258  0.00  0.00    +0.176 A 
ATOM     28  C   UNL     1      -2.365  -2.323  24.400  0.00  0.00    +0.037 A 
ENDBRANCH  19  20
ENDBRANCH  18  19
TORSDOF 5
ENDMDL
MODEL 7
REMARK VINA RESULT:      -9.7      2.142      5.597
REMARK  Name = 
REMARK  5 active torsions:
REMARK  status: ('A' for Active; 'I' for Inactive)
REMARK    1  A    between atoms: N_2  and  C_4
REMARK    2  A    between atoms: C_7  and  C_10
REMARK    3  A    between atoms: C_13  and  C_15
REMARK    4  A    between atoms: N_18  and  C_19
REMARK    5  A    between atoms: C_19  and  C_20
REMARK                            x       y       z     vdW  Elec       q    Type
REMARK                         _______ _______ _______ _____ _____    ______ ____
ROOT
ATOM     15  C   UNL     1      -1.053   1.112  24.506  0.00  0.00    +0.096 C 
ATOM     16  C   UNL     1      -0.374   0.995  24.053  0.00  0.00    +0.028 C 
ATOM     17  C   UNL     1      -0.114   0.222  24.177  0.00  0.00    +0.073 C 
ATOM     18  N   UNL     1      -0.633  -0.139  24.707  0.00  0.00    -0.268 NA
ATOM     29  C   UNL     1      -1.214   0.412  24.910  0.00  0.00    +0.082 C 
ENDROOT
BRANCH  15  13
ATOM     10  C   UNL     1      -2.500   2.664  24.743  0.00  0.00    +0.250 A 
ATOM     11  N   UNL     1      -1.847   3.094  24.478  0.00  0.00    -0.107 NA
ATOM     12  N   UNL     1      -1.226   2.564  24.357  0.00  0.00    -0.111 NA
ATOM     13  C   UNL     1      -1.495   1.808  24.547  0.00  0.00    +0.227 A 
ATOM     14  O   UNL     1      -2.282   1.870  24.786  0.00  0.00    -0.419 OA
BRANCH  10   7
ATOM      4  C   UNL     1      -4.723   3.595  25.310  0.00  0.00    +0.048 A 
ATOM      5  C   UNL     1      -4.064   3.788  25.769  0.00  0.00    +0.015 A 
ATOM      6  C   UNL     1      -3.324   3.478  25.581  0.00  0.00    +0.006 A 
ATOM      7  C   UNL     1      -3.240   2.974  24.932  0.00  0.00    +0.055 A 
ATOM      8  C   UNL     1      -3.898   2.781  24.474  0.00  0.00    +0.006 A 
ATOM      9  C   UNL     1      -4.639   3.091  24.662  0.00  0.00    +0.015 A 
BRANCH   4   2
ATOM      1  C   UNL     1      -6.063   3.406  25.765  0.00  0.00    +0.112 C 
ATOM      2  N   UNL     1      -5.463   3.905  25.499  0.00  0.00    -0.304 N 
ATOM      3  C   UNL     1      -5.603   4.715  25.422  0.00  0.00    +0.112 C 
ENDBRANCH   4   2
ENDBRANCH  10   7
ENDBRANCH  15  13
BRANCH  18  19
ATOM     19  C   UNL     1      -0.581  -0.914  24.985  0.00  0.00    +0.099 C 
BRANCH  19  20
ATOM     20  C   UNL     1      -1.177  -1.457  24.807  0.00  0.00    -0.003 A 
ATOM     21  C   UNL     1      -1.067  -2.006  24.200  0.00  0.00    +0.000 A 
ATOM     22  C   UNL     1      -1.662  -2.548  24.023  0.00  0.00    +0.040 A 
ATOM     23  C   UNL     1      -2.368  -2.543  24.451  0.00  0.00    +0.176 A 
ATOM     24  O   UNL     1      -3.047  -3.006  24.402  0.00  0.00    -0.435 OA
ATOM     25  C   UNL     1      -3.577  -2.745  24.977  0.00  0.00    +0.429 C 
ATOM     26  O   UNL     1      -3.225  -2.119  25.382  0.00  0.00    -0.435 OA
ATOM     27  C   UNL     1      -2.477  -1.994  25.057  0.00  0.00    +0.176 A 
ATOM     28  C   UNL     1      -1.882  -1.451  25.235  0.00  0.00    +0.037 A 
ENDBRANCH  19  20
ENDBRANCH  18  19
TORSDOF 5
ENDMDL
