MODEL 1
REMARK VINA RESULT:     -12.0      0.000      0.000
REMARK  Name = 
REMARK  4 active torsions:
REMARK  status: ('A' for Active; 'I' for Inactive)
REMARK    1  A    between atoms: C_2  and  C_4
REMARK    2  A    between atoms: C_7  and  C_9
REMARK    3  A    between atoms: N_14  and  C_15
REMARK    4  A    between atoms: C_15  and  C_16
REMARK                            x       y       z     vdW  Elec       q    Type
REMARK                         _______ _______ _______ _____ _____    ______ ____
ROOT
ATOM      9  C   UNL     1      -2.897   1.279  24.413  0.00  0.00    +0.144 C 
ATOM     10  C   UNL     1      -2.186   1.667  24.255  0.00  0.00    +0.073 C 
ATOM     11  C   UNL     1      -1.484   1.236  24.199  0.00  0.00    +0.077 A 
ATOM     12  C   UNL     1      -1.494   0.418  24.301  0.00  0.00    +0.090 A 
ATOM     13  C   UNL     1      -2.205   0.029  24.459  0.00  0.00    +0.121 C 
ATOM     14  N   UNL     1      -2.906   0.460  24.515  0.00  0.00    -0.257 NA
ATOM     23  N   UNL     1      -0.722   0.141  24.214  0.00  0.00    -0.226 NA
ATOM     24  C   UNL     1      -0.235   0.789  24.059  0.00  0.00    +0.198 A 
ATOM     25  N   UNL     1      -0.707   1.465  24.049  0.00  0.00    -0.227 NA
ENDROOT
BRANCH   9   7
ATOM      4  C   UNL     1      -4.598   2.449  24.954  0.00  0.00    +0.180 A 
ATOM      5  N   UNL     1      -4.757   2.295  24.160  0.00  0.00    -0.061 NA
ATOM      6  O   UNL     1      -4.139   1.837  23.860  0.00  0.00    -0.336 OA
ATOM      7  C   UNL     1      -3.597   1.709  24.470  0.00  0.00    +0.251 A 
ATOM      8  N   UNL     1      -3.882   2.087  25.145  0.00  0.00    -0.194 NA
BRANCH   4   2
ATOM      1  C   UNL     1      -4.931   3.695  25.569  0.00  0.00    +0.008 C 
ATOM      2  C   UNL     1      -5.072   2.888  25.467  0.00  0.00    +0.062 C 
ATOM      3  C   UNL     1      -5.685   2.521  25.878  0.00  0.00    +0.008 C 
ENDBRANCH   4   2
ENDBRANCH   9   7
BRANCH  14  15
ATOM     15  C   UNL     1      -3.616   0.072  24.674  0.00  0.00    +0.100 C 
BRANCH  15  16
ATOM     16  C   UNL     1      -3.636  -0.752  24.715  0.00  0.00    -0.006 A 
ATOM     17  C   UNL     1      -3.457  -1.133  25.424  0.00  0.00    -0.001 A 
ATOM     18  C   UNL     1      -3.477  -1.957  25.465  0.00  0.00    +0.029 A 
ATOM     19  C   UNL     1      -3.676  -2.399  24.798  0.00  0.00    +0.140 A 
ATOM     20  F   UNL     1      -3.696  -3.223  24.840  0.00  0.00    -0.204 F 
ATOM     21  C   UNL     1      -3.855  -2.017  24.088  0.00  0.00    +0.029 A 
ATOM     22  C   UNL     1      -3.835  -1.193  24.047  0.00  0.00    -0.001 A 
ENDBRANCH  15  16
ENDBRANCH  14  15
TORSDOF 4
ENDMDL
MODEL 2
REMARK VINA RESULT:     -11.6      1.240      3.126
REMARK  Name = 
REMARK  4 active torsions:
REMARK  status: ('A' for Active; 'I' for Inactive)
REMARK    1  A    between atoms: C_2  and  C_4
REMARK    2  A    between atoms: C_7  and  C_9
REMARK    3  A    between atoms: N_14  and  C_15
REMARK    4  A    between atoms: C_15  and  C_16
REMARK                            x       y       z     vdW  Elec       q    Type
REMARK                         _______ _______ _______ _____ _____    ______ ____
ROOT
ATOM      9  C   UNL     1      -3.580   1.971  24.771  0.00  0.00    +0.144 C 
ATOM     10  C   UNL     1      -4.157   2.539  24.925  0.00  0.00    +0.073 C 
ATOM     11  C   UNL     1      -4.934   2.307  25.081  0.00  0.00    +0.077 A 
ATOM     12  C   UNL     1      -5.132   1.506  25.082  0.00  0.00    +0.090 A 
ATOM     13  C   UNL     1      -4.554   0.937  24.928  0.00  0.00    +0.121 C 
ATOM     14  N   UNL     1      -3.778   1.170  24.772  0.00  0.00    -0.257 NA
ATOM     23  N   UNL     1      -5.936   1.442  25.252  0.00  0.00    -0.226 NA
ATOM     24  C   UNL     1      -6.235   2.204  25.357  0.00  0.00    +0.198 A 
ATOM     25  N   UNL     1      -5.616   2.737  25.250  0.00  0.00    -0.227 NA
ENDROOT
BRANCH   9   7
ATOM      4  C   UNL     1      -1.552   2.639  24.777  0.00  0.00    +0.180 A 
ATOM      5  N   UNL     1      -1.667   2.484  23.975  0.00  0.00    -0.061 NA
ATOM      6  O   UNL     1      -2.441   2.215  23.874  0.00  0.00    -0.336 OA
ATOM      7  C   UNL     1      -2.804   2.204  24.615  0.00  0.00    +0.251 A 
ATOM      8  N   UNL     1      -2.255   2.465  25.172  0.00  0.00    -0.194 NA
BRANCH   4   2
ATOM      1  C   UNL     1      -0.286   2.384  25.389  0.00  0.00    +0.008 C 
ATOM      2  C   UNL     1      -0.857   2.918  25.123  0.00  0.00    +0.062 C 
ATOM      3  C   UNL     1      -0.733   3.729  25.204  0.00  0.00    +0.008 C 
ENDBRANCH   4   2
ENDBRANCH   9   7
BRANCH  14  15
ATOM     15  C   UNL     1      -3.200   0.602  24.618  0.00  0.00    +0.100 C 
BRANCH  15  16
ATOM     16  C   UNL     1      -3.378  -0.200  24.700  0.00  0.00    -0.006 A 
ATOM     17  C   UNL     1      -3.696  -0.619  24.066  0.00  0.00    -0.001 A 
ATOM     18  C   UNL     1      -3.873  -1.420  24.148  0.00  0.00    +0.029 A 
ATOM     19  C   UNL     1      -3.732  -1.803  24.865  0.00  0.00    +0.140 A 
ATOM     20  F   UNL     1      -3.909  -2.604  24.947  0.00  0.00    -0.204 F 
ATOM     21  C   UNL     1      -3.413  -1.383  25.501  0.00  0.00    +0.029 A 
ATOM     22  C   UNL     1      -3.236  -0.581  25.418  0.00  0.00    -0.001 A 
ENDBRANCH  15  16
ENDBRANCH  14  15
TORSDOF 4
ENDMDL
MODEL 3
REMARK VINA RESULT:     -11.1      1.983      3.751
REMARK  Name = 
REMARK  4 active torsions:
REMARK  status: ('A' for Active; 'I' for Inactive)
REMARK    1  A    between atoms: C_2  and  C_4
REMARK    2  A    between atoms: C_7  and  C_9
REMARK    3  A    between atoms: N_14  and  C_15
REMARK    4  A    between atoms: C_15  and  C_16
REMARK                            x       y       z     vdW  Elec       q    Type
REMARK                         _______ _______ _______ _____ _____    ______ ____
ROOT
ATOM      9  C   UNL     1      -1.992   0.384  24.766  0.00  0.00    +0.144 C 
ATOM     10  C   UNL     1      -1.182   0.241  24.709  0.00  0.00    +0.073 C 
ATOM     11  C   UNL     1      -0.662   0.861  24.548  0.00  0.00    +0.077 A 
ATOM     12  C   UNL     1      -0.954   1.626  24.444  0.00  0.00    +0.090 A 
ATOM     13  C   UNL     1      -1.765   1.770  24.501  0.00  0.00    +0.121 C 
ATOM     14  N   UNL     1      -2.283   1.149  24.661  0.00  0.00    -0.257 NA
ATOM     23  N   UNL     1      -0.314   2.124  24.293  0.00  0.00    -0.226 NA
ATOM     24  C   UNL     1       0.373   1.667  24.303  0.00  0.00    +0.198 A 
ATOM     25  N   UNL     1       0.157   0.887  24.461  0.00  0.00    -0.227 NA
ENDROOT
BRANCH   9   7
ATOM      4  C   UNL     1      -3.294  -1.307  24.778  0.00  0.00    +0.180 A 
ATOM      5  N   UNL     1      -3.326  -1.075  25.569  0.00  0.00    -0.061 NA
ATOM      6  O   UNL     1      -2.842  -0.413  25.661  0.00  0.00    -0.336 OA
ATOM      7  C   UNL     1      -2.511  -0.236  24.926  0.00  0.00    +0.251 A 
ATOM      8  N   UNL     1      -2.790  -0.788  24.382  0.00  0.00    -0.194 NA
BRANCH   4   2
ATOM      1  C   UNL     1      -4.283  -1.812  23.879  0.00  0.00    +0.008 C 
ATOM      2  C   UNL     1      -3.695  -1.945  24.443  0.00  0.00    +0.062 C 
ATOM      3  C   UNL     1      -3.508  -2.716  24.670  0.00  0.00    +0.008 C 
ENDBRANCH   4   2
ENDBRANCH   9   7
BRANCH  14  15
ATOM     15  C   UNL     1      -3.093   1.294  24.718  0.00  0.00    +0.100 C 
BRANCH  15  16
ATOM     16  C   UNL     1      -3.388   2.051  24.574  0.00  0.00    -0.006 A 
ATOM     17  C   UNL     1      -3.474   2.585  25.196  0.00  0.00    -0.001 A 
ATOM     18  C   UNL     1      -3.769   3.341  25.053  0.00  0.00    +0.029 A 
ATOM     19  C   UNL     1      -3.979   3.564  24.287  0.00  0.00    +0.140 A 
ATOM     20  F   UNL     1      -4.274   4.321  24.144  0.00  0.00    -0.204 F 
ATOM     21  C   UNL     1      -3.894   3.029  23.664  0.00  0.00    +0.029 A 
ATOM     22  C   UNL     1      -3.598   2.273  23.807  0.00  0.00    -0.001 A 
ENDBRANCH  15  16
ENDBRANCH  14  15
TORSDOF 4
ENDMDL
MODEL 4
REMARK VINA RESULT:     -11.1      1.844      4.071
REMARK  Name = 
REMARK  4 active torsions:
REMARK  status: ('A' for Active; 'I' for Inactive)
REMARK    1  A    between atoms: C_2  and  C_4
REMARK    2  A    between atoms: C_7  and  C_9
REMARK    3  A    between atoms: N_14  and  C_15
REMARK    4  A    between atoms: C_15  and  C_16
REMARK                            x       y       z     vdW  Elec       q    Type
REMARK                         _______ _______ _______ _____ _____    ______ ____
ROOT
ATOM      9  C   UNL     1      -3.598   0.673  24.864  0.00  0.00    +0.144 C 
ATOM     10  C   UNL     1      -4.294   1.105  24.769  0.00  0.00    +0.073 C 
ATOM     11  C   UNL     1      -4.261   1.921  24.649  0.00  0.00    +0.077 A 
ATOM     12  C   UNL     1      -3.532   2.305  24.626  0.00  0.00    +0.090 A 
ATOM     13  C   UNL     1      -2.834   1.873  24.721  0.00  0.00    +0.121 C 
ATOM     14  N   UNL     1      -2.868   1.057  24.840  0.00  0.00    -0.257 NA
ATOM     23  N   UNL     1      -3.670   3.108  24.501  0.00  0.00    -0.226 NA
ATOM     24  C   UNL     1      -4.485   3.221  24.447  0.00  0.00    +0.198 A 
ATOM     25  N   UNL     1      -4.850   2.487  24.539  0.00  0.00    -0.227 NA
ENDROOT
BRANCH   9   7
ATOM      4  C   UNL     1      -3.699  -1.456  24.758  0.00  0.00    +0.180 A 
ATOM      5  N   UNL     1      -3.664  -1.339  25.573  0.00  0.00    -0.061 NA
ATOM      6  O   UNL     1      -3.622  -0.526  25.713  0.00  0.00    -0.336 OA
ATOM      7  C   UNL     1      -3.631  -0.142  24.983  0.00  0.00    +0.251 A 
ATOM      8  N   UNL     1      -3.678  -0.717  24.393  0.00  0.00    -0.194 NA
BRANCH   4   2
ATOM      1  C   UNL     1      -3.231  -2.795  24.583  0.00  0.00    +0.008 C 
ATOM      2  C   UNL     1      -3.746  -2.185  24.374  0.00  0.00    +0.062 C 
ATOM      3  C   UNL     1      -4.307  -2.304  23.781  0.00  0.00    +0.008 C 
ENDBRANCH   4   2
ENDBRANCH   9   7
BRANCH  14  15
ATOM     15  C   UNL     1      -2.171   0.627  24.935  0.00  0.00    +0.100 C 
BRANCH  15  16
ATOM     16  C   UNL     1      -1.440   1.003  24.868  0.00  0.00    -0.006 A 
ATOM     17  C   UNL     1      -1.059   1.036  24.138  0.00  0.00    -0.001 A 
ATOM     18  C   UNL     1      -0.328   1.412  24.071  0.00  0.00    +0.029 A 
ATOM     19  C   UNL     1       0.022   1.757  24.734  0.00  0.00    +0.140 A 
ATOM     20  F   UNL     1       0.753   2.133  24.668  0.00  0.00    -0.204 F 
ATOM     21  C   UNL     1      -0.361   1.724  25.465  0.00  0.00    +0.029 A 
ATOM     22  C   UNL     1      -1.092   1.347  25.532  0.00  0.00    -0.001 A 
ENDBRANCH  15  16
ENDBRANCH  14  15
TORSDOF 4
ENDMDL
