MODEL 1
REMARK VINA RESULT:     -11.9      0.000      0.000
REMARK  Name = 
REMARK  7 active torsions:
REMARK  status: ('A' for Active; 'I' for Inactive)
REMARK    1  A    between atoms: C_2  and  C_4
REMARK    2  A    between atoms: C_6  and  C_7
REMARK    3  A    between atoms: C_7  and  C_8
REMARK    4  A    between atoms: C_11  and  C_12
REMARK    5  A    between atoms: C_12  and  C_13
REMARK    6  A    between atoms: C_26  and  C_27
REMARK    7  A    between atoms: C_27  and  N_28
REMARK                            x       y       z     vdW  Elec       q    Type
REMARK                         _______ _______ _______ _____ _____    ______ ____
ROOT
ATOM      4  C   UNL     1      -3.326  -0.744  25.202  0.00  0.00    +0.006 C 
ATOM      5  C   UNL     1      -4.026  -0.324  25.083  0.00  0.00    +0.005 C 
ATOM      6  C   UNL     1      -4.087   0.201  24.449  0.00  0.00    +0.027 C 
ATOM     23  C   UNL     1      -3.451   0.305  23.936  0.00  0.00    -0.048 C 
ATOM     24  C   UNL     1      -3.512   0.831  23.302  0.00  0.00    +0.026 C 
ATOM     25  C   UNL     1      -2.750  -0.115  24.056  0.00  0.00    -0.034 C 
ATOM     26  C   UNL     1      -2.688  -0.639  24.689  0.00  0.00    +0.037 C 
ENDROOT
BRANCH   4   2
ATOM      1  C   UNL     1      -3.029  -0.995  26.578  0.00  0.00    +0.000 C 
ATOM      2  C   UNL     1      -3.263  -1.269  25.836  0.00  0.00    +0.000 C 
ATOM      3  C   UNL     1      -3.434  -2.069  25.728  0.00  0.00    +0.000 C 
ENDBRANCH   4   2
BRANCH   6   7
ATOM      7  C   UNL     1      -4.788   0.622  24.329  0.00  0.00    +0.091 C 
BRANCH   7   8
ATOM      8  C   UNL     1      -4.972   1.263  24.814  0.00  0.00    +0.226 A 
ATOM      9  N   UNL     1      -5.695   1.397  25.186  0.00  0.00    -0.112 NA
ATOM     10  N   UNL     1      -5.635   2.101  25.614  0.00  0.00    -0.111 NA
ATOM     11  C   UNL     1      -4.874   2.401  25.506  0.00  0.00    +0.231 A 
ATOM     22  O   UNL     1      -4.464   1.883  25.011  0.00  0.00    -0.423 OA
BRANCH  11  12
ATOM     12  C   UNL     1      -4.576   3.096  25.835  0.00  0.00    +0.115 C 
BRANCH  12  13
ATOM     13  C   UNL     1      -4.086   3.586  25.387  0.00  0.00    +0.008 A 
ATOM     14  C   UNL     1      -4.304   3.999  24.707  0.00  0.00    +0.095 A 
ATOM     15  N   UNL     1      -3.645   4.417  24.440  0.00  0.00    -0.244 NA
ATOM     16  C   UNL     1      -3.021   4.264  24.956  0.00  0.00    +0.081 A 
ATOM     17  C   UNL     1      -3.293   3.750  25.541  0.00  0.00    +0.016 A 
ATOM     18  C   UNL     1      -2.782   3.498  26.138  0.00  0.00    +0.001 A 
ATOM     19  C   UNL     1      -2.001   3.759  26.151  0.00  0.00    +0.000 A 
ATOM     20  C   UNL     1      -1.728   4.273  25.565  0.00  0.00    +0.002 A 
ATOM     21  C   UNL     1      -2.238   4.525  24.968  0.00  0.00    +0.019 A 
ENDBRANCH  12  13
ENDBRANCH  11  12
ENDBRANCH   7   8
ENDBRANCH   6   7
BRANCH  26  27
ATOM     27  C   UNL     1      -1.989  -1.060  24.810  0.00  0.00    +0.076 C 
BRANCH  27  28
ATOM     28  N   UNL     1      -1.288  -0.803  24.457  0.00  0.00    -0.269 NA
ATOM     29  C   UNL     1      -0.976  -1.214  23.813  0.00  0.00    +0.094 C 
ATOM     30  C   UNL     1      -0.275  -0.957  23.461  0.00  0.00    +0.109 C 
ATOM     31  N   UNL     1       0.113  -0.290  23.753  0.00  0.00    -0.290 N 
ATOM     32  C   UNL     1      -0.199   0.120  24.397  0.00  0.00    +0.109 C 
ATOM     33  C   UNL     1      -0.900  -0.137  24.749  0.00  0.00    +0.094 C 
ATOM     34  C   UNL     1       0.814  -0.033  23.401  0.00  0.00    +0.132 A 
ATOM     35  N   UNL     1       1.126  -0.444  22.756  0.00  0.00    -0.229 NA
ATOM     36  C   UNL     1       1.827  -0.187  22.405  0.00  0.00    +0.100 A 
ATOM     37  C   UNL     1       2.215   0.479  22.695  0.00  0.00    +0.021 A 
ATOM     38  C   UNL     1       1.902   0.890  23.340  0.00  0.00    +0.004 A 
ATOM     39  C   UNL     1       1.202   0.633  23.692  0.00  0.00    +0.034 A 
ENDBRANCH  27  28
ENDBRANCH  26  27
TORSDOF 7
ENDMDL
MODEL 2
REMARK VINA RESULT:     -11.8      1.859      4.287
REMARK  Name = 
REMARK  7 active torsions:
REMARK  status: ('A' for Active; 'I' for Inactive)
REMARK    1  A    between atoms: C_2  and  C_4
REMARK    2  A    between atoms: C_6  and  C_7
REMARK    3  A    between atoms: C_7  and  C_8
REMARK    4  A    between atoms: C_11  and  C_12
REMARK    5  A    between atoms: C_12  and  C_13
REMARK    6  A    between atoms: C_26  and  C_27
REMARK    7  A    between atoms: C_27  and  N_28
REMARK                            x       y       z     vdW  Elec       q    Type
REMARK                         _______ _______ _______ _____ _____    ______ ____
ROOT
ATOM      4  C   UNL     1      -4.823   2.762  25.149  0.00  0.00    +0.006 C 
ATOM      5  C   UNL     1      -4.392   3.428  24.922  0.00  0.00    +0.005 C 
ATOM      6  C   UNL     1      -3.888   3.389  24.270  0.00  0.00    +0.027 C 
ATOM     23  C   UNL     1      -3.816   2.687  23.845  0.00  0.00    -0.048 C 
ATOM     24  C   UNL     1      -3.312   2.648  23.192  0.00  0.00    +0.026 C 
ATOM     25  C   UNL     1      -4.248   2.021  24.073  0.00  0.00    -0.034 C 
ATOM     26  C   UNL     1      -4.751   2.058  24.724  0.00  0.00    +0.037 C 
ENDROOT
BRANCH   4   2
ATOM      1  C   UNL     1      -6.144   2.837  25.691  0.00  0.00    +0.000 C 
ATOM      2  C   UNL     1      -5.327   2.800  25.802  0.00  0.00    +0.000 C 
ATOM      3  C   UNL     1      -5.014   2.800  26.565  0.00  0.00    +0.000 C 
ENDBRANCH   4   2
BRANCH   6   7
ATOM      7  C   UNL     1      -3.457   4.055  24.042  0.00  0.00    +0.091 C 
BRANCH   7   8
ATOM      8  C   UNL     1      -2.794   4.285  24.476  0.00  0.00    +0.226 A 
ATOM      9  N   UNL     1      -2.737   4.951  24.959  0.00  0.00    -0.112 NA
ATOM     10  N   UNL     1      -1.979   4.966  25.284  0.00  0.00    -0.111 NA
ATOM     11  C   UNL     1      -1.567   4.309  25.003  0.00  0.00    +0.231 A 
ATOM     22  O   UNL     1      -2.071   3.888  24.504  0.00  0.00    -0.423 OA
BRANCH  11  12
ATOM     12  C   UNL     1      -0.789   4.108  25.189  0.00  0.00    +0.115 C 
BRANCH  12  13
ATOM     13  C   UNL     1      -0.615   3.356  25.477  0.00  0.00    +0.008 A 
ATOM     14  C   UNL     1      -0.813   3.065  26.224  0.00  0.00    +0.095 A 
ATOM     15  N   UNL     1      -0.533   2.291  26.278  0.00  0.00    -0.244 NA
ATOM     16  C   UNL     1      -0.163   2.103  25.565  0.00  0.00    +0.081 A 
ATOM     17  C   UNL     1      -0.214   2.761  25.070  0.00  0.00    +0.016 A 
ATOM     18  C   UNL     1       0.112   2.733  24.313  0.00  0.00    +0.001 A 
ATOM     19  C   UNL     1       0.488   2.049  24.050  0.00  0.00    +0.000 A 
ATOM     20  C   UNL     1       0.539   1.390  24.545  0.00  0.00    +0.002 A 
ATOM     21  C   UNL     1       0.214   1.417  25.302  0.00  0.00    +0.019 A 
ENDBRANCH  12  13
ENDBRANCH  11  12
ENDBRANCH   7   8
ENDBRANCH   6   7
BRANCH  26  27
ATOM     27  C   UNL     1      -5.183   1.393  24.952  0.00  0.00    +0.076 C 
BRANCH  27  28
ATOM     28  N   UNL     1      -4.851   0.641  24.877  0.00  0.00    -0.269 NA
ATOM     29  C   UNL     1      -4.316   0.369  25.442  0.00  0.00    +0.094 C 
ATOM     30  C   UNL     1      -3.984  -0.383  25.367  0.00  0.00    +0.109 C 
ATOM     31  N   UNL     1      -4.188  -0.862  24.727  0.00  0.00    -0.290 N 
ATOM     32  C   UNL     1      -4.724  -0.589  24.161  0.00  0.00    +0.109 C 
ATOM     33  C   UNL     1      -5.055   0.163  24.237  0.00  0.00    +0.094 C 
ATOM     34  C   UNL     1      -3.857  -1.614  24.651  0.00  0.00    +0.132 A 
ATOM     35  N   UNL     1      -3.321  -1.887  25.217  0.00  0.00    -0.229 NA
ATOM     36  C   UNL     1      -2.990  -2.638  25.141  0.00  0.00    +0.100 A 
ATOM     37  C   UNL     1      -3.193  -3.117  24.502  0.00  0.00    +0.021 A 
ATOM     38  C   UNL     1      -3.729  -2.844  23.936  0.00  0.00    +0.004 A 
ATOM     39  C   UNL     1      -4.060  -2.092  24.012  0.00  0.00    +0.034 A 
ENDBRANCH  27  28
ENDBRANCH  26  27
TORSDOF 7
ENDMDL
MODEL 3
REMARK VINA RESULT:     -11.5      1.498      3.954
REMARK  Name = 
REMARK  7 active torsions:
REMARK  status: ('A' for Active; 'I' for Inactive)
REMARK    1  A    between atoms: C_2  and  C_4
REMARK    2  A    between atoms: C_6  and  C_7
REMARK    3  A    between atoms: C_7  and  C_8
REMARK    4  A    between atoms: C_11  and  C_12
REMARK    5  A    between atoms: C_12  and  C_13
REMARK    6  A    between atoms: C_26  and  C_27
REMARK    7  A    between atoms: C_27  and  N_28
REMARK                            x       y       z     vdW  Elec       q    Type
REMARK                         _______ _______ _______ _____ _____    ______ ____
ROOT
ATOM      4  C   UNL     1      -0.042   1.694  24.491  0.00  0.00    +0.006 C 
ATOM      5  C   UNL     1      -0.139   2.441  24.828  0.00  0.00    +0.005 C 
ATOM      6  C   UNL     1      -0.487   2.515  25.573  0.00  0.00    +0.027 C 
ATOM     23  C   UNL     1      -0.736   1.843  25.980  0.00  0.00    -0.048 C 
ATOM     24  C   UNL     1      -1.084   1.916  26.725  0.00  0.00    +0.026 C 
ATOM     25  C   UNL     1      -0.639   1.095  25.643  0.00  0.00    -0.034 C 
ATOM     26  C   UNL     1      -0.292   1.021  24.898  0.00  0.00    +0.037 C 
ENDROOT
BRANCH   4   2
ATOM      1  C   UNL     1       1.100   1.408  23.680  0.00  0.00    +0.000 C 
ATOM      2  C   UNL     1       0.305   1.620  23.746  0.00  0.00    +0.000 C 
ATOM      3  C   UNL     1      -0.142   1.758  23.067  0.00  0.00    +0.000 C 
ENDBRANCH   4   2
BRANCH   6   7
ATOM      7  C   UNL     1      -0.584   3.262  25.910  0.00  0.00    +0.091 C 
BRANCH   7   8
ATOM      8  C   UNL     1      -1.174   3.766  25.632  0.00  0.00    +0.226 A 
ATOM      9  N   UNL     1      -1.058   4.514  25.304  0.00  0.00    -0.112 NA
ATOM     10  N   UNL     1      -1.797   4.821  25.102  0.00  0.00    -0.111 NA
ATOM     11  C   UNL     1      -2.369   4.263  25.304  0.00  0.00    +0.231 A 
ATOM     22  O   UNL     1      -1.985   3.611  25.631  0.00  0.00    -0.423 OA
BRANCH  11  12
ATOM     12  C   UNL     1      -3.183   4.343  25.197  0.00  0.00    +0.115 C 
BRANCH  12  13
ATOM     13  C   UNL     1      -3.600   3.775  24.769  0.00  0.00    +0.008 A 
ATOM     14  C   UNL     1      -3.435   3.530  23.998  0.00  0.00    +0.095 A 
ATOM     15  N   UNL     1      -3.988   2.956  23.789  0.00  0.00    -0.244 NA
ATOM     16  C   UNL     1      -4.496   2.846  24.429  0.00  0.00    +0.081 A 
ATOM     17  C   UNL     1      -4.256   3.352  25.035  0.00  0.00    +0.016 A 
ATOM     18  C   UNL     1      -4.666   3.362  25.751  0.00  0.00    +0.001 A 
ATOM     19  C   UNL     1      -5.316   2.866  25.861  0.00  0.00    +0.000 A 
ATOM     20  C   UNL     1      -5.556   2.360  25.256  0.00  0.00    +0.002 A 
ATOM     21  C   UNL     1      -5.146   2.349  24.540  0.00  0.00    +0.019 A 
ENDBRANCH  12  13
ENDBRANCH  11  12
ENDBRANCH   7   8
ENDBRANCH   6   7
BRANCH  26  27
ATOM     27  C   UNL     1      -0.194   0.275  24.561  0.00  0.00    +0.076 C 
BRANCH  27  28
ATOM     28  N   UNL     1      -0.824  -0.258  24.549  0.00  0.00    -0.269 NA
ATOM     29  C   UNL     1      -0.735  -1.009  24.877  0.00  0.00    +0.094 C 
ATOM     30  C   UNL     1      -1.365  -1.542  24.865  0.00  0.00    +0.109 C 
ATOM     31  N   UNL     1      -2.084  -1.322  24.526  0.00  0.00    -0.290 N 
ATOM     32  C   UNL     1      -2.174  -0.570  24.198  0.00  0.00    +0.109 C 
ATOM     33  C   UNL     1      -1.543  -0.038  24.210  0.00  0.00    +0.094 C 
ATOM     34  C   UNL     1      -2.714  -1.855  24.514  0.00  0.00    +0.132 A 
ATOM     35  N   UNL     1      -2.625  -2.607  24.842  0.00  0.00    -0.229 NA
ATOM     36  C   UNL     1      -3.255  -3.139  24.830  0.00  0.00    +0.100 A 
ATOM     37  C   UNL     1      -3.974  -2.920  24.492  0.00  0.00    +0.021 A 
ATOM     38  C   UNL     1      -4.064  -2.168  24.164  0.00  0.00    +0.004 A 
ATOM     39  C   UNL     1      -3.433  -1.636  24.176  0.00  0.00    +0.034 A 
ENDBRANCH  27  28
ENDBRANCH  26  27
TORSDOF 7
ENDMDL
MODEL 4
REMARK VINA RESULT:     -11.2      1.456      3.747
REMARK  Name = 
REMARK  7 active torsions:
REMARK  status: ('A' for Active; 'I' for Inactive)
REMARK    1  A    between atoms: C_2  and  C_4
REMARK    2  A    between atoms: C_6  and  C_7
REMARK    3  A    between atoms: C_7  and  C_8
REMARK    4  A    between atoms: C_11  and  C_12
REMARK    5  A    between atoms: C_12  and  C_13
REMARK    6  A    between atoms: C_26  and  C_27
REMARK    7  A    between atoms: C_27  and  N_28
REMARK                            x       y       z     vdW  Elec       q    Type
REMARK                         _______ _______ _______ _____ _____    ______ ____
ROOT
ATOM      4  C   UNL     1      -1.909   2.942  24.935  0.00  0.00    +0.006 C 
ATOM      5  C   UNL     1      -2.699   2.894  24.703  0.00  0.00    +0.005 C 
ATOM      6  C   UNL     1      -2.893   2.563  23.971  0.00  0.00    +0.027 C 
ATOM     23  C   UNL     1      -2.298   2.283  23.475  0.00  0.00    -0.048 C 
ATOM     24  C   UNL     1      -2.491   1.952  22.743  0.00  0.00    +0.026 C 
ATOM     25  C   UNL     1      -1.507   2.332  23.708  0.00  0.00    -0.034 C 
ATOM     26  C   UNL     1      -1.313   2.662  24.439  0.00  0.00    +0.037 C 
ENDROOT
BRANCH   4   2
ATOM      1  C   UNL     1      -1.623   2.787  26.327  0.00  0.00    +0.000 C 
ATOM      2  C   UNL     1      -1.714   3.272  25.666  0.00  0.00    +0.000 C 
ATOM      3  C   UNL     1      -1.612   4.088  25.737  0.00  0.00    +0.000 C 
ENDBRANCH   4   2
BRANCH   6   7
ATOM      7  C   UNL     1      -3.683   2.514  23.738  0.00  0.00    +0.091 C 
BRANCH   7   8
ATOM      8  C   UNL     1      -4.192   1.986  24.114  0.00  0.00    +0.226 A 
ATOM      9  N   UNL     1      -4.829   2.188  24.598  0.00  0.00    -0.112 NA
ATOM     10  N   UNL     1      -5.184   1.489  24.856  0.00  0.00    -0.111 NA
ATOM     11  C   UNL     1      -4.767   0.856  24.532  0.00  0.00    +0.231 A 
ATOM     22  O   UNL     1      -4.154   1.162  24.073  0.00  0.00    -0.423 OA
BRANCH  11  12
ATOM     12  C   UNL     1      -4.934   0.056  24.646  0.00  0.00    +0.115 C 
BRANCH  12  13
ATOM     13  C   UNL     1      -4.368  -0.438  24.986  0.00  0.00    +0.008 A 
ATOM     14  C   UNL     1      -3.949  -0.289  25.682  0.00  0.00    +0.095 A 
ATOM     15  N   UNL     1      -3.444  -0.927  25.817  0.00  0.00    -0.244 NA
ATOM     16  C   UNL     1      -3.551  -1.470  25.206  0.00  0.00    +0.081 A 
ATOM     17  C   UNL     1      -4.122  -1.168  24.693  0.00  0.00    +0.016 A 
ATOM     18  C   UNL     1      -4.343  -1.598  24.024  0.00  0.00    +0.001 A 
ATOM     19  C   UNL     1      -3.995  -2.328  23.868  0.00  0.00    +0.000 A 
ATOM     20  C   UNL     1      -3.424  -2.630  24.381  0.00  0.00    +0.002 A 
ATOM     21  C   UNL     1      -3.201  -2.202  25.050  0.00  0.00    +0.019 A 
ENDBRANCH  12  13
ENDBRANCH  11  12
ENDBRANCH   7   8
ENDBRANCH   6   7
BRANCH  26  27
ATOM     27  C   UNL     1      -0.524   2.711  24.672  0.00  0.00    +0.076 C 
BRANCH  27  28
ATOM     28  N   UNL     1       0.042   2.224  24.320  0.00  0.00    -0.269 NA
ATOM     29  C   UNL     1       0.705   2.556  23.959  0.00  0.00    +0.094 C 
ATOM     30  C   UNL     1       1.270   2.069  23.606  0.00  0.00    +0.109 C 
ATOM     31  N   UNL     1       1.172   1.250  23.615  0.00  0.00    -0.290 N 
ATOM     32  C   UNL     1       0.508   0.917  23.977  0.00  0.00    +0.109 C 
ATOM     33  C   UNL     1      -0.057   1.405  24.329  0.00  0.00    +0.094 C 
ATOM     34  C   UNL     1       1.736   0.762  23.263  0.00  0.00    +0.132 A 
ATOM     35  N   UNL     1       2.400   1.095  22.902  0.00  0.00    -0.229 NA
ATOM     36  C   UNL     1       2.965   0.607  22.550  0.00  0.00    +0.100 A 
ATOM     37  C   UNL     1       2.867  -0.211  22.558  0.00  0.00    +0.021 A 
ATOM     38  C   UNL     1       2.203  -0.544  22.919  0.00  0.00    +0.004 A 
ATOM     39  C   UNL     1       1.639  -0.056  23.272  0.00  0.00    +0.034 A 
ENDBRANCH  27  28
ENDBRANCH  26  27
TORSDOF 7
ENDMDL
MODEL 5
REMARK VINA RESULT:     -11.1      1.621      5.841
REMARK  Name = 
REMARK  7 active torsions:
REMARK  status: ('A' for Active; 'I' for Inactive)
REMARK    1  A    between atoms: C_2  and  C_4
REMARK    2  A    between atoms: C_6  and  C_7
REMARK    3  A    between atoms: C_7  and  C_8
REMARK    4  A    between atoms: C_11  and  C_12
REMARK    5  A    between atoms: C_12  and  C_13
REMARK    6  A    between atoms: C_26  and  C_27
REMARK    7  A    between atoms: C_27  and  N_28
REMARK                            x       y       z     vdW  Elec       q    Type
REMARK                         _______ _______ _______ _____ _____    ______ ____
ROOT
ATOM      4  C   UNL     1      -0.416   2.370  25.011  0.00  0.00    +0.006 C 
ATOM      5  C   UNL     1      -0.060   1.750  24.600  0.00  0.00    +0.005 C 
ATOM      6  C   UNL     1      -0.418   1.447  23.921  0.00  0.00    +0.027 C 
ATOM     23  C   UNL     1      -1.130   1.765  23.654  0.00  0.00    -0.048 C 
ATOM     24  C   UNL     1      -1.489   1.462  22.975  0.00  0.00    +0.026 C 
ATOM     25  C   UNL     1      -1.486   2.385  24.066  0.00  0.00    -0.034 C 
ATOM     26  C   UNL     1      -1.129   2.688  24.744  0.00  0.00    +0.037 C 
ENDROOT
BRANCH   4   2
ATOM      1  C   UNL     1       0.327   3.402  25.664  0.00  0.00    +0.000 C 
ATOM      2  C   UNL     1      -0.058   2.673  25.691  0.00  0.00    +0.000 C 
ATOM      3  C   UNL     1      -0.086   2.247  26.397  0.00  0.00    +0.000 C 
ENDBRANCH   4   2
BRANCH   6   7
ATOM      7  C   UNL     1      -0.062   0.826  23.509  0.00  0.00    +0.091 C 
BRANCH   7   8
ATOM      8  C   UNL     1      -0.048   0.070  23.836  0.00  0.00    +0.226 A 
ATOM      9  N   UNL     1       0.531  -0.504  23.708  0.00  0.00    -0.112 NA
ATOM     10  N   UNL     1       0.325  -1.175  24.142  0.00  0.00    -0.111 NA
ATOM     11  C   UNL     1      -0.380  -1.017  24.538  0.00  0.00    +0.231 A 
ATOM     22  O   UNL     1      -0.612  -0.248  24.350  0.00  0.00    -0.423 OA
BRANCH  11  12
ATOM     12  C   UNL     1      -0.784  -1.536  25.036  0.00  0.00    +0.115 C 
BRANCH  12  13
ATOM     13  C   UNL     1      -1.508  -1.853  24.801  0.00  0.00    +0.008 A 
ATOM     14  C   UNL     1      -1.621  -2.418  24.209  0.00  0.00    +0.095 A 
ATOM     15  N   UNL     1      -2.429  -2.575  24.158  0.00  0.00    -0.244 NA
ATOM     16  C   UNL     1      -2.815  -2.109  24.718  0.00  0.00    +0.081 A 
ATOM     17  C   UNL     1      -2.246  -1.663  25.115  0.00  0.00    +0.016 A 
ATOM     18  C   UNL     1      -2.474  -1.141  25.712  0.00  0.00    +0.001 A 
ATOM     19  C   UNL     1      -3.270  -1.064  25.911  0.00  0.00    +0.000 A 
ATOM     20  C   UNL     1      -3.839  -1.510  25.514  0.00  0.00    +0.002 A 
ATOM     21  C   UNL     1      -3.613  -2.032  24.917  0.00  0.00    +0.019 A 
ENDBRANCH  12  13
ENDBRANCH  11  12
ENDBRANCH   7   8
ENDBRANCH   6   7
BRANCH  26  27
ATOM     27  C   UNL     1      -1.484   3.308  25.156  0.00  0.00    +0.076 C 
BRANCH  27  28
ATOM     28  N   UNL     1      -2.304   3.326  25.248  0.00  0.00    -0.269 NA
ATOM     29  C   UNL     1      -2.730   3.996  25.025  0.00  0.00    +0.094 C 
ATOM     30  C   UNL     1      -3.550   4.013  25.117  0.00  0.00    +0.109 C 
ATOM     31  N   UNL     1      -3.943   3.360  25.433  0.00  0.00    -0.290 N 
ATOM     32  C   UNL     1      -3.517   2.690  25.656  0.00  0.00    +0.109 C 
ATOM     33  C   UNL     1      -2.697   2.673  25.564  0.00  0.00    +0.094 C 
ATOM     34  C   UNL     1      -4.763   3.377  25.525  0.00  0.00    +0.132 A 
ATOM     35  N   UNL     1      -5.189   4.047  25.302  0.00  0.00    -0.229 NA
ATOM     36  C   UNL     1      -6.009   4.064  25.394  0.00  0.00    +0.100 A 
ATOM     37  C   UNL     1      -6.402   3.412  25.710  0.00  0.00    +0.021 A 
ATOM     38  C   UNL     1      -5.976   2.742  25.933  0.00  0.00    +0.004 A 
ATOM     39  C   UNL     1      -5.156   2.725  25.841  0.00  0.00    +0.034 A 
ENDBRANCH  27  28
ENDBRANCH  26  27
TORSDOF 7
ENDMDL
MODEL 6
REMARK VINA RESULT:     -10.3      1.995      6.404
REMARK  Name = 
REMARK  7 active torsions:
REMARK  status: ('A' for Active; 'I' for Inactive)
REMARK    1  A    between atoms: C_2  and  C_4
REMARK    2  A    between atoms: C_6  and  C_7
REMARK    3  A    between atoms: C_7  and  C_8
REMARK    4  A    between atoms: C_11  and  C_12
REMARK    5  A    between atoms: C_12  and  C_13
REMARK    6  A    between atoms: C_26  and  C_27
REMARK    7  A    between atoms: C_27  and  N_28
REMARK                            x       y       z     vdW  Elec       q    Type
REMARK                         _______ _______ _______ _____ _____    ______ ____
ROOT
ATOM      4  C   UNL     1      -0.932  -0.496  24.444  0.00  0.00    +0.006 C 
ATOM      5  C   UNL     1      -0.231  -0.153  24.178  0.00  0.00    +0.005 C 
ATOM      6  C   UNL     1      -0.239   0.611  23.866  0.00  0.00    +0.027 C 
ATOM     23  C   UNL     1      -0.947   1.031  23.822  0.00  0.00    -0.048 C 
ATOM     24  C   UNL     1      -0.955   1.795  23.510  0.00  0.00    +0.026 C 
ATOM     25  C   UNL     1      -1.649   0.687  24.088  0.00  0.00    -0.034 C 
ATOM     26  C   UNL     1      -1.641  -0.077  24.399  0.00  0.00    +0.037 C 
ENDROOT
BRANCH   4   2
ATOM      1  C   UNL     1      -1.161  -1.899  24.289  0.00  0.00    +0.000 C 
ATOM      2  C   UNL     1      -0.925  -1.261  24.755  0.00  0.00    +0.000 C 
ATOM      3  C   UNL     1      -0.681  -1.387  25.534  0.00  0.00    +0.000 C 
ENDBRANCH   4   2
BRANCH   6   7
ATOM      7  C   UNL     1       0.463   0.955  23.600  0.00  0.00    +0.091 C 
BRANCH   7   8
ATOM      8  C   UNL     1       0.996   0.512  23.154  0.00  0.00    +0.226 A 
ATOM      9  N   UNL     1       0.858   0.199  22.403  0.00  0.00    -0.112 NA
ATOM     10  N   UNL     1       1.538  -0.203  22.166  0.00  0.00    -0.111 NA
ATOM     11  C   UNL     1       2.096  -0.140  22.770  0.00  0.00    +0.231 A 
ATOM     22  O   UNL     1       1.761   0.302  23.381  0.00  0.00    -0.423 OA
BRANCH  11  12
ATOM     12  C   UNL     1       2.856  -0.462  22.764  0.00  0.00    +0.115 C 
BRANCH  12  13
ATOM     13  C   UNL     1       3.512   0.031  22.842  0.00  0.00    +0.008 A 
ATOM     14  C   UNL     1       3.592   0.787  22.521  0.00  0.00    +0.095 A 
ATOM     15  N   UNL     1       4.334   1.078  22.735  0.00  0.00    -0.244 NA
ATOM     16  C   UNL     1       4.712   0.502  23.188  0.00  0.00    +0.081 A 
ATOM     17  C   UNL     1       4.204  -0.145  23.254  0.00  0.00    +0.016 A 
ATOM     18  C   UNL     1       4.439  -0.810  23.682  0.00  0.00    +0.001 A 
ATOM     19  C   UNL     1       5.180  -0.829  24.043  0.00  0.00    +0.000 A 
ATOM     20  C   UNL     1       5.688  -0.182  23.976  0.00  0.00    +0.002 A 
ATOM     21  C   UNL     1       5.454   0.483  23.549  0.00  0.00    +0.019 A 
ENDBRANCH  12  13
ENDBRANCH  11  12
ENDBRANCH   7   8
ENDBRANCH   6   7
BRANCH  26  27
ATOM     27  C   UNL     1      -2.342  -0.421  24.666  0.00  0.00    +0.076 C 
BRANCH  27  28
ATOM     28  N   UNL     1      -3.011   0.047  24.786  0.00  0.00    -0.269 NA
ATOM     29  C   UNL     1      -3.028   0.590  25.406  0.00  0.00    +0.094 C 
ATOM     30  C   UNL     1      -3.698   1.058  25.527  0.00  0.00    +0.109 C 
ATOM     31  N   UNL     1      -4.349   0.982  25.026  0.00  0.00    -0.290 N 
ATOM     32  C   UNL     1      -4.331   0.438  24.405  0.00  0.00    +0.109 C 
ATOM     33  C   UNL     1      -3.662  -0.029  24.286  0.00  0.00    +0.094 C 
ATOM     34  C   UNL     1      -5.018   1.449  25.146  0.00  0.00    +0.132 A 
ATOM     35  N   UNL     1      -5.035   1.993  25.767  0.00  0.00    -0.229 NA
ATOM     36  C   UNL     1      -5.705   2.460  25.886  0.00  0.00    +0.100 A 
ATOM     37  C   UNL     1      -6.356   2.385  25.387  0.00  0.00    +0.021 A 
ATOM     38  C   UNL     1      -6.339   1.841  24.766  0.00  0.00    +0.004 A 
ATOM     39  C   UNL     1      -5.669   1.374  24.646  0.00  0.00    +0.034 A 
ENDBRANCH  27  28
ENDBRANCH  26  27
TORSDOF 7
ENDMDL
MODEL 7
REMARK VINA RESULT:     -10.2      1.706      4.721
REMARK  Name = 
REMARK  7 active torsions:
REMARK  status: ('A' for Active; 'I' for Inactive)
REMARK    1  A    between atoms: C_2  and  C_4
REMARK    2  A    between atoms: C_6  and  C_7
REMARK    3  A    between atoms: C_7  and  C_8
REMARK    4  A    between atoms: C_11  and  C_12
REMARK    5  A    between atoms: C_12  and  C_13
REMARK    6  A    between atoms: C_26  and  C_27
REMARK    7  A    between atoms: C_27  and  N_28
REMARK                            x       y       z     vdW  Elec       q    Type
REMARK                         _______ _______ _______ _____ _____    ______ ____
ROOT
ATOM      4  C   UNL     1       0.006  -0.247  23.828  0.00  0.00    +0.006 C 
ATOM      5  C   UNL     1      -0.204  -0.975  24.155  0.00  0.00    +0.005 C 
ATOM      6  C   UNL     1      -0.488  -1.011  24.930  0.00  0.00    +0.027 C 
ATOM     23  C   UNL     1      -0.561  -0.321  25.375  0.00  0.00    -0.048 C 
ATOM     24  C   UNL     1      -0.845  -0.358  26.149  0.00  0.00    +0.026 C 
ATOM     25  C   UNL     1      -0.351   0.406  25.047  0.00  0.00    -0.034 C 
ATOM     26  C   UNL     1      -0.067   0.444  24.274  0.00  0.00    +0.037 C 
ENDROOT
BRANCH   4   2
ATOM      1  C   UNL     1      -0.237  -0.235  22.420  0.00  0.00    +0.000 C 
ATOM      2  C   UNL     1       0.290  -0.209  23.054  0.00  0.00    +0.000 C 
ATOM      3  C   UNL     1       1.101  -0.147  22.914  0.00  0.00    +0.000 C 
ENDBRANCH   4   2
BRANCH   6   7
ATOM      7  C   UNL     1      -0.699  -1.739  25.257  0.00  0.00    +0.091 C 
BRANCH   7   8
ATOM      8  C   UNL     1      -1.421  -2.085  25.063  0.00  0.00    +0.226 A 
ATOM      9  N   UNL     1      -1.530  -2.843  24.757  0.00  0.00    -0.112 NA
ATOM     10  N   UNL     1      -2.339  -2.960  24.645  0.00  0.00    -0.111 NA
ATOM     11  C   UNL     1      -2.731  -2.274  24.882  0.00  0.00    +0.231 A 
ATOM     22  O   UNL     1      -2.164  -1.733  25.141  0.00  0.00    -0.423 OA
BRANCH  11  12
ATOM     12  C   UNL     1      -3.546  -2.151  24.865  0.00  0.00    +0.115 C 
BRANCH  12  13
ATOM     13  C   UNL     1      -3.861  -1.540  24.409  0.00  0.00    +0.008 A 
ATOM     14  C   UNL     1      -3.946  -1.541  23.588  0.00  0.00    +0.095 A 
ATOM     15  N   UNL     1      -4.283  -0.822  23.366  0.00  0.00    -0.244 NA
ATOM     16  C   UNL     1      -4.406  -0.376  24.049  0.00  0.00    +0.081 A 
ATOM     17  C   UNL     1      -4.145  -0.820  24.694  0.00  0.00    +0.016 A 
ATOM     18  C   UNL     1      -4.201  -0.510  25.456  0.00  0.00    +0.001 A 
ATOM     19  C   UNL     1      -4.516   0.242  25.575  0.00  0.00    +0.000 A 
ATOM     20  C   UNL     1      -4.778   0.685  24.930  0.00  0.00    +0.002 A 
ATOM     21  C   UNL     1      -4.723   0.377  24.167  0.00  0.00    +0.019 A 
ENDBRANCH  12  13
ENDBRANCH  11  12
ENDBRANCH   7   8
ENDBRANCH   6   7
BRANCH  26  27
ATOM     27  C   UNL     1       0.143   1.171  23.946  0.00  0.00    +0.076 C 
BRANCH  27  28
ATOM     28  N   UNL     1      -0.265   1.854  24.163  0.00  0.00    -0.269 NA
ATOM     29  C   UNL     1      -1.081   1.899  24.058  0.00  0.00    +0.094 C 
ATOM     30  C   UNL     1      -1.489   2.583  24.276  0.00  0.00    +0.109 C 
ATOM     31  N   UNL     1      -1.079   3.222  24.598  0.00  0.00    -0.290 N 
ATOM     32  C   UNL     1      -0.262   3.177  24.704  0.00  0.00    +0.109 C 
ATOM     33  C   UNL     1       0.145   2.493  24.486  0.00  0.00    +0.094 C 
ATOM     34  C   UNL     1      -1.486   3.906  24.816  0.00  0.00    +0.132 A 
ATOM     35  N   UNL     1      -2.303   3.950  24.710  0.00  0.00    -0.229 NA
ATOM     36  C   UNL     1      -2.710   4.634  24.928  0.00  0.00    +0.100 A 
ATOM     37  C   UNL     1      -2.301   5.273  25.250  0.00  0.00    +0.021 A 
ATOM     38  C   UNL     1      -1.484   5.228  25.356  0.00  0.00    +0.004 A 
ATOM     39  C   UNL     1      -1.077   4.544  25.138  0.00  0.00    +0.034 A 
ENDBRANCH  27  28
ENDBRANCH  26  27
TORSDOF 7
ENDMDL
MODEL 8
REMARK VINA RESULT:     -10.0      1.541      4.857
REMARK  Name = 
REMARK  7 active torsions:
REMARK  status: ('A' for Active; 'I' for Inactive)
REMARK    1  A    between atoms: C_2  and  C_4
REMARK    2  A    between atoms: C_6  and  C_7
REMARK    3  A    between atoms: C_7  and  C_8
REMARK    4  A    between atoms: C_11  and  C_12
REMARK    5  A    between atoms: C_12  and  C_13
REMARK    6  A    between atoms: C_26  and  C_27
REMARK    7  A    between atoms: C_27  and  N_28
REMARK                            x       y       z     vdW  Elec       q    Type
REMARK                         _______ _______ _______ _____ _____    ______ ____
ROOT
ATOM      4  C   UNL     1      -3.493  -1.213  24.415  0.00  0.00    +0.006 C 
ATOM      5  C   UNL     1      -2.728  -1.505  24.508  0.00  0.00    +0.005 C 
ATOM      6  C   UNL     1      -2.289  -1.305  25.178  0.00  0.00    +0.027 C 
ATOM     23  C   UNL     1      -2.615  -0.814  25.753  0.00  0.00    -0.048 C 
ATOM     24  C   UNL     1      -2.176  -0.614  26.423  0.00  0.00    +0.026 C 
ATOM     25  C   UNL     1      -3.382  -0.521  25.660  0.00  0.00    -0.034 C 
ATOM     26  C   UNL     1      -3.821  -0.721  24.991  0.00  0.00    +0.037 C 
ENDROOT
BRANCH   4   2
ATOM      1  C   UNL     1      -3.853  -0.972  23.053  0.00  0.00    +0.000 C 
ATOM      2  C   UNL     1      -3.933  -1.412  23.746  0.00  0.00    +0.000 C 
ATOM      3  C   UNL     1      -4.453  -2.053  23.769  0.00  0.00    +0.000 C 
ENDBRANCH   4   2
BRANCH   6   7
ATOM      7  C   UNL     1      -1.522  -1.598  25.271  0.00  0.00    +0.091 C 
BRANCH   7   8
ATOM      8  C   UNL     1      -0.894  -1.240  24.874  0.00  0.00    +0.226 A 
ATOM      9  N   UNL     1      -0.330  -1.626  24.412  0.00  0.00    -0.112 NA
ATOM     10  N   UNL     1       0.194  -1.057  24.123  0.00  0.00    -0.111 NA
ATOM     11  C   UNL     1      -0.046  -0.321  24.406  0.00  0.00    +0.231 A 
ATOM     22  O   UNL     1      -0.719  -0.433  24.871  0.00  0.00    -0.423 OA
BRANCH  11  12
ATOM     12  C   UNL     1       0.321   0.401  24.252  0.00  0.00    +0.115 C 
BRANCH  12  13
ATOM     13  C   UNL     1      -0.132   1.059  24.048  0.00  0.00    +0.008 A 
ATOM     14  C   UNL     1      -0.588   1.140  23.364  0.00  0.00    +0.095 A 
ATOM     15  N   UNL     1      -0.948   1.882  23.385  0.00  0.00    -0.244 NA
ATOM     16  C   UNL     1      -0.714   2.259  24.080  0.00  0.00    +0.081 A 
ATOM     17  C   UNL     1      -0.211   1.750  24.490  0.00  0.00    +0.016 A 
ATOM     18  C   UNL     1       0.112   1.984  25.213  0.00  0.00    +0.001 A 
ATOM     19  C   UNL     1      -0.069   2.724  25.526  0.00  0.00    +0.000 A 
ATOM     20  C   UNL     1      -0.573   3.233  25.116  0.00  0.00    +0.002 A 
ATOM     21  C   UNL     1      -0.896   3.001  24.394  0.00  0.00    +0.019 A 
ENDBRANCH  12  13
ENDBRANCH  11  12
ENDBRANCH   7   8
ENDBRANCH   6   7
BRANCH  26  27
ATOM     27  C   UNL     1      -4.586  -0.429  24.898  0.00  0.00    +0.076 C 
BRANCH  27  28
ATOM     28  N   UNL     1      -4.737   0.376  25.006  0.00  0.00    -0.269 NA
ATOM     29  C   UNL     1      -5.345   0.617  25.507  0.00  0.00    +0.094 C 
ATOM     30  C   UNL     1      -5.496   1.422  25.616  0.00  0.00    +0.109 C 
ATOM     31  N   UNL     1      -5.037   1.983  25.223  0.00  0.00    -0.290 N 
ATOM     32  C   UNL     1      -4.428   1.741  24.721  0.00  0.00    +0.109 C 
ATOM     33  C   UNL     1      -4.278   0.937  24.613  0.00  0.00    +0.094 C 
ATOM     34  C   UNL     1      -5.187   2.787  25.330  0.00  0.00    +0.132 A 
ATOM     35  N   UNL     1      -5.796   3.029  25.832  0.00  0.00    -0.229 NA
ATOM     36  C   UNL     1      -5.946   3.833  25.940  0.00  0.00    +0.100 A 
ATOM     37  C   UNL     1      -5.488   4.395  25.547  0.00  0.00    +0.021 A 
ATOM     38  C   UNL     1      -4.879   4.153  25.046  0.00  0.00    +0.004 A 
ATOM     39  C   UNL     1      -4.729   3.349  24.938  0.00  0.00    +0.034 A 
ENDBRANCH  27  28
ENDBRANCH  26  27
TORSDOF 7
ENDMDL
