MODEL 1
REMARK VINA RESULT:      -9.8      0.000      0.000
REMARK  Name = 
REMARK  11 active torsions:
REMARK  status: ('A' for Active; 'I' for Inactive)
REMARK    1  A    between atoms: O_2  and  C_3
REMARK    2  A    between atoms: C_3  and  C_4
REMARK    3  A    between atoms: N_6  and  C_7
REMARK    4  A    between atoms: C_11  and  C_13
REMARK    5  A    between atoms: N_15  and  C_16
REMARK    6  A    between atoms: C_16  and  C_17
REMARK    7  A    between atoms: C_16  and  C_27
REMARK    8  A    between atoms: C_17  and  C_18
REMARK    9  A    between atoms: C_27  and  O_29
REMARK   10  A    between atoms: C_31  and  C_33
REMARK   11  A    between atoms: C_33  and  O_34
REMARK                            x       y       z     vdW  Elec       q    Type
REMARK                         _______ _______ _______ _____ _____    ______ ____
ROOT
ATOM     13  C   UNL     1      -2.593   1.636  24.828  0.00  0.00    +0.260 C 
ATOM     14  O   UNL     1      -2.763   1.815  25.615  0.00  0.00    -0.272 OA
ATOM     15  N   UNL     1      -3.149   1.241  24.365  0.00  0.00    -0.194 NA
ENDROOT
BRANCH  13  11
ATOM      7  C   UNL     1      -0.732   1.544  23.689  0.00  0.00    +0.099 C 
ATOM      8  C   UNL     1      -0.412   2.286  23.855  0.00  0.00    +0.043 C 
ATOM      9  C   UNL     1      -0.818   2.811  24.344  0.00  0.00    +0.096 C 
ATOM     10  N   UNL     1      -1.545   2.594  24.669  0.00  0.00    -0.271 N 
ATOM     11  C   UNL     1      -1.866   1.853  24.503  0.00  0.00    +0.155 C 
ATOM     12  C   UNL     1      -1.459   1.328  24.013  0.00  0.00    +0.051 C 
ATOM     31  C   UNL     1      -1.951   3.120  25.159  0.00  0.00    +0.256 C 
ATOM     32  O   UNL     1      -2.678   2.903  25.483  0.00  0.00    -0.272 OA
BRANCH   7   6
ATOM      4  C   UNL     1       0.304   0.580  23.499  0.00  0.00    +0.272 C 
ATOM      5  O   UNL     1       0.529   0.665  24.288  0.00  0.00    -0.271 OA
ATOM      6  N   UNL     1      -0.327   1.019  23.199  0.00  0.00    -0.205 NA
BRANCH   4   3
ATOM      3  C   UNL     1       0.711   0.054  23.009  0.00  0.00    +0.229 C 
BRANCH   3   2
ATOM      1  C   UNL     1       1.931  -0.295  22.354  0.00  0.00    +0.175 C 
ATOM      2  O   UNL     1       1.535   0.075  22.975  0.00  0.00    -0.342 OA
ENDBRANCH   3   2
ENDBRANCH   4   3
ENDBRANCH   7   6
BRANCH  31  33
ATOM     33  C   UNL     1      -1.630   3.861  25.324  0.00  0.00    +0.227 C 
BRANCH  33  34
ATOM     34  O   UNL     1      -2.126   4.498  25.495  0.00  0.00    -0.342 OA
ATOM     35  C   UNL     1      -1.857   5.271  25.385  0.00  0.00    +0.175 C 
ENDBRANCH  33  34
ENDBRANCH  31  33
ENDBRANCH  13  11
BRANCH  15  16
ATOM     16  C   UNL     1      -3.876   1.024  24.689  0.00  0.00    +0.198 C 
BRANCH  16  27
ATOM     27  C   UNL     1      -4.526   1.527  24.618  0.00  0.00    +0.337 C 
ATOM     28  O   UNL     1      -4.656   1.936  23.912  0.00  0.00    -0.248 OA
BRANCH  27  29
ATOM     29  O   UNL     1      -5.047   1.621  25.251  0.00  0.00    -0.443 OA
ATOM     30  C   UNL     1      -5.742   2.055  25.152  0.00  0.00    +0.256 C 
ENDBRANCH  27  29
ENDBRANCH  16  27
BRANCH  16  17
ATOM     17  C   UNL     1      -3.953   0.304  25.085  0.00  0.00    +0.061 C 
BRANCH  17  18
ATOM     18  C   UNL     1      -4.001  -0.399  24.657  0.00  0.00    +0.001 A 
ATOM     19  C   UNL     1      -4.290  -0.481  23.888  0.00  0.00    +0.095 A 
ATOM     20  N   UNL     1      -4.236  -1.276  23.679  0.00  0.00    -0.244 NA
ATOM     21  C   UNL     1      -3.913  -1.687  24.317  0.00  0.00    +0.081 A 
ATOM     22  C   UNL     1      -3.768  -1.145  24.921  0.00  0.00    +0.015 A 
ATOM     23  C   UNL     1      -3.442  -1.400  25.635  0.00  0.00    +0.001 A 
ATOM     24  C   UNL     1      -3.261  -2.197  25.744  0.00  0.00    +0.000 A 
ATOM     25  C   UNL     1      -3.406  -2.740  25.139  0.00  0.00    +0.002 A 
ATOM     26  C   UNL     1      -3.732  -2.484  24.426  0.00  0.00    +0.019 A 
ENDBRANCH  17  18
ENDBRANCH  16  17
ENDBRANCH  15  16
TORSDOF 11
ENDMDL
MODEL 2
REMARK VINA RESULT:      -9.1      1.625      3.789
REMARK  Name = 
REMARK  11 active torsions:
REMARK  status: ('A' for Active; 'I' for Inactive)
REMARK    1  A    between atoms: O_2  and  C_3
REMARK    2  A    between atoms: C_3  and  C_4
REMARK    3  A    between atoms: N_6  and  C_7
REMARK    4  A    between atoms: C_11  and  C_13
REMARK    5  A    between atoms: N_15  and  C_16
REMARK    6  A    between atoms: C_16  and  C_17
REMARK    7  A    between atoms: C_16  and  C_27
REMARK    8  A    between atoms: C_17  and  C_18
REMARK    9  A    between atoms: C_27  and  O_29
REMARK   10  A    between atoms: C_31  and  C_33
REMARK   11  A    between atoms: C_33  and  O_34
REMARK                            x       y       z     vdW  Elec       q    Type
REMARK                         _______ _______ _______ _____ _____    ______ ____
ROOT
ATOM     13  C   UNL     1      -1.483   1.426  25.216  0.00  0.00    +0.260 C 
ATOM     14  O   UNL     1      -1.020   0.993  25.745  0.00  0.00    -0.272 OA
ATOM     15  N   UNL     1      -1.745   1.078  24.516  0.00  0.00    -0.194 NA
ENDROOT
BRANCH  13  11
ATOM      7  C   UNL     1      -2.591   3.306  25.278  0.00  0.00    +0.099 C 
ATOM      8  C   UNL     1      -2.082   3.771  25.731  0.00  0.00    +0.043 C 
ATOM      9  C   UNL     1      -1.374   3.456  26.011  0.00  0.00    +0.096 C 
ATOM     10  N   UNL     1      -1.174   2.674  25.839  0.00  0.00    -0.271 N 
ATOM     11  C   UNL     1      -1.682   2.208  25.387  0.00  0.00    +0.155 C 
ATOM     12  C   UNL     1      -2.392   2.524  25.107  0.00  0.00    +0.051 C 
ATOM     31  C   UNL     1      -0.465   2.358  26.120  0.00  0.00    +0.256 C 
ATOM     32  O   UNL     1      -0.265   1.576  25.948  0.00  0.00    -0.272 OA
BRANCH   7   6
ATOM      4  C   UNL     1      -3.980   3.585  25.463  0.00  0.00    +0.272 C 
ATOM      5  O   UNL     1      -3.952   3.234  26.209  0.00  0.00    -0.271 OA
ATOM      6  N   UNL     1      -3.299   3.621  24.998  0.00  0.00    -0.205 NA
BRANCH   4   3
ATOM      3  C   UNL     1      -4.689   3.901  25.183  0.00  0.00    +0.229 C 
BRANCH   3   2
ATOM      1  C   UNL     1      -6.034   4.295  25.460  0.00  0.00    +0.175 C 
ATOM      2  O   UNL     1      -5.380   3.821  25.626  0.00  0.00    -0.342 OA
ENDBRANCH   3   2
ENDBRANCH   4   3
ENDBRANCH   7   6
BRANCH  31  33
ATOM     33  C   UNL     1       0.044   2.824  26.572  0.00  0.00    +0.227 C 
BRANCH  33  34
ATOM     34  O   UNL     1       0.777   2.528  26.807  0.00  0.00    -0.342 OA
ATOM     35  C   UNL     1       1.110   2.770  27.522  0.00  0.00    +0.175 C 
ENDBRANCH  33  34
ENDBRANCH  31  33
ENDBRANCH  13  11
BRANCH  15  16
ATOM     16  C   UNL     1      -1.546   0.296  24.345  0.00  0.00    +0.198 C 
BRANCH  16  27
ATOM     27  C   UNL     1      -0.923   0.132  23.829  0.00  0.00    +0.337 C 
ATOM     28  O   UNL     1      -0.868   0.531  23.109  0.00  0.00    -0.248 OA
BRANCH  27  29
ATOM     29  O   UNL     1      -0.354  -0.430  24.034  0.00  0.00    -0.443 OA
ATOM     30  C   UNL     1       0.306  -0.542  23.552  0.00  0.00    +0.256 C 
ENDBRANCH  27  29
ENDBRANCH  16  27
BRANCH  16  17
ATOM     17  C   UNL     1      -1.969  -0.324  24.689  0.00  0.00    +0.061 C 
BRANCH  17  18
ATOM     18  C   UNL     1      -2.689  -0.562  24.363  0.00  0.00    +0.001 A 
ATOM     19  C   UNL     1      -3.188  -0.098  23.898  0.00  0.00    +0.095 A 
ATOM     20  N   UNL     1      -3.843  -0.556  23.693  0.00  0.00    -0.244 NA
ATOM     21  C   UNL     1      -3.749  -1.302  24.032  0.00  0.00    +0.081 A 
ATOM     22  C   UNL     1      -3.036  -1.306  24.446  0.00  0.00    +0.015 A 
ATOM     23  C   UNL     1      -2.794  -1.986  24.845  0.00  0.00    +0.001 A 
ATOM     24  C   UNL     1      -3.265  -2.663  24.829  0.00  0.00    +0.000 A 
ATOM     25  C   UNL     1      -3.979  -2.659  24.415  0.00  0.00    +0.002 A 
ATOM     26  C   UNL     1      -4.220  -1.979  24.016  0.00  0.00    +0.019 A 
ENDBRANCH  17  18
ENDBRANCH  16  17
ENDBRANCH  15  16
TORSDOF 11
ENDMDL
MODEL 3
REMARK VINA RESULT:      -9.0      1.791      2.559
REMARK  Name = 
REMARK  11 active torsions:
REMARK  status: ('A' for Active; 'I' for Inactive)
REMARK    1  A    between atoms: O_2  and  C_3
REMARK    2  A    between atoms: C_3  and  C_4
REMARK    3  A    between atoms: N_6  and  C_7
REMARK    4  A    between atoms: C_11  and  C_13
REMARK    5  A    between atoms: N_15  and  C_16
REMARK    6  A    between atoms: C_16  and  C_17
REMARK    7  A    between atoms: C_16  and  C_27
REMARK    8  A    between atoms: C_17  and  C_18
REMARK    9  A    between atoms: C_27  and  O_29
REMARK   10  A    between atoms: C_31  and  C_33
REMARK   11  A    between atoms: C_33  and  O_34
REMARK                            x       y       z     vdW  Elec       q    Type
REMARK                         _______ _______ _______ _____ _____    ______ ____
ROOT
ATOM     13  C   UNL     1      -3.385   1.789  24.347  0.00  0.00    +0.260 C 
ATOM     14  O   UNL     1      -3.932   1.966  23.755  0.00  0.00    -0.272 OA
ATOM     15  N   UNL     1      -3.584   1.261  24.949  0.00  0.00    -0.194 NA
ENDROOT
BRANCH  13  11
ATOM      7  C   UNL     1      -1.521   2.693  25.038  0.00  0.00    +0.099 C 
ATOM      8  C   UNL     1      -1.147   2.845  24.319  0.00  0.00    +0.043 C 
ATOM      9  C   UNL     1      -1.517   2.646  23.610  0.00  0.00    +0.096 C 
ATOM     10  N   UNL     1      -2.263   2.294  23.620  0.00  0.00    -0.271 N 
ATOM     11  C   UNL     1      -2.639   2.141  24.338  0.00  0.00    +0.155 C 
ATOM     12  C   UNL     1      -2.268   2.341  25.048  0.00  0.00    +0.051 C 
ATOM     31  C   UNL     1      -2.635   2.094  22.910  0.00  0.00    +0.256 C 
ATOM     32  O   UNL     1      -3.381   1.742  22.919  0.00  0.00    -0.272 OA
BRANCH   7   6
ATOM      4  C   UNL     1      -0.488   2.471  25.998  0.00  0.00    +0.272 C 
ATOM      5  O   UNL     1      -0.195   1.850  25.541  0.00  0.00    -0.271 OA
ATOM      6  N   UNL     1      -1.151   2.892  25.747  0.00  0.00    -0.205 NA
BRANCH   4   3
ATOM      3  C   UNL     1      -0.116   2.670  26.708  0.00  0.00    +0.229 C 
BRANCH   3   2
ATOM      1  C   UNL     1       1.020   2.598  27.571  0.00  0.00    +0.175 C 
ATOM      2  O   UNL     1       0.667   2.448  26.841  0.00  0.00    -0.342 OA
ENDBRANCH   3   2
ENDBRANCH   4   3
ENDBRANCH   7   6
BRANCH  31  33
ATOM     33  C   UNL     1      -2.259   2.246  22.191  0.00  0.00    +0.227 C 
BRANCH  33  34
ATOM     34  O   UNL     1      -2.525   1.882  21.501  0.00  0.00    -0.342 OA
ATOM     35  C   UNL     1      -2.437   2.262  20.774  0.00  0.00    +0.175 C 
ENDBRANCH  33  34
ENDBRANCH  31  33
ENDBRANCH  13  11
BRANCH  15  16
ATOM     16  C   UNL     1      -4.330   0.909  24.958  0.00  0.00    +0.198 C 
BRANCH  16  27
ATOM     27  C   UNL     1      -4.972   1.311  25.284  0.00  0.00    +0.337 C 
ATOM     28  O   UNL     1      -4.899   1.678  26.020  0.00  0.00    -0.248 OA
BRANCH  27  29
ATOM     29  O   UNL     1      -5.688   1.347  24.874  0.00  0.00    -0.443 OA
ATOM     30  C   UNL     1      -6.324   1.764  25.193  0.00  0.00    +0.256 C 
ENDBRANCH  27  29
ENDBRANCH  16  27
BRANCH  16  17
ATOM     17  C   UNL     1      -4.434   0.153  24.642  0.00  0.00    +0.061 C 
BRANCH  17  18
ATOM     18  C   UNL     1      -4.084  -0.499  25.007  0.00  0.00    +0.001 A 
ATOM     19  C   UNL     1      -3.759  -0.513  25.765  0.00  0.00    +0.095 A 
ATOM     20  N   UNL     1      -3.472  -1.273  25.905  0.00  0.00    -0.244 NA
ATOM     21  C   UNL     1      -3.621  -1.729  25.233  0.00  0.00    +0.081 A 
ATOM     22  C   UNL     1      -3.999  -1.250  24.679  0.00  0.00    +0.015 A 
ATOM     23  C   UNL     1      -4.217  -1.560  23.946  0.00  0.00    +0.001 A 
ATOM     24  C   UNL     1      -4.057  -2.349  23.768  0.00  0.00    +0.000 A 
ATOM     25  C   UNL     1      -3.678  -2.829  24.322  0.00  0.00    +0.002 A 
ATOM     26  C   UNL     1      -3.460  -2.518  25.055  0.00  0.00    +0.019 A 
ENDBRANCH  17  18
ENDBRANCH  16  17
ENDBRANCH  15  16
TORSDOF 11
ENDMDL
MODEL 4
REMARK VINA RESULT:      -8.8      1.684      4.174
REMARK  Name = 
REMARK  11 active torsions:
REMARK  status: ('A' for Active; 'I' for Inactive)
REMARK    1  A    between atoms: O_2  and  C_3
REMARK    2  A    between atoms: C_3  and  C_4
REMARK    3  A    between atoms: N_6  and  C_7
REMARK    4  A    between atoms: C_11  and  C_13
REMARK    5  A    between atoms: N_15  and  C_16
REMARK    6  A    between atoms: C_16  and  C_17
REMARK    7  A    between atoms: C_16  and  C_27
REMARK    8  A    between atoms: C_17  and  C_18
REMARK    9  A    between atoms: C_27  and  O_29
REMARK   10  A    between atoms: C_31  and  C_33
REMARK   11  A    between atoms: C_33  and  O_34
REMARK                            x       y       z     vdW  Elec       q    Type
REMARK                         _______ _______ _______ _____ _____    ______ ____
ROOT
ATOM     13  C   UNL     1      -2.029   0.556  24.148  0.00  0.00    +0.260 C 
ATOM     14  O   UNL     1      -2.789   0.359  24.402  0.00  0.00    -0.272 OA
ATOM     15  N   UNL     1      -1.880   1.303  23.832  0.00  0.00    -0.194 NA
ENDROOT
BRANCH  13  11
ATOM      7  C   UNL     1      -0.027  -0.316  24.130  0.00  0.00    +0.099 C 
ATOM      8  C   UNL     1      -0.196  -1.096  24.337  0.00  0.00    +0.043 C 
ATOM      9  C   UNL     1      -0.974  -1.326  24.481  0.00  0.00    +0.096 C 
ATOM     10  N   UNL     1      -1.585  -0.775  24.418  0.00  0.00    -0.271 N 
ATOM     11  C   UNL     1      -1.418   0.005  24.211  0.00  0.00    +0.155 C 
ATOM     12  C   UNL     1      -0.638   0.235  24.067  0.00  0.00    +0.051 C 
ATOM     31  C   UNL     1      -2.365  -1.005  24.563  0.00  0.00    +0.256 C 
ATOM     32  O   UNL     1      -2.976  -0.454  24.500  0.00  0.00    -0.272 OA
BRANCH   7   6
ATOM      4  C   UNL     1       1.063  -0.140  23.223  0.00  0.00    +0.272 C 
ATOM      5  O   UNL     1       0.596  -0.425  22.606  0.00  0.00    -0.271 OA
ATOM      6  N   UNL     1       0.751  -0.086  23.985  0.00  0.00    -0.205 NA
BRANCH   4   3
ATOM      3  C   UNL     1       1.843   0.090  23.079  0.00  0.00    +0.229 C 
BRANCH   3   2
ATOM      1  C   UNL     1       2.962   0.177  22.196  0.00  0.00    +0.175 C 
ATOM      2  O   UNL     1       2.173  -0.020  22.331  0.00  0.00    -0.342 OA
ENDBRANCH   3   2
ENDBRANCH   4   3
ENDBRANCH   7   6
BRANCH  31  33
ATOM     33  C   UNL     1      -2.533  -1.786  24.770  0.00  0.00    +0.227 C 
BRANCH  33  34
ATOM     34  O   UNL     1      -3.316  -2.039  24.828  0.00  0.00    -0.342 OA
ATOM     35  C   UNL     1      -3.485  -2.844  24.890  0.00  0.00    +0.175 C 
ENDBRANCH  33  34
ENDBRANCH  31  33
ENDBRANCH  13  11
BRANCH  15  16
ATOM     16  C   UNL     1      -2.491   1.853  23.769  0.00  0.00    +0.198 C 
BRANCH  16  27
ATOM     27  C   UNL     1      -2.850   1.990  23.039  0.00  0.00    +0.337 C 
ATOM     28  O   UNL     1      -3.672   2.059  22.991  0.00  0.00    -0.248 OA
BRANCH  27  29
ATOM     29  O   UNL     1      -2.390   2.056  22.358  0.00  0.00    -0.443 OA
ATOM     30  C   UNL     1      -2.748   2.222  21.633  0.00  0.00    +0.256 C 
ENDBRANCH  27  29
ENDBRANCH  16  27
BRANCH  16  17
ATOM     17  C   UNL     1      -2.742   2.269  24.436  0.00  0.00    +0.061 C 
BRANCH  17  18
ATOM     18  C   UNL     1      -2.335   2.944  24.680  0.00  0.00    +0.001 A 
ATOM     19  C   UNL     1      -1.593   3.186  24.413  0.00  0.00    +0.095 A 
ATOM     20  N   UNL     1      -1.398   3.886  24.801  0.00  0.00    -0.244 NA
ATOM     21  C   UNL     1      -2.020   4.077  25.309  0.00  0.00    +0.081 A 
ATOM     22  C   UNL     1      -2.599   3.495  25.234  0.00  0.00    +0.015 A 
ATOM     23  C   UNL     1      -3.292   3.542  25.680  0.00  0.00    +0.001 A 
ATOM     24  C   UNL     1      -3.405   4.171  26.201  0.00  0.00    +0.000 A 
ATOM     25  C   UNL     1      -2.826   4.754  26.276  0.00  0.00    +0.002 A 
ATOM     26  C   UNL     1      -2.133   4.707  25.830  0.00  0.00    +0.019 A 
ENDBRANCH  17  18
ENDBRANCH  16  17
ENDBRANCH  15  16
TORSDOF 11
ENDMDL
MODEL 5
REMARK VINA RESULT:      -8.7      1.729      3.674
REMARK  Name = 
REMARK  11 active torsions:
REMARK  status: ('A' for Active; 'I' for Inactive)
REMARK    1  A    between atoms: O_2  and  C_3
REMARK    2  A    between atoms: C_3  and  C_4
REMARK    3  A    between atoms: N_6  and  C_7
REMARK    4  A    between atoms: C_11  and  C_13
REMARK    5  A    between atoms: N_15  and  C_16
REMARK    6  A    between atoms: C_16  and  C_17
REMARK    7  A    between atoms: C_16  and  C_27
REMARK    8  A    between atoms: C_17  and  C_18
REMARK    9  A    between atoms: C_27  and  O_29
REMARK   10  A    between atoms: C_31  and  C_33
REMARK   11  A    between atoms: C_33  and  O_34
REMARK                            x       y       z     vdW  Elec       q    Type
REMARK                         _______ _______ _______ _____ _____    ______ ____
ROOT
ATOM     13  C   UNL     1      -0.992   0.944  24.900  0.00  0.00    +0.260 C 
ATOM     14  O   UNL     1      -1.046   0.807  25.711  0.00  0.00    -0.272 OA
ATOM     15  N   UNL     1      -1.317   1.628  24.574  0.00  0.00    -0.194 NA
ENDROOT
BRANCH  13  11
ATOM      7  C   UNL     1       0.369   0.096  23.418  0.00  0.00    +0.099 C 
ATOM      8  C   UNL     1       0.149  -0.699  23.442  0.00  0.00    +0.043 C 
ATOM      9  C   UNL     1      -0.451  -0.946  23.951  0.00  0.00    +0.096 C 
ATOM     10  N   UNL     1      -0.831  -0.398  24.437  0.00  0.00    -0.271 N 
ATOM     11  C   UNL     1      -0.611   0.397  24.414  0.00  0.00    +0.155 C 
ATOM     12  C   UNL     1      -0.011   0.644  23.904  0.00  0.00    +0.051 C 
ATOM     31  C   UNL     1      -1.431  -0.645  24.947  0.00  0.00    +0.256 C 
ATOM     32  O   UNL     1      -1.812  -0.097  25.433  0.00  0.00    -0.272 OA
BRANCH   7   6
ATOM      4  C   UNL     1       1.725   0.021  22.976  0.00  0.00    +0.272 C 
ATOM      5  O   UNL     1       1.882  -0.548  23.552  0.00  0.00    -0.271 OA
ATOM      6  N   UNL     1       0.969   0.343  22.909  0.00  0.00    -0.205 NA
BRANCH   4   3
ATOM      3  C   UNL     1       2.326   0.268  22.466  0.00  0.00    +0.229 C 
BRANCH   3   2
ATOM      1  C   UNL     1       3.686   0.673  22.301  0.00  0.00    +0.175 C 
ATOM      2  O   UNL     1       3.112   0.250  22.715  0.00  0.00    -0.342 OA
ENDBRANCH   3   2
ENDBRANCH   4   3
ENDBRANCH   7   6
BRANCH  31  33
ATOM     33  C   UNL     1      -1.651  -1.440  24.970  0.00  0.00    +0.227 C 
BRANCH  33  34
ATOM     34  O   UNL     1      -2.394  -1.655  25.256  0.00  0.00    -0.342 OA
ATOM     35  C   UNL     1      -2.701  -2.401  25.085  0.00  0.00    +0.175 C 
ENDBRANCH  33  34
ENDBRANCH  31  33
ENDBRANCH  13  11
BRANCH  15  16
ATOM     16  C   UNL     1      -1.697   2.176  25.060  0.00  0.00    +0.198 C 
BRANCH  16  27
ATOM     27  C   UNL     1      -1.282   2.827  25.351  0.00  0.00    +0.337 C 
ATOM     28  O   UNL     1      -1.275   2.981  26.163  0.00  0.00    -0.248 OA
BRANCH  27  29
ATOM     29  O   UNL     1      -0.876   3.324  24.833  0.00  0.00    -0.443 OA
ATOM     30  C   UNL     1      -0.520   4.013  25.116  0.00  0.00    +0.256 C 
ENDBRANCH  27  29
ENDBRANCH  16  27
BRANCH  16  17
ATOM     17  C   UNL     1      -2.493   2.073  25.255  0.00  0.00    +0.061 C 
BRANCH  17  18
ATOM     18  C   UNL     1      -3.081   2.333  24.738  0.00  0.00    +0.001 A 
ATOM     19  C   UNL     1      -2.959   2.726  24.022  0.00  0.00    +0.095 A 
ATOM     20  N   UNL     1      -3.696   2.882  23.689  0.00  0.00    -0.244 NA
ATOM     21  C   UNL     1      -4.274   2.585  24.197  0.00  0.00    +0.081 A 
ATOM     22  C   UNL     1      -3.894   2.247  24.846  0.00  0.00    +0.015 A 
ATOM     23  C   UNL     1      -4.336   1.902  25.451  0.00  0.00    +0.001 A 
ATOM     24  C   UNL     1      -5.160   1.897  25.408  0.00  0.00    +0.000 A 
ATOM     25  C   UNL     1      -5.541   2.236  24.759  0.00  0.00    +0.002 A 
ATOM     26  C   UNL     1      -5.098   2.580  24.154  0.00  0.00    +0.019 A 
ENDBRANCH  17  18
ENDBRANCH  16  17
ENDBRANCH  15  16
TORSDOF 11
ENDMDL
MODEL 6
REMARK VINA RESULT:      -8.7      1.814      4.593
REMARK  Name = 
REMARK  11 active torsions:
REMARK  status: ('A' for Active; 'I' for Inactive)
REMARK    1  A    between atoms: O_2  and  C_3
REMARK    2  A    between atoms: C_3  and  C_4
REMARK    3  A    between atoms: N_6  and  C_7
REMARK    4  A    between atoms: C_11  and  C_13
REMARK    5  A    between atoms: N_15  and  C_16
REMARK    6  A    between atoms: C_16  and  C_17
REMARK    7  A    between atoms: C_16  and  C_27
REMARK    8  A    between atoms: C_17  and  C_18
REMARK    9  A    between atoms: C_27  and  O_29
REMARK   10  A    between atoms: C_31  and  C_33
REMARK   11  A    between atoms: C_33  and  O_34
REMARK                            x       y       z     vdW  Elec       q    Type
REMARK                         _______ _______ _______ _____ _____    ______ ____
ROOT
ATOM     13  C   UNL     1      -0.638   1.184  24.530  0.00  0.00    +0.260 C 
ATOM     14  O   UNL     1      -0.256   1.630  23.950  0.00  0.00    -0.272 OA
ATOM     15  N   UNL     1      -1.001   1.560  25.168  0.00  0.00    -0.194 NA
ENDROOT
BRANCH  13  11
ATOM      7  C   UNL     1      -1.263  -0.890  24.804  0.00  0.00    +0.099 C 
ATOM      8  C   UNL     1      -0.694  -1.284  24.354  0.00  0.00    +0.043 C 
ATOM      9  C   UNL     1      -0.107  -0.856  23.964  0.00  0.00    +0.096 C 
ATOM     10  N   UNL     1      -0.089  -0.034  24.022  0.00  0.00    -0.271 N 
ATOM     11  C   UNL     1      -0.657   0.361  24.472  0.00  0.00    +0.155 C 
ATOM     12  C   UNL     1      -1.244  -0.067  24.863  0.00  0.00    +0.051 C 
ATOM     31  C   UNL     1       0.499   0.395  23.631  0.00  0.00    +0.256 C 
ATOM     32  O   UNL     1       0.517   1.218  23.690  0.00  0.00    -0.272 OA
BRANCH   7   6
ATOM      4  C   UNL     1      -2.517  -1.572  24.783  0.00  0.00    +0.272 C 
ATOM      5  O   UNL     1      -2.599  -1.399  23.980  0.00  0.00    -0.271 OA
ATOM      6  N   UNL     1      -1.849  -1.318  25.194  0.00  0.00    -0.205 NA
BRANCH   4   3
ATOM      3  C   UNL     1      -3.105  -2.001  25.174  0.00  0.00    +0.229 C 
BRANCH   3   2
ATOM      1  C   UNL     1      -3.844  -3.176  24.838  0.00  0.00    +0.175 C 
ATOM      2  O   UNL     1      -3.703  -2.370  24.741  0.00  0.00    -0.342 OA
ENDBRANCH   3   2
ENDBRANCH   4   3
ENDBRANCH   7   6
BRANCH  31  33
ATOM     33  C   UNL     1       1.067   0.000  23.182  0.00  0.00    +0.227 C 
BRANCH  33  34
ATOM     34  O   UNL     1       1.715   0.412  22.882  0.00  0.00    -0.342 OA
ATOM     35  C   UNL     1       2.298   0.010  22.458  0.00  0.00    +0.175 C 
ENDBRANCH  33  34
ENDBRANCH  31  33
ENDBRANCH  13  11
BRANCH  15  16
ATOM     16  C   UNL     1      -0.982   2.383  25.227  0.00  0.00    +0.198 C 
BRANCH  16  27
ATOM     27  C   UNL     1      -0.428   2.749  25.715  0.00  0.00    +0.337 C 
ATOM     28  O   UNL     1      -0.049   3.439  25.464  0.00  0.00    -0.248 OA
BRANCH  27  29
ATOM     29  O   UNL     1      -0.251   2.428  26.454  0.00  0.00    -0.443 OA
ATOM     30  C   UNL     1       0.396   2.710  26.882  0.00  0.00    +0.256 C 
ENDBRANCH  27  29
ENDBRANCH  16  27
BRANCH  16  17
ATOM     17  C   UNL     1      -1.519   2.840  24.797  0.00  0.00    +0.061 C 
BRANCH  17  18
ATOM     18  C   UNL     1      -2.256   3.022  25.118  0.00  0.00    +0.001 A 
ATOM     19  C   UNL     1      -2.414   3.173  25.914  0.00  0.00    +0.095 A 
ATOM     20  N   UNL     1      -3.221   3.329  25.988  0.00  0.00    -0.244 NA
ATOM     21  C   UNL     1      -3.561   3.274  25.238  0.00  0.00    +0.081 A 
ATOM     22  C   UNL     1      -2.965   3.084  24.701  0.00  0.00    +0.015 A 
ATOM     23  C   UNL     1      -3.144   2.992  23.901  0.00  0.00    +0.001 A 
ATOM     24  C   UNL     1      -3.920   3.090  23.638  0.00  0.00    +0.000 A 
ATOM     25  C   UNL     1      -4.517   3.280  24.176  0.00  0.00    +0.002 A 
ATOM     26  C   UNL     1      -4.337   3.372  24.976  0.00  0.00    +0.019 A 
ENDBRANCH  17  18
ENDBRANCH  16  17
ENDBRANCH  15  16
TORSDOF 11
ENDMDL
MODEL 7
REMARK VINA RESULT:      -8.6      1.704      3.803
REMARK  Name = 
REMARK  11 active torsions:
REMARK  status: ('A' for Active; 'I' for Inactive)
REMARK    1  A    between atoms: O_2  and  C_3
REMARK    2  A    between atoms: C_3  and  C_4
REMARK    3  A    between atoms: N_6  and  C_7
REMARK    4  A    between atoms: C_11  and  C_13
REMARK    5  A    between atoms: N_15  and  C_16
REMARK    6  A    between atoms: C_16  and  C_17
REMARK    7  A    between atoms: C_16  and  C_27
REMARK    8  A    between atoms: C_17  and  C_18
REMARK    9  A    between atoms: C_27  and  O_29
REMARK   10  A    between atoms: C_31  and  C_33
REMARK   11  A    between atoms: C_33  and  O_34
REMARK                            x       y       z     vdW  Elec       q    Type
REMARK                         _______ _______ _______ _____ _____    ______ ____
ROOT
ATOM     13  C   UNL     1      -2.384   0.289  24.875  0.00  0.00    +0.260 C 
ATOM     14  O   UNL     1      -2.542  -0.249  25.479  0.00  0.00    -0.272 OA
ATOM     15  N   UNL     1      -2.977   0.500  24.343  0.00  0.00    -0.194 NA
ENDROOT
BRANCH  13  11
ATOM      7  C   UNL     1      -0.790   1.744  24.541  0.00  0.00    +0.099 C 
ATOM      8  C   UNL     1      -0.122   1.272  24.657  0.00  0.00    +0.043 C 
ATOM      9  C   UNL     1      -0.209   0.474  24.846  0.00  0.00    +0.096 C 
ATOM     10  N   UNL     1      -0.962   0.147  24.918  0.00  0.00    -0.271 N 
ATOM     11  C   UNL     1      -1.630   0.617  24.802  0.00  0.00    +0.155 C 
ATOM     12  C   UNL     1      -1.543   1.416  24.613  0.00  0.00    +0.051 C 
ATOM     31  C   UNL     1      -1.049  -0.653  25.107  0.00  0.00    +0.256 C 
ATOM     32  O   UNL     1      -1.802  -0.980  25.179  0.00  0.00    -0.272 OA
BRANCH   7   6
ATOM      4  C   UNL     1      -0.691   3.108  24.952  0.00  0.00    +0.272 C 
ATOM      5  O   UNL     1      -0.765   2.876  25.740  0.00  0.00    -0.271 OA
ATOM      6  N   UNL     1      -0.704   2.541  24.352  0.00  0.00    -0.205 NA
BRANCH   4   3
ATOM      3  C   UNL     1      -0.605   3.907  24.764  0.00  0.00    +0.229 C 
BRANCH   3   2
ATOM      1  C   UNL     1      -1.025   5.260  24.943  0.00  0.00    +0.175 C 
ATOM      2  O   UNL     1      -0.997   4.481  25.209  0.00  0.00    -0.342 OA
ENDBRANCH   3   2
ENDBRANCH   4   3
ENDBRANCH   7   6
BRANCH  31  33
ATOM     33  C   UNL     1      -0.381  -1.123  25.223  0.00  0.00    +0.227 C 
BRANCH  33  34
ATOM     34  O   UNL     1      -0.465  -1.930  25.373  0.00  0.00    -0.342 OA
ATOM     35  C   UNL     1       0.200  -2.417  25.390  0.00  0.00    +0.175 C 
ENDBRANCH  33  34
ENDBRANCH  31  33
ENDBRANCH  13  11
BRANCH  15  16
ATOM     16  C   UNL     1      -3.731   0.172  24.415  0.00  0.00    +0.198 C 
BRANCH  16  27
ATOM     27  C   UNL     1      -3.947  -0.473  23.949  0.00  0.00    +0.337 C 
ATOM     28  O   UNL     1      -3.788  -0.468  23.139  0.00  0.00    -0.248 OA
BRANCH  27  29
ATOM     29  O   UNL     1      -4.323  -1.123  24.292  0.00  0.00    -0.443 OA
ATOM     30  C   UNL     1      -4.449  -1.807  23.848  0.00  0.00    +0.256 C 
ENDBRANCH  27  29
ENDBRANCH  16  27
BRANCH  16  17
ATOM     17  C   UNL     1      -4.269   0.490  24.955  0.00  0.00    +0.061 C 
BRANCH  17  18
ATOM     18  C   UNL     1      -4.619   1.223  24.806  0.00  0.00    +0.001 A 
ATOM     19  C   UNL     1      -4.471   1.707  24.154  0.00  0.00    +0.095 A 
ATOM     20  N   UNL     1      -4.938   2.382  24.228  0.00  0.00    -0.244 NA
ATOM     21  C   UNL     1      -5.374   2.316  24.925  0.00  0.00    +0.081 A 
ATOM     22  C   UNL     1      -5.177   1.600  25.282  0.00  0.00    +0.015 A 
ATOM     23  C   UNL     1      -5.530   1.382  25.995  0.00  0.00    +0.001 A 
ATOM     24  C   UNL     1      -6.081   1.882  26.352  0.00  0.00    +0.000 A 
ATOM     25  C   UNL     1      -6.279   2.599  25.994  0.00  0.00    +0.002 A 
ATOM     26  C   UNL     1      -5.925   2.816  25.281  0.00  0.00    +0.019 A 
ENDBRANCH  17  18
ENDBRANCH  16  17
ENDBRANCH  15  16
TORSDOF 11
ENDMDL
MODEL 8
REMARK VINA RESULT:      -8.6      2.080      3.654
REMARK  Name = 
REMARK  11 active torsions:
REMARK  status: ('A' for Active; 'I' for Inactive)
REMARK    1  A    between atoms: O_2  and  C_3
REMARK    2  A    between atoms: C_3  and  C_4
REMARK    3  A    between atoms: N_6  and  C_7
REMARK    4  A    between atoms: C_11  and  C_13
REMARK    5  A    between atoms: N_15  and  C_16
REMARK    6  A    between atoms: C_16  and  C_17
REMARK    7  A    between atoms: C_16  and  C_27
REMARK    8  A    between atoms: C_17  and  C_18
REMARK    9  A    between atoms: C_27  and  O_29
REMARK   10  A    between atoms: C_31  and  C_33
REMARK   11  A    between atoms: C_33  and  O_34
REMARK                            x       y       z     vdW  Elec       q    Type
REMARK                         _______ _______ _______ _____ _____    ______ ____
ROOT
ATOM     13  C   UNL     1      -1.897   1.573  24.395  0.00  0.00    +0.260 C 
ATOM     14  O   UNL     1      -1.502   2.296  24.426  0.00  0.00    -0.272 OA
ATOM     15  N   UNL     1      -2.634   1.520  24.030  0.00  0.00    -0.194 NA
ENDROOT
BRANCH  13  11
ATOM      7  C   UNL     1      -1.446  -0.522  24.817  0.00  0.00    +0.099 C 
ATOM      8  C   UNL     1      -0.867  -0.441  25.400  0.00  0.00    +0.043 C 
ATOM      9  C   UNL     1      -0.632   0.309  25.648  0.00  0.00    +0.096 C 
ATOM     10  N   UNL     1      -0.976   0.980  25.313  0.00  0.00    -0.271 N 
ATOM     11  C   UNL     1      -1.554   0.901  24.730  0.00  0.00    +0.155 C 
ATOM     12  C   UNL     1      -1.789   0.150  24.482  0.00  0.00    +0.051 C 
ATOM     31  C   UNL     1      -0.741   1.732  25.561  0.00  0.00    +0.256 C 
ATOM     32  O   UNL     1      -1.084   2.403  25.227  0.00  0.00    -0.272 OA
BRANCH   7   6
ATOM      4  C   UNL     1      -2.283  -1.668  24.968  0.00  0.00    +0.272 C 
ATOM      5  O   UNL     1      -2.651  -1.315  25.616  0.00  0.00    -0.271 OA
ATOM      6  N   UNL     1      -1.681  -1.272  24.568  0.00  0.00    -0.205 NA
BRANCH   4   3
ATOM      3  C   UNL     1      -2.519  -2.420  24.720  0.00  0.00    +0.229 C 
BRANCH   3   2
ATOM      1  C   UNL     1      -3.636  -3.227  24.344  0.00  0.00    +0.175 C 
ATOM      2  O   UNL     1      -3.293  -2.673  24.850  0.00  0.00    -0.342 OA
ENDBRANCH   3   2
ENDBRANCH   4   3
ENDBRANCH   7   6
BRANCH  31  33
ATOM     33  C   UNL     1      -0.162   1.811  26.144  0.00  0.00    +0.227 C 
BRANCH  33  34
ATOM     34  O   UNL     1       0.007   2.554  26.460  0.00  0.00    -0.342 OA
ATOM     35  C   UNL     1       0.569   2.628  27.060  0.00  0.00    +0.175 C 
ENDBRANCH  33  34
ENDBRANCH  31  33
ENDBRANCH  13  11
BRANCH  15  16
ATOM     16  C   UNL     1      -2.978   2.191  23.696  0.00  0.00    +0.198 C 
BRANCH  16  27
ATOM     27  C   UNL     1      -2.828   2.383  22.907  0.00  0.00    +0.337 C 
ATOM     28  O   UNL     1      -2.682   3.167  22.694  0.00  0.00    -0.248 OA
BRANCH  27  29
ATOM     29  O   UNL     1      -2.823   1.791  22.333  0.00  0.00    -0.443 OA
ATOM     30  C   UNL     1      -2.678   1.984  21.544  0.00  0.00    +0.256 C 
ENDBRANCH  27  29
ENDBRANCH  16  27
BRANCH  16  17
ATOM     17  C   UNL     1      -3.472   2.672  24.150  0.00  0.00    +0.061 C 
BRANCH  17  18
ATOM     18  C   UNL     1      -4.207   2.391  24.398  0.00  0.00    +0.001 A 
ATOM     19  C   UNL     1      -4.542   1.665  24.196  0.00  0.00    +0.095 A 
ATOM     20  N   UNL     1      -5.277   1.612  24.565  0.00  0.00    -0.244 NA
ATOM     21  C   UNL     1      -5.396   2.305  24.996  0.00  0.00    +0.081 A 
ATOM     22  C   UNL     1      -4.735   2.787  24.893  0.00  0.00    +0.015 A 
ATOM     23  C   UNL     1      -4.699   3.523  25.262  0.00  0.00    +0.001 A 
ATOM     24  C   UNL     1      -5.325   3.778  25.735  0.00  0.00    +0.000 A 
ATOM     25  C   UNL     1      -5.987   3.297  25.839  0.00  0.00    +0.002 A 
ATOM     26  C   UNL     1      -6.022   2.560  25.469  0.00  0.00    +0.019 A 
ENDBRANCH  17  18
ENDBRANCH  16  17
ENDBRANCH  15  16
TORSDOF 11
ENDMDL
MODEL 9
REMARK VINA RESULT:      -8.3      1.812      3.554
REMARK  Name = 
REMARK  11 active torsions:
REMARK  status: ('A' for Active; 'I' for Inactive)
REMARK    1  A    between atoms: O_2  and  C_3
REMARK    2  A    between atoms: C_3  and  C_4
REMARK    3  A    between atoms: N_6  and  C_7
REMARK    4  A    between atoms: C_11  and  C_13
REMARK    5  A    between atoms: N_15  and  C_16
REMARK    6  A    between atoms: C_16  and  C_17
REMARK    7  A    between atoms: C_16  and  C_27
REMARK    8  A    between atoms: C_17  and  C_18
REMARK    9  A    between atoms: C_27  and  O_29
REMARK   10  A    between atoms: C_31  and  C_33
REMARK   11  A    between atoms: C_33  and  O_34
REMARK                            x       y       z     vdW  Elec       q    Type
REMARK                         _______ _______ _______ _____ _____    ______ ____
ROOT
ATOM     13  C   UNL     1      -3.807   2.035  24.487  0.00  0.00    +0.260 C 
ATOM     14  O   UNL     1      -4.448   1.986  23.970  0.00  0.00    -0.272 OA
ATOM     15  N   UNL     1      -3.190   1.490  24.434  0.00  0.00    -0.194 NA
ENDROOT
BRANCH  13  11
ATOM      7  C   UNL     1      -3.067   3.661  25.743  0.00  0.00    +0.099 C 
ATOM      8  C   UNL     1      -3.736   3.821  26.199  0.00  0.00    +0.043 C 
ATOM      9  C   UNL     1      -4.427   3.386  26.085  0.00  0.00    +0.096 C 
ATOM     10  N   UNL     1      -4.451   2.791  25.515  0.00  0.00    -0.271 N 
ATOM     11  C   UNL     1      -3.783   2.630  25.058  0.00  0.00    +0.155 C 
ATOM     12  C   UNL     1      -3.091   3.066  25.172  0.00  0.00    +0.051 C 
ATOM     31  C   UNL     1      -5.143   2.356  25.400  0.00  0.00    +0.256 C 
ATOM     32  O   UNL     1      -5.167   1.761  24.829  0.00  0.00    -0.272 OA
BRANCH   7   6
ATOM      4  C   UNL     1      -2.161   4.678  25.314  0.00  0.00    +0.272 C 
ATOM      5  O   UNL     1      -2.637   4.826  24.657  0.00  0.00    -0.271 OA
ATOM      6  N   UNL     1      -2.376   4.095  25.857  0.00  0.00    -0.205 NA
BRANCH   4   3
ATOM      3  C   UNL     1      -1.468   5.113  25.427  0.00  0.00    +0.229 C 
BRANCH   3   2
ATOM      1  C   UNL     1      -0.292   5.402  24.670  0.00  0.00    +0.175 C 
ATOM      2  O   UNL     1      -1.104   5.484  24.787  0.00  0.00    -0.342 OA
ENDBRANCH   3   2
ENDBRANCH   4   3
ENDBRANCH   7   6
BRANCH  31  33
ATOM     33  C   UNL     1      -5.811   2.517  25.857  0.00  0.00    +0.227 C 
BRANCH  33  34
ATOM     34  O   UNL     1      -6.388   1.937  25.963  0.00  0.00    -0.342 OA
ATOM     35  C   UNL     1      -6.776   1.870  26.688  0.00  0.00    +0.175 C 
ENDBRANCH  33  34
ENDBRANCH  31  33
ENDBRANCH  13  11
BRANCH  15  16
ATOM     16  C   UNL     1      -3.214   0.895  23.863  0.00  0.00    +0.198 C 
BRANCH  16  27
ATOM     27  C   UNL     1      -2.829   1.000  23.141  0.00  0.00    +0.337 C 
ATOM     28  O   UNL     1      -3.225   0.835  22.435  0.00  0.00    -0.248 OA
BRANCH  27  29
ATOM     29  O   UNL     1      -2.049   1.269  23.124  0.00  0.00    -0.443 OA
ATOM     30  C   UNL     1      -1.700   1.472  22.405  0.00  0.00    +0.256 C 
ENDBRANCH  27  29
ENDBRANCH  16  27
BRANCH  16  17
ATOM     17  C   UNL     1      -3.623   0.194  24.014  0.00  0.00    +0.061 C 
BRANCH  17  18
ATOM     18  C   UNL     1      -3.243  -0.432  24.394  0.00  0.00    +0.001 A 
ATOM     19  C   UNL     1      -2.570  -0.375  24.868  0.00  0.00    +0.095 A 
ATOM     20  N   UNL     1      -2.380  -1.132  25.133  0.00  0.00    -0.244 NA
ATOM     21  C   UNL     1      -2.936  -1.657  24.824  0.00  0.00    +0.081 A 
ATOM     22  C   UNL     1      -3.469  -1.225  24.367  0.00  0.00    +0.015 A 
ATOM     23  C   UNL     1      -4.092  -1.608  23.985  0.00  0.00    +0.001 A 
ATOM     24  C   UNL     1      -4.181  -2.424  24.060  0.00  0.00    +0.000 A 
ATOM     25  C   UNL     1      -3.648  -2.858  24.517  0.00  0.00    +0.002 A 
ATOM     26  C   UNL     1      -3.025  -2.474  24.899  0.00  0.00    +0.019 A 
ENDBRANCH  17  18
ENDBRANCH  16  17
ENDBRANCH  15  16
TORSDOF 11
ENDMDL
MODEL 10
REMARK VINA RESULT:      -8.2      1.395      5.457
REMARK  Name = 
REMARK  11 active torsions:
REMARK  status: ('A' for Active; 'I' for Inactive)
REMARK    1  A    between atoms: O_2  and  C_3
REMARK    2  A    between atoms: C_3  and  C_4
REMARK    3  A    between atoms: N_6  and  C_7
REMARK    4  A    between atoms: C_11  and  C_13
REMARK    5  A    between atoms: N_15  and  C_16
REMARK    6  A    between atoms: C_16  and  C_17
REMARK    7  A    between atoms: C_16  and  C_27
REMARK    8  A    between atoms: C_17  and  C_18
REMARK    9  A    between atoms: C_27  and  O_29
REMARK   10  A    between atoms: C_31  and  C_33
REMARK   11  A    between atoms: C_33  and  O_34
REMARK                            x       y       z     vdW  Elec       q    Type
REMARK                         _______ _______ _______ _____ _____    ______ ____
ROOT
ATOM     13  C   UNL     1      -2.272   0.365  25.000  0.00  0.00    +0.260 C 
ATOM     14  O   UNL     1      -1.920  -0.047  25.623  0.00  0.00    -0.272 OA
ATOM     15  N   UNL     1      -1.815   0.854  24.519  0.00  0.00    -0.194 NA
ENDROOT
BRANCH  13  11
ATOM      7  C   UNL     1      -4.355   0.880  24.597  0.00  0.00    +0.099 C 
ATOM      8  C   UNL     1      -4.699   0.130  24.577  0.00  0.00    +0.043 C 
ATOM      9  C   UNL     1      -4.235  -0.541  24.697  0.00  0.00    +0.096 C 
ATOM     10  N   UNL     1      -3.426  -0.463  24.838  0.00  0.00    -0.271 N 
ATOM     11  C   UNL     1      -3.081   0.286  24.859  0.00  0.00    +0.155 C 
ATOM     12  C   UNL     1      -3.546   0.958  24.739  0.00  0.00    +0.051 C 
ATOM     31  C   UNL     1      -2.961  -1.134  24.958  0.00  0.00    +0.256 C 
ATOM     32  O   UNL     1      -2.152  -1.056  25.100  0.00  0.00    -0.272 OA
BRANCH   7   6
ATOM      4  C   UNL     1      -5.200   1.907  25.116  0.00  0.00    +0.272 C 
ATOM      5  O   UNL     1      -5.118   1.594  25.874  0.00  0.00    -0.271 OA
ATOM      6  N   UNL     1      -4.819   1.550  24.477  0.00  0.00    -0.205 NA
BRANCH   4   3
ATOM      3  C   UNL     1      -5.665   2.579  24.996  0.00  0.00    +0.229 C 
BRANCH   3   2
ATOM      1  C   UNL     1      -5.802   3.942  25.402  0.00  0.00    +0.175 C 
ATOM      2  O   UNL     1      -5.739   3.142  25.594  0.00  0.00    -0.342 OA
ENDBRANCH   3   2
ENDBRANCH   4   3
ENDBRANCH   7   6
BRANCH  31  33
ATOM     33  C   UNL     1      -3.306  -1.883  24.937  0.00  0.00    +0.227 C 
BRANCH  33  34
ATOM     34  O   UNL     1      -2.839  -2.549  24.796  0.00  0.00    -0.342 OA
ATOM     35  C   UNL     1      -3.196  -3.278  24.648  0.00  0.00    +0.175 C 
ENDBRANCH  33  34
ENDBRANCH  31  33
ENDBRANCH  13  11
BRANCH  15  16
ATOM     16  C   UNL     1      -1.006   0.932  24.660  0.00  0.00    +0.198 C 
BRANCH  16  27
ATOM     27  C   UNL     1      -0.473   0.410  24.309  0.00  0.00    +0.337 C 
ATOM     28  O   UNL     1       0.050  -0.024  24.779  0.00  0.00    -0.248 OA
BRANCH  27  29
ATOM     29  O   UNL     1      -0.462   0.320  23.489  0.00  0.00    -0.443 OA
ATOM     30  C   UNL     1       0.130  -0.130  23.132  0.00  0.00    +0.256 C 
ENDBRANCH  27  29
ENDBRANCH  16  27
BRANCH  16  17
ATOM     17  C   UNL     1      -0.729   1.534  25.153  0.00  0.00    +0.061 C 
BRANCH  17  18
ATOM     18  C   UNL     1      -0.637   2.299  24.859  0.00  0.00    +0.001 A 
ATOM     19  C   UNL     1      -0.214   2.511  24.182  0.00  0.00    +0.095 A 
ATOM     20  N   UNL     1      -0.268   3.329  24.095  0.00  0.00    -0.244 NA
ATOM     21  C   UNL     1      -0.723   3.623  24.717  0.00  0.00    +0.081 A 
ATOM     22  C   UNL     1      -0.951   2.986  25.189  0.00  0.00    +0.015 A 
ATOM     23  C   UNL     1      -1.415   3.114  25.859  0.00  0.00    +0.001 A 
ATOM     24  C   UNL     1      -1.652   3.880  26.056  0.00  0.00    +0.000 A 
ATOM     25  C   UNL     1      -1.423   4.517  25.584  0.00  0.00    +0.002 A 
ATOM     26  C   UNL     1      -0.959   4.388  24.914  0.00  0.00    +0.019 A 
ENDBRANCH  17  18
ENDBRANCH  16  17
ENDBRANCH  15  16
TORSDOF 11
ENDMDL
