MODEL 1
REMARK VINA RESULT:     -11.0      0.000      0.000
REMARK  Name = 
REMARK  7 active torsions:
REMARK  status: ('A' for Active; 'I' for Inactive)
REMARK    1  A    between atoms: N_6  and  C_7
REMARK    2  A    between atoms: C_7  and  C_8
REMARK    3  A    between atoms: C_12  and  O_13
REMARK    4  A    between atoms: O_13  and  C_14
REMARK    5  A    between atoms: C_24  and  C_25
REMARK    6  A    between atoms: C_25  and  C_26
REMARK    7  A    between atoms: C_26  and  C_27
REMARK                            x       y       z     vdW  Elec       q    Type
REMARK                         _______ _______ _______ _____ _____    ______ ____
ROOT
ATOM      1  C   UNL     1      -2.978   2.240  23.282  0.00  0.00    +0.090 C 
ATOM      2  N   UNL     1      -3.417   1.933  23.910  0.00  0.00    -0.271 NA
ATOM      3  C   UNL     1      -3.578   1.125  23.872  0.00  0.00    +0.083 C 
ATOM      4  C   UNL     1      -3.325   0.639  23.255  0.00  0.00    +0.035 C 
ATOM      5  C   UNL     1      -3.589  -0.127  23.408  0.00  0.00    +0.074 C 
ATOM      6  N   UNL     1      -4.006  -0.116  24.121  0.00  0.00    -0.262 NA
ATOM     19  C   UNL     1      -3.999   0.658  24.407  0.00  0.00    +0.151 C 
ATOM     20  C   UNL     1      -4.362   0.886  25.112  0.00  0.00    +0.257 C 
ATOM     21  O   UNL     1      -4.744   0.283  25.528  0.00  0.00    -0.272 OA
ATOM     22  N   UNL     1      -4.395   1.634  25.456  0.00  0.00    -0.203 NA
ATOM     23  C   UNL     1      -4.072   2.342  25.180  0.00  0.00    +0.131 C 
ATOM     24  C   UNL     1      -3.637   2.474  24.492  0.00  0.00    +0.080 C 
ENDROOT
BRANCH   6   7
ATOM      7  C   UNL     1      -4.366  -0.764  24.483  0.00  0.00    +0.100 C 
BRANCH   7   8
ATOM      8  C   UNL     1      -4.062  -1.522  24.367  0.00  0.00    -0.003 A 
ATOM      9  C   UNL     1      -4.455  -2.052  23.871  0.00  0.00    -0.003 A 
ATOM     10  C   UNL     1      -4.150  -2.809  23.756  0.00  0.00    +0.003 A 
ATOM     11  C   UNL     1      -3.455  -3.038  24.134  0.00  0.00    +0.037 A 
ATOM     12  C   UNL     1      -3.063  -2.507  24.630  0.00  0.00    +0.147 A 
ATOM     18  C   UNL     1      -3.366  -1.750  24.746  0.00  0.00    +0.034 A 
BRANCH  12  13
ATOM     13  O   UNL     1      -2.366  -2.735  25.010  0.00  0.00    -0.404 OA
BRANCH  13  14
ATOM     14  C   UNL     1      -1.642  -2.431  24.759  0.00  0.00    +0.575 C 
ATOM     15  F   UNL     1      -0.917  -2.128  24.507  0.00  0.00    -0.133 F 
ATOM     16  F   UNL     1      -1.632  -1.917  25.404  0.00  0.00    -0.133 F 
ATOM     17  F   UNL     1      -1.650  -2.945  24.113  0.00  0.00    -0.133 F 
ENDBRANCH  13  14
ENDBRANCH  12  13
ENDBRANCH   7   8
ENDBRANCH   6   7
BRANCH  24  25
ATOM     25  C   UNL     1      -3.389   3.252  24.370  0.00  0.00    +0.027 C 
BRANCH  25  26
ATOM     26  C   UNL     1      -2.831   3.590  24.875  0.00  0.00    +0.087 C 
BRANCH  26  27
ATOM     27  C   UNL     1      -2.672   4.399  24.832  0.00  0.00    +0.226 C 
ATOM     28  O   UNL     1      -3.286   4.933  24.693  0.00  0.00    -0.275 OA
ATOM     29  N   UNL     1      -1.900   4.673  24.927  0.00  0.00    -0.280 N 
ATOM     30  C   UNL     1      -1.659   5.462  24.898  0.00  0.00    +0.093 C 
ATOM     31  C   UNL     1      -0.843   5.483  25.020  0.00  0.00    +0.023 C 
ATOM     32  C   UNL     1      -0.581   4.709  25.125  0.00  0.00    +0.023 C 
ATOM     33  C   UNL     1      -1.234   4.208  25.067  0.00  0.00    +0.093 C 
ENDBRANCH  26  27
ENDBRANCH  25  26
ENDBRANCH  24  25
TORSDOF 7
ENDMDL
MODEL 2
REMARK VINA RESULT:     -10.9      2.763      6.138
REMARK  Name = 
REMARK  7 active torsions:
REMARK  status: ('A' for Active; 'I' for Inactive)
REMARK    1  A    between atoms: N_6  and  C_7
REMARK    2  A    between atoms: C_7  and  C_8
REMARK    3  A    between atoms: C_12  and  O_13
REMARK    4  A    between atoms: O_13  and  C_14
REMARK    5  A    between atoms: C_24  and  C_25
REMARK    6  A    between atoms: C_25  and  C_26
REMARK    7  A    between atoms: C_26  and  C_27
REMARK                            x       y       z     vdW  Elec       q    Type
REMARK                         _______ _______ _______ _____ _____    ______ ____
ROOT
ATOM      1  C   UNL     1      -1.128   0.298  23.408  0.00  0.00    +0.090 C 
ATOM      2  N   UNL     1      -0.987   0.537  24.185  0.00  0.00    -0.271 NA
ATOM      3  C   UNL     1      -0.869   1.346  24.294  0.00  0.00    +0.083 C 
ATOM      4  C   UNL     1      -0.886   1.896  23.679  0.00  0.00    +0.035 C 
ATOM      5  C   UNL     1      -0.746   2.643  23.999  0.00  0.00    +0.074 C 
ATOM      6  N   UNL     1      -0.641   2.555  24.813  0.00  0.00    -0.262 NA
ATOM     19  C   UNL     1      -0.717   1.754  24.996  0.00  0.00    +0.151 C 
ATOM     20  C   UNL     1      -0.647   1.453  25.760  0.00  0.00    +0.257 C 
ATOM     21  O   UNL     1      -0.492   2.009  26.351  0.00  0.00    -0.272 OA
ATOM     22  N   UNL     1      -0.710   0.670  26.013  0.00  0.00    -0.203 NA
ATOM     23  C   UNL     1      -0.860  -0.005  25.563  0.00  0.00    +0.131 C 
ATOM     24  C   UNL     1      -0.983  -0.064  24.749  0.00  0.00    +0.080 C 
ENDROOT
BRANCH   6   7
ATOM      7  C   UNL     1      -0.488   3.162  25.351  0.00  0.00    +0.100 C 
BRANCH   7   8
ATOM      8  C   UNL     1      -0.879   3.885  25.279  0.00  0.00    -0.003 A 
ATOM      9  C   UNL     1      -0.534   4.501  24.852  0.00  0.00    -0.003 A 
ATOM     10  C   UNL     1      -0.925   5.222  24.781  0.00  0.00    +0.003 A 
ATOM     11  C   UNL     1      -1.662   5.330  25.135  0.00  0.00    +0.037 A 
ATOM     12  C   UNL     1      -2.007   4.714  25.562  0.00  0.00    +0.147 A 
ATOM     18  C   UNL     1      -1.616   3.992  25.634  0.00  0.00    +0.034 A 
BRANCH  12  13
ATOM     13  O   UNL     1      -2.744   4.821  25.918  0.00  0.00    -0.404 OA
BRANCH  13  14
ATOM     14  C   UNL     1      -3.296   4.207  25.916  0.00  0.00    +0.575 C 
ATOM     15  F   UNL     1      -3.847   3.593  25.915  0.00  0.00    -0.133 F 
ATOM     16  F   UNL     1      -3.468   4.362  25.124  0.00  0.00    -0.133 F 
ATOM     17  F   UNL     1      -3.124   4.050  26.707  0.00  0.00    -0.133 F 
ENDBRANCH  13  14
ENDBRANCH  12  13
ENDBRANCH   7   8
ENDBRANCH   6   7
BRANCH  24  25
ATOM     25  C   UNL     1      -1.120  -0.826  24.463  0.00  0.00    +0.027 C 
BRANCH  25  26
ATOM     26  C   UNL     1      -1.710  -1.293  24.802  0.00  0.00    +0.087 C 
BRANCH  26  27
ATOM     27  C   UNL     1      -1.853  -2.052  24.510  0.00  0.00    +0.226 C 
ATOM     28  O   UNL     1      -1.228  -2.508  24.223  0.00  0.00    -0.275 OA
ATOM     29  N   UNL     1      -2.621  -2.354  24.506  0.00  0.00    -0.280 N 
ATOM     30  C   UNL     1      -2.847  -3.098  24.234  0.00  0.00    +0.093 C 
ATOM     31  C   UNL     1      -3.663  -3.169  24.333  0.00  0.00    +0.023 C 
ATOM     32  C   UNL     1      -3.941  -2.469  24.667  0.00  0.00    +0.023 C 
ATOM     33  C   UNL     1      -3.296  -1.964  24.774  0.00  0.00    +0.093 C 
ENDBRANCH  26  27
ENDBRANCH  25  26
ENDBRANCH  24  25
TORSDOF 7
ENDMDL
MODEL 3
REMARK VINA RESULT:     -10.3      2.190      2.692
REMARK  Name = 
REMARK  7 active torsions:
REMARK  status: ('A' for Active; 'I' for Inactive)
REMARK    1  A    between atoms: N_6  and  C_7
REMARK    2  A    between atoms: C_7  and  C_8
REMARK    3  A    between atoms: C_12  and  O_13
REMARK    4  A    between atoms: O_13  and  C_14
REMARK    5  A    between atoms: C_24  and  C_25
REMARK    6  A    between atoms: C_25  and  C_26
REMARK    7  A    between atoms: C_26  and  C_27
REMARK                            x       y       z     vdW  Elec       q    Type
REMARK                         _______ _______ _______ _____ _____    ______ ____
ROOT
ATOM      1  C   UNL     1      -0.273   1.480  23.598  0.00  0.00    +0.090 C 
ATOM      2  N   UNL     1      -0.507   1.183  24.332  0.00  0.00    -0.271 NA
ATOM      3  C   UNL     1      -0.694   0.380  24.350  0.00  0.00    +0.083 C 
ATOM      4  C   UNL     1      -0.656  -0.111  23.687  0.00  0.00    +0.035 C 
ATOM      5  C   UNL     1      -0.881  -0.870  23.917  0.00  0.00    +0.074 C 
ATOM      6  N   UNL     1      -1.058  -0.849  24.723  0.00  0.00    -0.262 NA
ATOM     19  C   UNL     1      -0.942  -0.077  24.990  0.00  0.00    +0.151 C 
ATOM     20  C   UNL     1      -1.065   0.157  25.771  0.00  0.00    +0.257 C 
ATOM     21  O   UNL     1      -1.317  -0.436  26.287  0.00  0.00    -0.272 OA
ATOM     22  N   UNL     1      -0.970   0.905  26.105  0.00  0.00    -0.203 NA
ATOM     23  C   UNL     1      -0.728   1.605  25.740  0.00  0.00    +0.131 C 
ATOM     24  C   UNL     1      -0.522   1.728  24.951  0.00  0.00    +0.080 C 
ENDROOT
BRANCH   6   7
ATOM      7  C   UNL     1      -1.308  -1.489  25.182  0.00  0.00    +0.100 C 
BRANCH   7   8
ATOM      8  C   UNL     1      -1.841  -2.035  24.871  0.00  0.00    -0.003 A 
ATOM      9  C   UNL     1      -1.565  -2.733  24.529  0.00  0.00    -0.003 A 
ATOM     10  C   UNL     1      -2.099  -3.279  24.218  0.00  0.00    +0.003 A 
ATOM     11  C   UNL     1      -2.909  -3.129  24.248  0.00  0.00    +0.037 A 
ATOM     12  C   UNL     1      -3.185  -2.430  24.591  0.00  0.00    +0.147 A 
ATOM     18  C   UNL     1      -2.652  -1.884  24.902  0.00  0.00    +0.034 A 
BRANCH  12  13
ATOM     13  O   UNL     1      -3.996  -2.278  24.622  0.00  0.00    -0.404 OA
BRANCH  13  14
ATOM     14  C   UNL     1      -4.345  -1.785  24.060  0.00  0.00    +0.575 C 
ATOM     15  F   UNL     1      -4.693  -1.291  23.499  0.00  0.00    -0.133 F 
ATOM     16  F   UNL     1      -4.360  -2.409  23.521  0.00  0.00    -0.133 F 
ATOM     17  F   UNL     1      -4.329  -1.161  24.599  0.00  0.00    -0.133 F 
ENDBRANCH  13  14
ENDBRANCH  12  13
ENDBRANCH   7   8
ENDBRANCH   6   7
BRANCH  24  25
ATOM     25  C   UNL     1      -0.302   2.499  24.755  0.00  0.00    +0.027 C 
BRANCH  25  26
ATOM     26  C   UNL     1      -0.716   3.138  25.072  0.00  0.00    +0.087 C 
BRANCH  26  27
ATOM     27  C   UNL     1      -0.548   3.905  24.817  0.00  0.00    +0.226 C 
ATOM     28  O   UNL     1       0.155   4.062  24.415  0.00  0.00    -0.275 OA
ATOM     29  N   UNL     1      -1.085   4.515  24.963  0.00  0.00    -0.280 N 
ATOM     30  C   UNL     1      -0.994   5.304  24.742  0.00  0.00    +0.093 C 
ATOM     31  C   UNL     1      -1.659   5.719  24.999  0.00  0.00    +0.023 C 
ATOM     32  C   UNL     1      -2.161   5.186  25.377  0.00  0.00    +0.023 C 
ATOM     33  C   UNL     1      -1.806   4.441  25.356  0.00  0.00    +0.093 C 
ENDBRANCH  26  27
ENDBRANCH  25  26
ENDBRANCH  24  25
TORSDOF 7
ENDMDL
MODEL 4
REMARK VINA RESULT:     -10.0      3.592      5.207
REMARK  Name = 
REMARK  7 active torsions:
REMARK  status: ('A' for Active; 'I' for Inactive)
REMARK    1  A    between atoms: N_6  and  C_7
REMARK    2  A    between atoms: C_7  and  C_8
REMARK    3  A    between atoms: C_12  and  O_13
REMARK    4  A    between atoms: O_13  and  C_14
REMARK    5  A    between atoms: C_24  and  C_25
REMARK    6  A    between atoms: C_25  and  C_26
REMARK    7  A    between atoms: C_26  and  C_27
REMARK                            x       y       z     vdW  Elec       q    Type
REMARK                         _______ _______ _______ _____ _____    ______ ____
ROOT
ATOM      1  C   UNL     1      -1.198   0.884  22.766  0.00  0.00    +0.090 C 
ATOM      2  N   UNL     1      -1.066   1.179  23.526  0.00  0.00    -0.271 NA
ATOM      3  C   UNL     1      -1.670   1.646  23.837  0.00  0.00    +0.083 C 
ATOM      4  C   UNL     1      -2.367   1.819  23.431  0.00  0.00    +0.035 C 
ATOM      5  C   UNL     1      -2.833   2.297  23.915  0.00  0.00    +0.074 C 
ATOM      6  N   UNL     1      -2.424   2.420  24.622  0.00  0.00    -0.262 NA
ATOM     19  C   UNL     1      -1.705   2.017  24.573  0.00  0.00    +0.151 C 
ATOM     20  C   UNL     1      -1.145   2.012  25.179  0.00  0.00    +0.257 C 
ATOM     21  O   UNL     1      -1.346   2.442  25.855  0.00  0.00    -0.272 OA
ATOM     22  N   UNL     1      -0.412   1.636  25.199  0.00  0.00    -0.203 NA
ATOM     23  C   UNL     1      -0.057   1.170  24.617  0.00  0.00    +0.131 C 
ATOM     24  C   UNL     1      -0.349   0.967  23.872  0.00  0.00    +0.080 C 
ENDROOT
BRANCH   6   7
ATOM      7  C   UNL     1      -2.688   2.866  25.264  0.00  0.00    +0.100 C 
BRANCH   7   8
ATOM      8  C   UNL     1      -3.462   3.150  25.278  0.00  0.00    -0.003 A 
ATOM      9  C   UNL     1      -3.631   3.905  24.992  0.00  0.00    -0.003 A 
ATOM     10  C   UNL     1      -4.405   4.188  25.007  0.00  0.00    +0.003 A 
ATOM     11  C   UNL     1      -5.012   3.717  25.307  0.00  0.00    +0.037 A 
ATOM     12  C   UNL     1      -4.843   2.962  25.593  0.00  0.00    +0.147 A 
ATOM     18  C   UNL     1      -4.069   2.678  25.579  0.00  0.00    +0.034 A 
BRANCH  12  13
ATOM     13  O   UNL     1      -5.449   2.490  25.894  0.00  0.00    -0.404 OA
BRANCH  13  14
ATOM     14  C   UNL     1      -5.869   1.988  25.391  0.00  0.00    +0.575 C 
ATOM     15  F   UNL     1      -6.289   1.487  24.887  0.00  0.00    -0.133 F 
ATOM     16  F   UNL     1      -5.417   1.348  25.651  0.00  0.00    -0.133 F 
ATOM     17  F   UNL     1      -6.321   2.627  25.130  0.00  0.00    -0.133 F 
ENDBRANCH  13  14
ENDBRANCH  12  13
ENDBRANCH   7   8
ENDBRANCH   6   7
BRANCH  24  25
ATOM     25  C   UNL     1       0.144   0.488  23.414  0.00  0.00    +0.027 C 
BRANCH  25  26
ATOM     26  C   UNL     1       0.959   0.617  23.414  0.00  0.00    +0.087 C 
BRANCH  26  27
ATOM     27  C   UNL     1       1.450   0.143  22.949  0.00  0.00    +0.226 C 
ATOM     28  O   UNL     1       1.158  -0.552  22.615  0.00  0.00    -0.275 OA
ATOM     29  N   UNL     1       2.234   0.367  22.819  0.00  0.00    -0.280 N 
ATOM     30  C   UNL     1       2.787  -0.048  22.370  0.00  0.00    +0.093 C 
ATOM     31  C   UNL     1       3.497   0.373  22.388  0.00  0.00    +0.023 C 
ATOM     32  C   UNL     1       3.382   1.046  22.849  0.00  0.00    +0.023 C 
ATOM     33  C   UNL     1       2.601   1.043  23.116  0.00  0.00    +0.093 C 
ENDBRANCH  26  27
ENDBRANCH  25  26
ENDBRANCH  24  25
TORSDOF 7
ENDMDL
MODEL 5
REMARK VINA RESULT:      -9.9      1.888      5.483
REMARK  Name = 
REMARK  7 active torsions:
REMARK  status: ('A' for Active; 'I' for Inactive)
REMARK    1  A    between atoms: N_6  and  C_7
REMARK    2  A    between atoms: C_7  and  C_8
REMARK    3  A    between atoms: C_12  and  O_13
REMARK    4  A    between atoms: O_13  and  C_14
REMARK    5  A    between atoms: C_24  and  C_25
REMARK    6  A    between atoms: C_25  and  C_26
REMARK    7  A    between atoms: C_26  and  C_27
REMARK                            x       y       z     vdW  Elec       q    Type
REMARK                         _______ _______ _______ _____ _____    ______ ____
ROOT
ATOM      1  C   UNL     1      -3.238   0.586  23.032  0.00  0.00    +0.090 C 
ATOM      2  N   UNL     1      -3.509   0.961  23.716  0.00  0.00    -0.271 NA
ATOM      3  C   UNL     1      -3.217   1.721  23.846  0.00  0.00    +0.083 C 
ATOM      4  C   UNL     1      -2.688   2.099  23.337  0.00  0.00    +0.035 C 
ATOM      5  C   UNL     1      -2.524   2.845  23.647  0.00  0.00    +0.074 C 
ATOM      6  N   UNL     1      -2.951   2.929  24.348  0.00  0.00    -0.262 NA
ATOM     19  C   UNL     1      -3.380   2.234  24.471  0.00  0.00    +0.151 C 
ATOM     20  C   UNL     1      -3.874   2.113  25.120  0.00  0.00    +0.257 C 
ATOM     21  O   UNL     1      -3.921   2.740  25.656  0.00  0.00    -0.272 OA
ATOM     22  N   UNL     1      -4.328   1.450  25.305  0.00  0.00    -0.203 NA
ATOM     23  C   UNL     1      -4.400   0.743  24.885  0.00  0.00    +0.131 C 
ATOM     24  C   UNL     1      -4.035   0.525  24.178  0.00  0.00    +0.080 C 
ENDROOT
BRANCH   6   7
ATOM      7  C   UNL     1      -2.951   3.592  24.841  0.00  0.00    +0.100 C 
BRANCH   7   8
ATOM      8  C   UNL     1      -2.246   3.996  24.986  0.00  0.00    -0.003 A 
ATOM      9  C   UNL     1      -2.127   4.746  24.666  0.00  0.00    -0.003 A 
ATOM     10  C   UNL     1      -1.423   5.149  24.812  0.00  0.00    +0.003 A 
ATOM     11  C   UNL     1      -0.837   4.803  25.278  0.00  0.00    +0.037 A 
ATOM     12  C   UNL     1      -0.957   4.052  25.599  0.00  0.00    +0.147 A 
ATOM     18  C   UNL     1      -1.661   3.649  25.453  0.00  0.00    +0.034 A 
BRANCH  12  13
ATOM     13  O   UNL     1      -0.372   3.705  26.066  0.00  0.00    -0.404 OA
BRANCH  13  14
ATOM     14  C   UNL     1      -0.109   2.941  25.896  0.00  0.00    +0.575 C 
ATOM     15  F   UNL     1       0.155   2.178  25.726  0.00  0.00    -0.133 F 
ATOM     16  F   UNL     1      -0.544   2.649  26.534  0.00  0.00    -0.133 F 
ATOM     17  F   UNL     1       0.326   3.233  25.259  0.00  0.00    -0.133 F 
ENDBRANCH  13  14
ENDBRANCH  12  13
ENDBRANCH   7   8
ENDBRANCH   6   7
BRANCH  24  25
ATOM     25  C   UNL     1      -4.222  -0.228  23.896  0.00  0.00    +0.027 C 
BRANCH  25  26
ATOM     26  C   UNL     1      -4.164  -0.881  24.397  0.00  0.00    +0.087 C 
BRANCH  26  27
ATOM     27  C   UNL     1      -4.188  -1.644  24.084  0.00  0.00    +0.226 C 
ATOM     28  O   UNL     1      -4.596  -1.789  23.381  0.00  0.00    -0.275 OA
ATOM     29  N   UNL     1      -3.804  -2.261  24.474  0.00  0.00    -0.280 N 
ATOM     30  C   UNL     1      -3.780  -3.048  24.229  0.00  0.00    +0.093 C 
ATOM     31  C   UNL     1      -3.338  -3.474  24.780  0.00  0.00    +0.023 C 
ATOM     32  C   UNL     1      -3.089  -2.950  25.365  0.00  0.00    +0.023 C 
ATOM     33  C   UNL     1      -3.377  -2.200  25.177  0.00  0.00    +0.093 C 
ENDBRANCH  26  27
ENDBRANCH  25  26
ENDBRANCH  24  25
TORSDOF 7
ENDMDL
MODEL 6
REMARK VINA RESULT:      -9.6      4.458      5.165
REMARK  Name = 
REMARK  7 active torsions:
REMARK  status: ('A' for Active; 'I' for Inactive)
REMARK    1  A    between atoms: N_6  and  C_7
REMARK    2  A    between atoms: C_7  and  C_8
REMARK    3  A    between atoms: C_12  and  O_13
REMARK    4  A    between atoms: O_13  and  C_14
REMARK    5  A    between atoms: C_24  and  C_25
REMARK    6  A    between atoms: C_25  and  C_26
REMARK    7  A    between atoms: C_26  and  C_27
REMARK                            x       y       z     vdW  Elec       q    Type
REMARK                         _______ _______ _______ _____ _____    ______ ____
ROOT
ATOM      1  C   UNL     1       1.232  -0.700  22.774  0.00  0.00    +0.090 C 
ATOM      2  N   UNL     1       0.977  -0.061  23.230  0.00  0.00    -0.271 NA
ATOM      3  C   UNL     1       0.257  -0.165  23.619  0.00  0.00    +0.083 C 
ATOM      4  C   UNL     1      -0.193  -0.856  23.567  0.00  0.00    +0.035 C 
ATOM      5  C   UNL     1      -0.870  -0.754  24.026  0.00  0.00    +0.074 C 
ATOM      6  N   UNL     1      -0.840  -0.001  24.363  0.00  0.00    -0.262 NA
ATOM     19  C   UNL     1      -0.143   0.363  24.111  0.00  0.00    +0.151 C 
ATOM     20  C   UNL     1       0.079   1.125  24.335  0.00  0.00    +0.257 C 
ATOM     21  O   UNL     1      -0.446   1.516  24.838  0.00  0.00    -0.272 OA
ATOM     22  N   UNL     1       0.754   1.547  24.123  0.00  0.00    -0.203 NA
ATOM     23  C   UNL     1       1.376   1.311  23.634  0.00  0.00    +0.131 C 
ATOM     24  C   UNL     1       1.475   0.596  23.237  0.00  0.00    +0.080 C 
ENDROOT
BRANCH   6   7
ATOM      7  C   UNL     1      -1.407   0.330  24.863  0.00  0.00    +0.100 C 
BRANCH   7   8
ATOM      8  C   UNL     1      -2.043  -0.126  25.124  0.00  0.00    -0.003 A 
ATOM      9  C   UNL     1      -1.966  -0.593  25.800  0.00  0.00    -0.003 A 
ATOM     10  C   UNL     1      -2.602  -1.048  26.060  0.00  0.00    +0.003 A 
ATOM     11  C   UNL     1      -3.315  -1.037  25.646  0.00  0.00    +0.037 A 
ATOM     12  C   UNL     1      -3.391  -0.569  24.970  0.00  0.00    +0.147 A 
ATOM     18  C   UNL     1      -2.756  -0.114  24.709  0.00  0.00    +0.034 A 
BRANCH  12  13
ATOM     13  O   UNL     1      -4.105  -0.558  24.555  0.00  0.00    -0.404 OA
BRANCH  13  14
ATOM     14  C   UNL     1      -4.260  -1.135  23.987  0.00  0.00    +0.575 C 
ATOM     15  F   UNL     1      -4.416  -1.712  23.418  0.00  0.00    -0.133 F 
ATOM     16  F   UNL     1      -4.025  -0.613  23.392  0.00  0.00    -0.133 F 
ATOM     17  F   UNL     1      -4.496  -1.657  24.580  0.00  0.00    -0.133 F 
ENDBRANCH  13  14
ENDBRANCH  12  13
ENDBRANCH   7   8
ENDBRANCH   6   7
BRANCH  24  25
ATOM     25  C   UNL     1       2.163   0.528  22.787  0.00  0.00    +0.027 C 
BRANCH  25  26
ATOM     26  C   UNL     1       2.898   0.670  23.135  0.00  0.00    +0.087 C 
BRANCH  26  27
ATOM     27  C   UNL     1       3.587   0.607  22.684  0.00  0.00    +0.226 C 
ATOM     28  O   UNL     1       3.558   0.727  21.868  0.00  0.00    -0.275 OA
ATOM     29  N   UNL     1       4.303   0.425  23.049  0.00  0.00    -0.280 N 
ATOM     30  C   UNL     1       5.033   0.344  22.673  0.00  0.00    +0.093 C 
ATOM     31  C   UNL     1       5.596   0.160  23.246  0.00  0.00    +0.023 C 
ATOM     32  C   UNL     1       5.216   0.127  23.976  0.00  0.00    +0.023 C 
ATOM     33  C   UNL     1       4.416   0.291  23.855  0.00  0.00    +0.093 C 
ENDBRANCH  26  27
ENDBRANCH  25  26
ENDBRANCH  24  25
TORSDOF 7
ENDMDL
MODEL 7
REMARK VINA RESULT:      -9.1      3.727      4.853
REMARK  Name = 
REMARK  7 active torsions:
REMARK  status: ('A' for Active; 'I' for Inactive)
REMARK    1  A    between atoms: N_6  and  C_7
REMARK    2  A    between atoms: C_7  and  C_8
REMARK    3  A    between atoms: C_12  and  O_13
REMARK    4  A    between atoms: O_13  and  C_14
REMARK    5  A    between atoms: C_24  and  C_25
REMARK    6  A    between atoms: C_25  and  C_26
REMARK    7  A    between atoms: C_26  and  C_27
REMARK                            x       y       z     vdW  Elec       q    Type
REMARK                         _______ _______ _______ _____ _____    ______ ____
ROOT
ATOM      1  C   UNL     1      -1.432   2.952  24.430  0.00  0.00    +0.090 C 
ATOM      2  N   UNL     1      -1.435   2.127  24.451  0.00  0.00    -0.271 NA
ATOM      3  C   UNL     1      -0.751   1.760  24.171  0.00  0.00    +0.083 C 
ATOM      4  C   UNL     1      -0.097   2.174  23.885  0.00  0.00    +0.035 C 
ATOM      5  C   UNL     1       0.474   1.625  23.657  0.00  0.00    +0.074 C 
ATOM      6  N   UNL     1       0.173   0.870  23.802  0.00  0.00    -0.262 NA
ATOM     19  C   UNL     1      -0.584   0.954  24.120  0.00  0.00    +0.151 C 
ATOM     20  C   UNL     1      -1.060   0.316  24.336  0.00  0.00    +0.257 C 
ATOM     21  O   UNL     1      -0.732  -0.432  24.215  0.00  0.00    -0.272 OA
ATOM     22  N   UNL     1      -1.820   0.326  24.656  0.00  0.00    -0.203 NA
ATOM     23  C   UNL     1      -2.292   0.977  24.840  0.00  0.00    +0.131 C 
ATOM     24  C   UNL     1      -2.120   1.779  24.748  0.00  0.00    +0.080 C 
ENDROOT
BRANCH   6   7
ATOM      7  C   UNL     1       0.561   0.156  23.655  0.00  0.00    +0.100 C 
BRANCH   7   8
ATOM      8  C   UNL     1       1.228   0.142  23.170  0.00  0.00    -0.003 A 
ATOM      9  C   UNL     1       1.173  -0.156  22.402  0.00  0.00    -0.003 A 
ATOM     10  C   UNL     1       1.840  -0.169  21.918  0.00  0.00    +0.003 A 
ATOM     11  C   UNL     1       2.562   0.114  22.199  0.00  0.00    +0.037 A 
ATOM     12  C   UNL     1       2.616   0.411  22.967  0.00  0.00    +0.147 A 
ATOM     18  C   UNL     1       1.950   0.425  23.452  0.00  0.00    +0.034 A 
BRANCH  12  13
ATOM     13  O   UNL     1       3.337   0.695  23.250  0.00  0.00    -0.404 OA
BRANCH  13  14
ATOM     14  C   UNL     1       4.022   0.599  22.800  0.00  0.00    +0.575 C 
ATOM     15  F   UNL     1       4.707   0.504  22.349  0.00  0.00    -0.133 F 
ATOM     16  F   UNL     1       4.143  -0.143  23.140  0.00  0.00    -0.133 F 
ATOM     17  F   UNL     1       3.902   1.340  22.459  0.00  0.00    -0.133 F 
ENDBRANCH  13  14
ENDBRANCH  12  13
ENDBRANCH   7   8
ENDBRANCH   6   7
BRANCH  24  25
ATOM     25  C   UNL     1      -2.713   2.301  24.986  0.00  0.00    +0.027 C 
BRANCH  25  26
ATOM     26  C   UNL     1      -3.502   2.058  24.981  0.00  0.00    +0.087 C 
BRANCH  26  27
ATOM     27  C   UNL     1      -4.088   2.554  25.286  0.00  0.00    +0.226 C 
ATOM     28  O   UNL     1      -3.880   3.272  25.636  0.00  0.00    -0.275 OA
ATOM     29  N   UNL     1      -4.881   2.330  25.240  0.00  0.00    -0.280 N 
ATOM     30  C   UNL     1      -5.523   2.765  25.519  0.00  0.00    +0.093 C 
ATOM     31  C   UNL     1      -6.210   2.337  25.359  0.00  0.00    +0.023 C 
ATOM     32  C   UNL     1      -5.992   1.638  24.982  0.00  0.00    +0.023 C 
ATOM     33  C   UNL     1      -5.170   1.633  24.908  0.00  0.00    +0.093 C 
ENDBRANCH  26  27
ENDBRANCH  25  26
ENDBRANCH  24  25
TORSDOF 7
ENDMDL
