MODEL 1
REMARK VINA RESULT:     -19.6      0.000      0.000
REMARK  Name = 
REMARK  2 active torsions:
REMARK  status: ('A' for Active; 'I' for Inactive)
REMARK    1  A    between atoms: C_2  and  C_27
REMARK    2  A    between atoms: C_10  and  C_17
REMARK                            x       y       z     vdW  Elec       q    Type
REMARK                         _______ _______ _______ _____ _____    ______ ____
ROOT
ATOM      1  O   UNL     1      -3.791   4.222  24.271  0.00  0.00    -0.268 OA
ATOM      2  C   UNL     1      -3.880   3.372  24.429  0.00  0.00    +0.268 C 
ATOM      3  N   UNL     1      -3.230   2.829  24.262  0.00  0.00    -0.274 N 
ATOM      4  C   UNL     1      -2.454   2.683  23.990  0.00  0.00    +0.096 C 
ATOM      5  C   UNL     1      -2.415   1.704  24.118  0.00  0.00    +0.043 C 
ATOM      6  C   UNL     1      -2.226   0.913  24.162  0.00  0.00    +0.011 C 
ATOM      7  C   UNL     1      -2.775   1.324  24.310  0.00  0.00    +0.058 C 
ATOM      8  C   UNL     1      -2.797   2.270  24.180  0.00  0.00    +0.100 C 
ATOM      9  C   UNL     1      -3.632   1.290  24.639  0.00  0.00    +0.041 A 
ATOM     10  C   UNL     1      -4.187   0.752  24.928  0.00  0.00    +0.012 A 
ATOM     11  C   UNL     1      -4.930   1.016  25.170  0.00  0.00    +0.006 A 
ATOM     12  C   UNL     1      -5.048   1.902  25.086  0.00  0.00    +0.061 A 
ATOM     13  C   UNL     1      -4.564   2.356  24.836  0.00  0.00    +0.261 A 
ATOM     14  O   UNL     1      -4.716   3.390  24.743  0.00  0.00    -0.267 OA
ATOM     15  N   UNL     1      -3.821   2.092  24.593  0.00  0.00    -0.299 N 
ATOM     16  C   UNL     1      -3.311   1.679  24.461  0.00  0.00    +0.110 C 
ENDROOT
BRANCH  10  17
ATOM     17  C   UNL     1      -3.998  -0.050  24.973  0.00  0.00    +0.001 A 
ATOM     18  C   UNL     1      -3.600  -0.344  25.634  0.00  0.00    +0.000 A 
ATOM     19  C   UNL     1      -3.412  -1.146  25.679  0.00  0.00    +0.000 A 
ATOM     20  C   UNL     1      -3.621  -1.654  25.065  0.00  0.00    +0.000 A 
ATOM     21  C   UNL     1      -3.433  -2.455  25.111  0.00  0.00    +0.000 A 
ATOM     22  C   UNL     1      -3.642  -2.965  24.496  0.00  0.00    +0.000 A 
ATOM     23  C   UNL     1      -4.040  -2.671  23.835  0.00  0.00    +0.000 A 
ATOM     24  C   UNL     1      -4.228  -1.869  23.790  0.00  0.00    +0.000 A 
ATOM     25  C   UNL     1      -4.019  -1.361  24.404  0.00  0.00    +0.000 A 
ATOM     26  C   UNL     1      -4.207  -0.559  24.359  0.00  0.00    +0.000 A 
ENDBRANCH  10  17
BRANCH   2  27
ATOM     27  C   UNL     1      -4.568   2.862  24.764  0.00  0.00    +0.154 A 
ATOM     28  C   UNL     1      -5.069   2.384  24.316  0.00  0.00    +0.123 A 
ATOM     29  N   UNL     1      -5.667   1.953  24.687  0.00  0.00    -0.239 NA
ATOM     30  C   UNL     1      -5.764   2.001  25.505  0.00  0.00    +0.120 A 
ATOM     31  C   UNL     1      -5.263   2.479  25.952  0.00  0.00    +0.120 A 
ATOM     32  N   UNL     1      -4.665   2.911  25.581  0.00  0.00    -0.236 NA
ENDBRANCH   2  27
TORSDOF 2
ENDMDL
MODEL 2
REMARK VINA RESULT:     -19.1      0.575      1.896
REMARK  Name = 
REMARK  2 active torsions:
REMARK  status: ('A' for Active; 'I' for Inactive)
REMARK    1  A    between atoms: C_2  and  C_27
REMARK    2  A    between atoms: C_10  and  C_17
REMARK                            x       y       z     vdW  Elec       q    Type
REMARK                         _______ _______ _______ _____ _____    ______ ____
ROOT
ATOM      1  O   UNL     1      -4.427   4.239  24.392  0.00  0.00    -0.268 OA
ATOM      2  C   UNL     1      -4.184   3.405  24.413  0.00  0.00    +0.268 C 
ATOM      3  N   UNL     1      -4.692   2.814  24.786  0.00  0.00    -0.274 N 
ATOM      4  C   UNL     1      -5.391   2.606  25.192  0.00  0.00    +0.096 C 
ATOM      5  C   UNL     1      -5.244   1.634  25.288  0.00  0.00    +0.043 C 
ATOM      6  C   UNL     1      -5.273   0.835  25.446  0.00  0.00    +0.011 C 
ATOM      7  C   UNL     1      -4.836   1.287  25.135  0.00  0.00    +0.058 C 
ATOM      8  C   UNL     1      -4.992   2.225  25.050  0.00  0.00    +0.100 C 
ATOM      9  C   UNL     1      -4.026   1.323  24.701  0.00  0.00    +0.041 A 
ATOM     10  C   UNL     1      -3.406   0.836  24.461  0.00  0.00    +0.012 A 
ATOM     11  C   UNL     1      -2.759   1.157  24.063  0.00  0.00    +0.006 A 
ATOM     12  C   UNL     1      -2.815   2.045  23.934  0.00  0.00    +0.061 A 
ATOM     13  C   UNL     1      -3.353   2.454  24.144  0.00  0.00    +0.261 A 
ATOM     14  O   UNL     1      -3.405   3.490  23.987  0.00  0.00    -0.267 OA
ATOM     15  N   UNL     1      -4.000   2.132  24.543  0.00  0.00    -0.299 N 
ATOM     16  C   UNL     1      -4.400   1.682  24.834  0.00  0.00    +0.110 C 
ENDROOT
BRANCH  10  17
ATOM     17  C   UNL     1      -3.432   0.026  24.620  0.00  0.00    +0.001 A 
ATOM     18  C   UNL     1      -3.132  -0.265  25.331  0.00  0.00    +0.000 A 
ATOM     19  C   UNL     1      -3.158  -1.075  25.489  0.00  0.00    +0.000 A 
ATOM     20  C   UNL     1      -3.484  -1.593  24.936  0.00  0.00    +0.000 A 
ATOM     21  C   UNL     1      -3.510  -2.401  25.095  0.00  0.00    +0.000 A 
ATOM     22  C   UNL     1      -3.837  -2.920  24.542  0.00  0.00    +0.000 A 
ATOM     23  C   UNL     1      -4.137  -2.629  23.831  0.00  0.00    +0.000 A 
ATOM     24  C   UNL     1      -4.111  -1.819  23.673  0.00  0.00    +0.000 A 
ATOM     25  C   UNL     1      -3.784  -1.301  24.225  0.00  0.00    +0.000 A 
ATOM     26  C   UNL     1      -3.758  -0.492  24.067  0.00  0.00    +0.000 A 
ENDBRANCH  10  17
BRANCH   2  27
ATOM     27  C   UNL     1      -3.444   2.956  24.103  0.00  0.00    +0.154 A 
ATOM     28  C   UNL     1      -3.413   2.510  23.410  0.00  0.00    +0.123 A 
ATOM     29  N   UNL     1      -2.711   2.133  23.194  0.00  0.00    -0.239 NA
ATOM     30  C   UNL     1      -2.041   2.204  23.671  0.00  0.00    +0.120 A 
ATOM     31  C   UNL     1      -2.073   2.651  24.363  0.00  0.00    +0.120 A 
ATOM     32  N   UNL     1      -2.775   3.027  24.579  0.00  0.00    -0.236 NA
ENDBRANCH   2  27
TORSDOF 2
ENDMDL
MODEL 3
REMARK VINA RESULT:     -16.9      2.394      4.556
REMARK  Name = 
REMARK  2 active torsions:
REMARK  status: ('A' for Active; 'I' for Inactive)
REMARK    1  A    between atoms: C_2  and  C_27
REMARK    2  A    between atoms: C_10  and  C_17
REMARK                            x       y       z     vdW  Elec       q    Type
REMARK                         _______ _______ _______ _____ _____    ______ ____
ROOT
ATOM      1  O   UNL     1      -1.832  -2.916  24.870  0.00  0.00    -0.268 OA
ATOM      2  C   UNL     1      -2.001  -2.068  24.777  0.00  0.00    +0.268 C 
ATOM      3  N   UNL     1      -2.790  -1.807  24.542  0.00  0.00    -0.274 N 
ATOM      4  C   UNL     1      -3.580  -1.974  24.329  0.00  0.00    +0.096 C 
ATOM      5  C   UNL     1      -3.912  -1.054  24.187  0.00  0.00    +0.043 C 
ATOM      6  C   UNL     1      -4.331  -0.373  24.033  0.00  0.00    +0.011 C 
ATOM      7  C   UNL     1      -3.679  -0.548  24.225  0.00  0.00    +0.058 C 
ATOM      8  C   UNL     1      -3.374  -1.443  24.358  0.00  0.00    +0.100 C 
ATOM      9  C   UNL     1      -2.865  -0.177  24.434  0.00  0.00    +0.041 A 
ATOM     10  C   UNL     1      -2.494   0.557  24.500  0.00  0.00    +0.012 A 
ATOM     11  C   UNL     1      -1.700   0.598  24.721  0.00  0.00    +0.006 A 
ATOM     12  C   UNL     1      -1.320  -0.202  24.870  0.00  0.00    +0.061 A 
ATOM     13  C   UNL     1      -1.649  -0.827  24.810  0.00  0.00    +0.261 A 
ATOM     14  O   UNL     1      -1.193  -1.755  24.988  0.00  0.00    -0.267 OA
ATOM     15  N   UNL     1      -2.443  -0.869  24.590  0.00  0.00    -0.299 N 
ATOM     16  C   UNL     1      -3.057  -0.675  24.407  0.00  0.00    +0.110 C 
ENDROOT
BRANCH  10  17
ATOM     17  C   UNL     1      -2.916   1.248  24.345  0.00  0.00    +0.001 A 
ATOM     18  C   UNL     1      -2.961   1.540  23.574  0.00  0.00    +0.000 A 
ATOM     19  C   UNL     1      -3.383   2.232  23.419  0.00  0.00    +0.000 A 
ATOM     20  C   UNL     1      -3.760   2.632  24.034  0.00  0.00    +0.000 A 
ATOM     21  C   UNL     1      -4.182   3.323  23.879  0.00  0.00    +0.000 A 
ATOM     22  C   UNL     1      -4.559   3.724  24.494  0.00  0.00    +0.000 A 
ATOM     23  C   UNL     1      -4.514   3.432  25.264  0.00  0.00    +0.000 A 
ATOM     24  C   UNL     1      -4.091   2.740  25.420  0.00  0.00    +0.000 A 
ATOM     25  C   UNL     1      -3.715   2.340  24.804  0.00  0.00    +0.000 A 
ATOM     26  C   UNL     1      -3.292   1.648  24.960  0.00  0.00    +0.000 A 
ENDBRANCH  10  17
BRANCH   2  27
ATOM     27  C   UNL     1      -1.493  -1.309  24.880  0.00  0.00    +0.154 A 
ATOM     28  C   UNL     1      -1.514  -0.806  25.533  0.00  0.00    +0.123 A 
ATOM     29  N   UNL     1      -1.027  -0.140  25.556  0.00  0.00    -0.239 NA
ATOM     30  C   UNL     1      -0.519   0.022  24.925  0.00  0.00    +0.120 A 
ATOM     31  C   UNL     1      -0.498  -0.482  24.273  0.00  0.00    +0.120 A 
ATOM     32  N   UNL     1      -0.986  -1.148  24.250  0.00  0.00    -0.236 NA
ENDBRANCH   2  27
TORSDOF 2
ENDMDL
