MODEL 1
REMARK VINA RESULT:     -12.2      0.000      0.000
REMARK  Name = 
REMARK  5 active torsions:
REMARK  status: ('A' for Active; 'I' for Inactive)
REMARK    1  A    between atoms: C_3  and  S_8
REMARK    2  A    between atoms: S_8  and  N_11
REMARK    3  A    between atoms: C_16  and  O_18
REMARK    4  A    between atoms: O_18  and  C_19
REMARK    5  A    between atoms: C_22  and  C_25
REMARK                            x       y       z     vdW  Elec       q    Type
REMARK                         _______ _______ _______ _____ _____    ______ ____
ROOT
ATOM     11  N   UNL     1      -3.458   2.051  24.433  0.00  0.00    -0.149 NA
ATOM     12  C   UNL     1      -3.188   2.350  23.714  0.00  0.00    +0.128 C 
ATOM     13  C   UNL     1      -2.578   2.069  23.236  0.00  0.00    +0.161 C 
ATOM     14  O   UNL     1      -2.088   1.416  23.358  0.00  0.00    -0.348 OA
ATOM     15  C   UNL     1      -2.086   0.885  23.989  0.00  0.00    +0.187 C 
ATOM     16  C   UNL     1      -2.575   0.875  24.655  0.00  0.00    +0.215 C 
ATOM     17  C   UNL     1      -3.185   1.393  24.852  0.00  0.00    +0.142 C 
ENDROOT
BRANCH  11   8
ATOM      8  S   UNL     1      -4.084   2.461  24.780  0.00  0.00    +0.067 S 
ATOM      9  O   UNL     1      -4.511   2.405  24.076  0.00  0.00    -0.153 OA
ATOM     10  O   UNL     1      -3.657   2.516  25.484  0.00  0.00    -0.153 OA
BRANCH   8   3
ATOM      1  C   UNL     1      -5.753   1.842  25.009  0.00  0.00    +0.077 C 
ATOM      2  C   UNL     1      -5.477   2.587  25.233  0.00  0.00    +0.173 A 
ATOM      3  C   UNL     1      -4.710   2.871  25.128  0.00  0.00    +0.171 A 
ATOM      4  C   UNL     1      -4.678   3.638  25.431  0.00  0.00    +0.119 A 
ATOM      5  C   UNL     1      -4.015   4.129  25.440  0.00  0.00    +0.057 C 
ATOM      6  N   UNL     1      -5.426   3.828  25.723  0.00  0.00    -0.080 NA
ATOM      7  O   UNL     1      -5.920   3.178  25.601  0.00  0.00    -0.357 OA
ENDBRANCH   8   3
ENDBRANCH  11   8
BRANCH  16  18
ATOM     18  O   UNL     1      -2.434   0.267  25.193  0.00  0.00    -0.460 OA
BRANCH  18  19
ATOM     19  C   UNL     1      -2.728  -0.490  25.047  0.00  0.00    +0.225 A 
ATOM     20  C   UNL     1      -3.425  -0.739  25.411  0.00  0.00    +0.058 A 
ATOM     21  C   UNL     1      -3.718  -1.496  25.265  0.00  0.00    +0.010 A 
ATOM     22  C   UNL     1      -3.316  -2.004  24.755  0.00  0.00    +0.091 A 
ATOM     23  C   UNL     1      -2.618  -1.754  24.391  0.00  0.00    +0.106 A 
ATOM     24  N   UNL     1      -2.325  -0.998  24.537  0.00  0.00    -0.210 NA
BRANCH  22  25
ATOM     25  C   UNL     1      -3.609  -2.761  24.608  0.00  0.00    +0.420 C 
ATOM     26  F   UNL     1      -3.903  -3.518  24.462  0.00  0.00    -0.166 F 
ATOM     27  F   UNL     1      -3.885  -2.512  23.873  0.00  0.00    -0.166 F 
ATOM     28  F   UNL     1      -3.333  -3.010  25.345  0.00  0.00    -0.166 F 
ENDBRANCH  22  25
ENDBRANCH  18  19
ENDBRANCH  16  18
TORSDOF 5
ENDMDL
MODEL 2
REMARK VINA RESULT:     -11.9      1.515      2.058
REMARK  Name = 
REMARK  5 active torsions:
REMARK  status: ('A' for Active; 'I' for Inactive)
REMARK    1  A    between atoms: C_3  and  S_8
REMARK    2  A    between atoms: S_8  and  N_11
REMARK    3  A    between atoms: C_16  and  O_18
REMARK    4  A    between atoms: O_18  and  C_19
REMARK    5  A    between atoms: C_22  and  C_25
REMARK                            x       y       z     vdW  Elec       q    Type
REMARK                         _______ _______ _______ _____ _____    ______ ____
ROOT
ATOM     11  N   UNL     1      -1.508   1.631  24.637  0.00  0.00    -0.149 NA
ATOM     12  C   UNL     1      -0.815   1.675  24.192  0.00  0.00    +0.128 C 
ATOM     13  C   UNL     1      -0.247   1.091  24.064  0.00  0.00    +0.161 C 
ATOM     14  O   UNL     1      -0.232   0.316  24.350  0.00  0.00    -0.348 OA
ATOM     15  C   UNL     1      -0.780  -0.064  24.834  0.00  0.00    +0.187 C 
ATOM     16  C   UNL     1      -1.481   0.236  25.152  0.00  0.00    +0.215 C 
ATOM     17  C   UNL     1      -1.804   0.989  25.065  0.00  0.00    +0.142 C 
ENDROOT
BRANCH  11   8
ATOM      8  S   UNL     1      -1.965   2.317  24.658  0.00  0.00    +0.067 S 
ATOM      9  O   UNL     1      -1.965   2.342  23.833  0.00  0.00    -0.153 OA
ATOM     10  O   UNL     1      -1.964   2.292  25.482  0.00  0.00    -0.153 OA
BRANCH   8   3
ATOM      1  C   UNL     1      -1.459   3.901  25.332  0.00  0.00    +0.077 C 
ATOM      2  C   UNL     1      -2.190   3.731  24.989  0.00  0.00    +0.173 A 
ATOM      3  C   UNL     1      -2.422   3.003  24.679  0.00  0.00    +0.171 A 
ATOM      4  C   UNL     1      -3.193   3.082  24.393  0.00  0.00    +0.119 A 
ATOM      5  C   UNL     1      -3.640   2.487  24.037  0.00  0.00    +0.057 C 
ATOM      6  N   UNL     1      -3.436   3.858  24.527  0.00  0.00    -0.080 NA
ATOM      7  O   UNL     1      -2.816   4.260  24.895  0.00  0.00    -0.357 OA
ENDBRANCH   8   3
ENDBRANCH  11   8
BRANCH  16  18
ATOM     18  O   UNL     1      -1.914  -0.287  25.620  0.00  0.00    -0.460 OA
BRANCH  18  19
ATOM     19  C   UNL     1      -2.412  -0.842  25.266  0.00  0.00    +0.225 A 
ATOM     20  C   UNL     1      -3.231  -0.754  25.316  0.00  0.00    +0.058 A 
ATOM     21  C   UNL     1      -3.727  -1.309  24.962  0.00  0.00    +0.010 A 
ATOM     22  C   UNL     1      -3.406  -1.953  24.558  0.00  0.00    +0.091 A 
ATOM     23  C   UNL     1      -2.587  -2.041  24.508  0.00  0.00    +0.106 A 
ATOM     24  N   UNL     1      -2.090  -1.485  24.862  0.00  0.00    -0.210 NA
BRANCH  22  25
ATOM     25  C   UNL     1      -3.902  -2.508  24.204  0.00  0.00    +0.420 C 
ATOM     26  F   UNL     1      -4.400  -3.063  23.849  0.00  0.00    -0.166 F 
ATOM     27  F   UNL     1      -3.726  -3.048  24.801  0.00  0.00    -0.166 F 
ATOM     28  F   UNL     1      -4.079  -1.968  23.605  0.00  0.00    -0.166 F 
ENDBRANCH  22  25
ENDBRANCH  18  19
ENDBRANCH  16  18
TORSDOF 5
ENDMDL
MODEL 3
REMARK VINA RESULT:     -11.8      1.701      2.519
REMARK  Name = 
REMARK  5 active torsions:
REMARK  status: ('A' for Active; 'I' for Inactive)
REMARK    1  A    between atoms: C_3  and  S_8
REMARK    2  A    between atoms: S_8  and  N_11
REMARK    3  A    between atoms: C_16  and  O_18
REMARK    4  A    between atoms: O_18  and  C_19
REMARK    5  A    between atoms: C_22  and  C_25
REMARK                            x       y       z     vdW  Elec       q    Type
REMARK                         _______ _______ _______ _____ _____    ______ ____
ROOT
ATOM     11  N   UNL     1      -3.159   2.682  25.027  0.00  0.00    -0.149 NA
ATOM     12  C   UNL     1      -3.822   3.004  25.396  0.00  0.00    +0.128 C 
ATOM     13  C   UNL     1      -4.598   2.725  25.396  0.00  0.00    +0.161 C 
ATOM     14  O   UNL     1      -4.903   2.053  25.025  0.00  0.00    -0.348 OA
ATOM     15  C   UNL     1      -4.507   1.495  24.565  0.00  0.00    +0.187 C 
ATOM     16  C   UNL     1      -3.708   1.471  24.360  0.00  0.00    +0.215 C 
ATOM     17  C   UNL     1      -3.108   1.999  24.566  0.00  0.00    +0.142 C 
ENDROOT
BRANCH  11   8
ATOM      8  S   UNL     1      -2.454   3.096  25.133  0.00  0.00    +0.067 S 
ATOM      9  O   UNL     1      -2.360   3.145  24.314  0.00  0.00    -0.153 OA
ATOM     10  O   UNL     1      -2.547   3.046  25.950  0.00  0.00    -0.153 OA
BRANCH   8   3
ATOM      1  C   UNL     1      -0.888   2.394  25.659  0.00  0.00    +0.077 C 
ATOM      2  C   UNL     1      -1.029   3.187  25.480  0.00  0.00    +0.173 A 
ATOM      3  C   UNL     1      -1.748   3.510  25.239  0.00  0.00    +0.171 A 
ATOM      4  C   UNL     1      -1.638   4.319  25.121  0.00  0.00    +0.119 A 
ATOM      5  C   UNL     1      -2.215   4.856  24.877  0.00  0.00    +0.057 C 
ATOM      6  N   UNL     1      -0.851   4.497  25.290  0.00  0.00    -0.080 NA
ATOM      7  O   UNL     1      -0.473   3.797  25.513  0.00  0.00    -0.357 OA
ENDBRANCH   8   3
ENDBRANCH  11   8
BRANCH  16  18
ATOM     18  O   UNL     1      -3.478   0.836  23.888  0.00  0.00    -0.460 OA
BRANCH  18  19
ATOM     19  C   UNL     1      -3.493   0.069  24.191  0.00  0.00    +0.225 A 
ATOM     20  C   UNL     1      -4.108  -0.443  23.992  0.00  0.00    +0.058 A 
ATOM     21  C   UNL     1      -4.122  -1.210  24.296  0.00  0.00    +0.010 A 
ATOM     22  C   UNL     1      -3.520  -1.465  24.800  0.00  0.00    +0.091 A 
ATOM     23  C   UNL     1      -2.905  -0.953  24.999  0.00  0.00    +0.106 A 
ATOM     24  N   UNL     1      -2.891  -0.186  24.695  0.00  0.00    -0.210 NA
BRANCH  22  25
ATOM     25  C   UNL     1      -3.534  -2.232  25.104  0.00  0.00    +0.420 C 
ATOM     26  F   UNL     1      -3.548  -2.999  25.409  0.00  0.00    -0.166 F 
ATOM     27  F   UNL     1      -3.447  -2.536  24.343  0.00  0.00    -0.166 F 
ATOM     28  F   UNL     1      -3.621  -1.927  25.866  0.00  0.00    -0.166 F 
ENDBRANCH  22  25
ENDBRANCH  18  19
ENDBRANCH  16  18
TORSDOF 5
ENDMDL
MODEL 4
REMARK VINA RESULT:     -11.4      2.976      4.969
REMARK  Name = 
REMARK  5 active torsions:
REMARK  status: ('A' for Active; 'I' for Inactive)
REMARK    1  A    between atoms: C_3  and  S_8
REMARK    2  A    between atoms: S_8  and  N_11
REMARK    3  A    between atoms: C_16  and  O_18
REMARK    4  A    between atoms: O_18  and  C_19
REMARK    5  A    between atoms: C_22  and  C_25
REMARK                            x       y       z     vdW  Elec       q    Type
REMARK                         _______ _______ _______ _____ _____    ______ ____
ROOT
ATOM     11  N   UNL     1      -4.041   0.330  24.751  0.00  0.00    -0.149 NA
ATOM     12  C   UNL     1      -4.742   0.346  25.184  0.00  0.00    +0.128 C 
ATOM     13  C   UNL     1      -5.247   0.983  25.323  0.00  0.00    +0.161 C 
ATOM     14  O   UNL     1      -5.174   1.764  25.063  0.00  0.00    -0.348 OA
ATOM     15  C   UNL     1      -4.579   2.098  24.601  0.00  0.00    +0.187 C 
ATOM     16  C   UNL     1      -3.908   1.735  24.283  0.00  0.00    +0.215 C 
ATOM     17  C   UNL     1      -3.669   0.949  24.350  0.00  0.00    +0.142 C 
ENDROOT
BRANCH  11   8
ATOM      8  S   UNL     1      -3.659  -0.400  24.714  0.00  0.00    +0.067 S 
ATOM      9  O   UNL     1      -3.539  -0.296  23.904  0.00  0.00    -0.153 OA
ATOM     10  O   UNL     1      -3.779  -0.504  25.523  0.00  0.00    -0.153 OA
BRANCH   8   3
ATOM      1  C   UNL     1      -4.279  -1.874  23.900  0.00  0.00    +0.077 C 
ATOM      2  C   UNL     1      -3.562  -1.808  24.303  0.00  0.00    +0.173 A 
ATOM      3  C   UNL     1      -3.277  -1.131  24.677  0.00  0.00    +0.171 A 
ATOM      4  C   UNL     1      -2.543  -1.312  25.008  0.00  0.00    +0.119 A 
ATOM      5  C   UNL     1      -2.063  -0.794  25.434  0.00  0.00    +0.057 C 
ATOM      6  N   UNL     1      -2.375  -2.101  24.838  0.00  0.00    -0.080 NA
ATOM      7  O   UNL     1      -3.005  -2.408  24.402  0.00  0.00    -0.357 OA
ENDBRANCH   8   3
ENDBRANCH  11   8
BRANCH  16  18
ATOM     18  O   UNL     1      -3.413   2.224  23.841  0.00  0.00    -0.460 OA
BRANCH  18  19
ATOM     19  C   UNL     1      -2.997   2.834  24.209  0.00  0.00    +0.225 A 
ATOM     20  C   UNL     1      -3.313   3.595  24.231  0.00  0.00    +0.058 A 
ATOM     21  C   UNL     1      -2.897   4.204  24.600  0.00  0.00    +0.010 A 
ATOM     22  C   UNL     1      -2.164   4.052  24.947  0.00  0.00    +0.091 A 
ATOM     23  C   UNL     1      -1.848   3.290  24.925  0.00  0.00    +0.106 A 
ATOM     24  N   UNL     1      -2.264   2.681  24.557  0.00  0.00    -0.210 NA
BRANCH  22  25
ATOM     25  C   UNL     1      -1.747   4.661  25.316  0.00  0.00    +0.420 C 
ATOM     26  F   UNL     1      -1.331   5.270  25.686  0.00  0.00    -0.166 F 
ATOM     27  F   UNL     1      -1.239   4.706  24.669  0.00  0.00    -0.166 F 
ATOM     28  F   UNL     1      -2.257   4.616  25.964  0.00  0.00    -0.166 F 
ENDBRANCH  22  25
ENDBRANCH  18  19
ENDBRANCH  16  18
TORSDOF 5
ENDMDL
