MODEL 1
REMARK VINA RESULT:     -12.2      0.000      0.000
REMARK  Name = 
REMARK  4 active torsions:
REMARK  status: ('A' for Active; 'I' for Inactive)
REMARK    1  A    between atoms: N_3  and  C_4
REMARK    2  A    between atoms: C_4  and  C_5
REMARK    3  A    between atoms: N_14  and  S_18
REMARK    4  A    between atoms: S_18  and  C_21
REMARK                            x       y       z     vdW  Elec       q    Type
REMARK                         _______ _______ _______ _____ _____    ______ ____
ROOT
ATOM      1  O   UNL     1      -4.939   3.267  25.146  0.00  0.00    -0.252 OA
ATOM      2  C   UNL     1      -4.332   2.755  24.919  0.00  0.00    +0.308 C 
ATOM      3  N   UNL     1      -3.576   2.977  24.675  0.00  0.00    -0.257 N 
ATOM     11  C   UNL     1      -3.152   2.291  24.501  0.00  0.00    +0.117 C 
ATOM     12  C   UNL     1      -3.646   1.645  24.638  0.00  0.00    +0.114 C 
ATOM     13  C   UNL     1      -3.526   0.832  24.562  0.00  0.00    +0.117 C 
ATOM     14  N   UNL     1      -4.135   0.307  24.743  0.00  0.00    -0.152 NA
ATOM     15  C   UNL     1      -4.864   0.593  25.001  0.00  0.00    +0.117 C 
ATOM     16  C   UNL     1      -4.985   1.406  25.078  0.00  0.00    +0.114 C 
ATOM     17  N   UNL     1      -4.375   1.932  24.896  0.00  0.00    -0.261 N 
ENDROOT
BRANCH  14  18
ATOM     18  S   UNL     1      -4.016  -0.506  24.666  0.00  0.00    +0.063 S 
ATOM     19  O   UNL     1      -4.045  -0.588  25.486  0.00  0.00    -0.153 OA
ATOM     20  O   UNL     1      -3.987  -0.424  23.845  0.00  0.00    -0.153 OA
BRANCH  18  21
ATOM     21  C   UNL     1      -3.896  -1.319  24.588  0.00  0.00    +0.122 A 
ATOM     22  C   UNL     1      -3.445  -1.725  25.146  0.00  0.00    +0.020 A 
ATOM     23  C   UNL     1      -3.326  -2.538  25.067  0.00  0.00    +0.001 A 
ATOM     24  C   UNL     1      -3.658  -2.944  24.431  0.00  0.00    +0.000 A 
ATOM     25  C   UNL     1      -4.110  -2.537  23.873  0.00  0.00    +0.001 A 
ATOM     26  C   UNL     1      -4.229  -1.725  23.951  0.00  0.00    +0.020 A 
ENDBRANCH  18  21
ENDBRANCH  14  18
BRANCH   3   4
ATOM      4  C   UNL     1      -3.294   3.750  24.615  0.00  0.00    +0.141 C 
BRANCH   4   5
ATOM      5  C   UNL     1      -2.518   3.925  24.833  0.00  0.00    +0.079 A 
ATOM      6  N   UNL     1      -1.899   3.784  24.304  0.00  0.00    -0.246 NA
ATOM      7  C   UNL     1      -1.123   3.958  24.523  0.00  0.00    +0.099 A 
ATOM      8  C   UNL     1      -0.965   4.273  25.269  0.00  0.00    +0.021 A 
ATOM      9  C   UNL     1      -1.583   4.413  25.797  0.00  0.00    +0.003 A 
ATOM     10  C   UNL     1      -2.360   4.239  25.579  0.00  0.00    +0.016 A 
ENDBRANCH   4   5
ENDBRANCH   3   4
TORSDOF 4
ENDMDL
MODEL 2
REMARK VINA RESULT:     -11.6      1.336      5.000
REMARK  Name = 
REMARK  4 active torsions:
REMARK  status: ('A' for Active; 'I' for Inactive)
REMARK    1  A    between atoms: N_3  and  C_4
REMARK    2  A    between atoms: C_4  and  C_5
REMARK    3  A    between atoms: N_14  and  S_18
REMARK    4  A    between atoms: S_18  and  C_21
REMARK                            x       y       z     vdW  Elec       q    Type
REMARK                         _______ _______ _______ _____ _____    ______ ____
ROOT
ATOM      1  O   UNL     1      -5.655   1.130  25.149  0.00  0.00    -0.252 OA
ATOM      2  C   UNL     1      -4.852   1.146  24.958  0.00  0.00    +0.308 C 
ATOM      3  N   UNL     1      -4.407   0.509  24.683  0.00  0.00    -0.257 N 
ATOM     11  C   UNL     1      -3.633   0.771  24.563  0.00  0.00    +0.117 C 
ATOM     12  C   UNL     1      -3.602   1.570  24.764  0.00  0.00    +0.114 C 
ATOM     13  C   UNL     1      -2.985   2.118  24.756  0.00  0.00    +0.117 C 
ATOM     14  N   UNL     1      -3.121   2.896  24.992  0.00  0.00    -0.152 NA
ATOM     15  C   UNL     1      -3.874   3.128  25.236  0.00  0.00    +0.117 C 
ATOM     16  C   UNL     1      -4.492   2.581  25.244  0.00  0.00    +0.114 C 
ATOM     17  N   UNL     1      -4.355   1.802  25.008  0.00  0.00    -0.261 N 
ENDROOT
BRANCH  14  18
ATOM     18  S   UNL     1      -2.503   3.444  24.985  0.00  0.00    +0.063 S 
ATOM     19  O   UNL     1      -2.316   3.244  25.762  0.00  0.00    -0.153 OA
ATOM     20  O   UNL     1      -2.691   3.644  24.206  0.00  0.00    -0.153 OA
BRANCH  18  21
ATOM     21  C   UNL     1      -1.887   3.992  24.976  0.00  0.00    +0.122 A 
ATOM     22  C   UNL     1      -2.038   4.786  25.139  0.00  0.00    +0.020 A 
ATOM     23  C   UNL     1      -1.420   5.333  25.130  0.00  0.00    +0.001 A 
ATOM     24  C   UNL     1      -0.652   5.087  24.958  0.00  0.00    +0.000 A 
ATOM     25  C   UNL     1      -0.502   4.292  24.795  0.00  0.00    +0.001 A 
ATOM     26  C   UNL     1      -1.118   3.745  24.803  0.00  0.00    +0.020 A 
ENDBRANCH  18  21
ENDBRANCH  14  18
BRANCH   3   4
ATOM      4  C   UNL     1      -4.685  -0.257  24.551  0.00  0.00    +0.141 C 
BRANCH   4   5
ATOM      5  C   UNL     1      -4.187  -0.903  24.673  0.00  0.00    +0.079 A 
ATOM      6  N   UNL     1      -3.918  -1.078  25.433  0.00  0.00    -0.246 NA
ATOM      7  C   UNL     1      -3.420  -1.725  25.555  0.00  0.00    +0.099 A 
ATOM      8  C   UNL     1      -3.192  -2.197  24.918  0.00  0.00    +0.021 A 
ATOM      9  C   UNL     1      -3.462  -2.022  24.159  0.00  0.00    +0.003 A 
ATOM     10  C   UNL     1      -3.960  -1.375  24.036  0.00  0.00    +0.016 A 
ENDBRANCH   4   5
ENDBRANCH   3   4
TORSDOF 4
ENDMDL
MODEL 3
REMARK VINA RESULT:     -11.5      2.425      5.619
REMARK  Name = 
REMARK  4 active torsions:
REMARK  status: ('A' for Active; 'I' for Inactive)
REMARK    1  A    between atoms: N_3  and  C_4
REMARK    2  A    between atoms: C_4  and  C_5
REMARK    3  A    between atoms: N_14  and  S_18
REMARK    4  A    between atoms: S_18  and  C_21
REMARK                            x       y       z     vdW  Elec       q    Type
REMARK                         _______ _______ _______ _____ _____    ______ ____
ROOT
ATOM      1  O   UNL     1      -0.039  -0.898  24.240  0.00  0.00    -0.252 OA
ATOM      2  C   UNL     1      -0.603  -0.423  24.611  0.00  0.00    +0.308 C 
ATOM      3  N   UNL     1      -1.254  -0.690  25.041  0.00  0.00    -0.257 N 
ATOM     11  C   UNL     1      -1.668  -0.030  25.313  0.00  0.00    +0.117 C 
ATOM     12  C   UNL     1      -1.272   0.644  25.051  0.00  0.00    +0.114 C 
ATOM     13  C   UNL     1      -1.426   1.449  25.150  0.00  0.00    +0.117 C 
ATOM     14  N   UNL     1      -0.922   2.010  24.816  0.00  0.00    -0.152 NA
ATOM     15  C   UNL     1      -0.264   1.767  24.383  0.00  0.00    +0.117 C 
ATOM     16  C   UNL     1      -0.110   0.963  24.282  0.00  0.00    +0.114 C 
ATOM     17  N   UNL     1      -0.614   0.401  24.617  0.00  0.00    -0.261 N 
ENDROOT
BRANCH  14  18
ATOM     18  S   UNL     1      -1.076   2.814  24.916  0.00  0.00    +0.063 S 
ATOM     19  O   UNL     1      -0.665   2.805  25.631  0.00  0.00    -0.153 OA
ATOM     20  O   UNL     1      -1.488   2.823  24.200  0.00  0.00    -0.153 OA
BRANCH  18  21
ATOM     21  C   UNL     1      -1.230   3.619  25.014  0.00  0.00    +0.122 A 
ATOM     22  C   UNL     1      -0.684   4.179  24.753  0.00  0.00    +0.020 A 
ATOM     23  C   UNL     1      -0.840   4.983  24.852  0.00  0.00    +0.001 A 
ATOM     24  C   UNL     1      -1.540   5.227  25.212  0.00  0.00    +0.000 A 
ATOM     25  C   UNL     1      -2.086   4.667  25.473  0.00  0.00    +0.001 A 
ATOM     26  C   UNL     1      -1.932   3.863  25.375  0.00  0.00    +0.020 A 
ENDBRANCH  18  21
ENDBRANCH  14  18
BRANCH   3   4
ATOM      4  C   UNL     1      -1.456  -1.479  25.176  0.00  0.00    +0.141 C 
BRANCH   4   5
ATOM      5  C   UNL     1      -2.217  -1.745  25.006  0.00  0.00    +0.079 A 
ATOM      6  N   UNL     1      -2.376  -2.101  24.278  0.00  0.00    -0.246 NA
ATOM      7  C   UNL     1      -3.138  -2.368  24.107  0.00  0.00    +0.099 A 
ATOM      8  C   UNL     1      -3.741  -2.278  24.663  0.00  0.00    +0.021 A 
ATOM      9  C   UNL     1      -3.582  -1.922  25.389  0.00  0.00    +0.003 A 
ATOM     10  C   UNL     1      -2.821  -1.655  25.561  0.00  0.00    +0.016 A 
ENDBRANCH   4   5
ENDBRANCH   3   4
TORSDOF 4
ENDMDL
MODEL 4
REMARK VINA RESULT:     -11.4      1.973      2.539
REMARK  Name = 
REMARK  4 active torsions:
REMARK  status: ('A' for Active; 'I' for Inactive)
REMARK    1  A    between atoms: N_3  and  C_4
REMARK    2  A    between atoms: C_4  and  C_5
REMARK    3  A    between atoms: N_14  and  S_18
REMARK    4  A    between atoms: S_18  and  C_21
REMARK                            x       y       z     vdW  Elec       q    Type
REMARK                         _______ _______ _______ _____ _____    ______ ____
ROOT
ATOM      1  O   UNL     1       0.586   1.797  24.967  0.00  0.00    -0.252 OA
ATOM      2  C   UNL     1      -0.214   1.677  25.130  0.00  0.00    +0.308 C 
ATOM      3  N   UNL     1      -0.718   2.212  25.506  0.00  0.00    -0.257 N 
ATOM     11  C   UNL     1      -1.466   1.867  25.553  0.00  0.00    +0.117 C 
ATOM     12  C   UNL     1      -1.424   1.120  25.206  0.00  0.00    +0.114 C 
ATOM     13  C   UNL     1      -1.991   0.530  25.095  0.00  0.00    +0.117 C 
ATOM     14  N   UNL     1      -1.784  -0.175  24.722  0.00  0.00    -0.152 NA
ATOM     15  C   UNL     1      -1.011  -0.292  24.460  0.00  0.00    +0.117 C 
ATOM     16  C   UNL     1      -0.443   0.296  24.571  0.00  0.00    +0.114 C 
ATOM     17  N   UNL     1      -0.651   1.003  24.945  0.00  0.00    -0.261 N 
ENDROOT
BRANCH  14  18
ATOM     18  S   UNL     1      -2.351  -0.765  24.610  0.00  0.00    +0.063 S 
ATOM     19  O   UNL     1      -2.137  -1.107  25.329  0.00  0.00    -0.153 OA
ATOM     20  O   UNL     1      -2.564  -0.422  23.890  0.00  0.00    -0.153 OA
BRANCH  18  21
ATOM     21  C   UNL     1      -2.917  -1.354  24.497  0.00  0.00    +0.122 A 
ATOM     22  C   UNL     1      -2.763  -2.127  24.739  0.00  0.00    +0.020 A 
ATOM     23  C   UNL     1      -3.330  -2.715  24.625  0.00  0.00    +0.001 A 
ATOM     24  C   UNL     1      -4.051  -2.531  24.270  0.00  0.00    +0.000 A 
ATOM     25  C   UNL     1      -4.205  -1.757  24.028  0.00  0.00    +0.001 A 
ATOM     26  C   UNL     1      -3.639  -1.168  24.141  0.00  0.00    +0.020 A 
ENDBRANCH  18  21
ENDBRANCH  14  18
BRANCH   3   4
ATOM      4  C   UNL     1      -0.510   2.959  25.786  0.00  0.00    +0.141 C 
BRANCH   4   5
ATOM      5  C   UNL     1      -0.964   3.617  25.583  0.00  0.00    +0.079 A 
ATOM      6  N   UNL     1      -1.705   3.730  25.931  0.00  0.00    -0.246 NA
ATOM      7  C   UNL     1      -2.159   4.387  25.728  0.00  0.00    +0.099 A 
ATOM      8  C   UNL     1      -1.875   4.933  25.178  0.00  0.00    +0.021 A 
ATOM      9  C   UNL     1      -1.135   4.820  24.831  0.00  0.00    +0.003 A 
ATOM     10  C   UNL     1      -0.680   4.162  25.033  0.00  0.00    +0.016 A 
ENDBRANCH   4   5
ENDBRANCH   3   4
TORSDOF 4
ENDMDL
