MODEL 1
REMARK VINA RESULT:     -12.9      0.000      0.000
REMARK  Name = 
REMARK  4 active torsions:
REMARK  status: ('A' for Active; 'I' for Inactive)
REMARK    1  A    between atoms: C_2  and  C_5
REMARK    2  A    between atoms: C_5  and  C_6
REMARK    3  A    between atoms: C_20  and  C_23
REMARK    4  A    between atoms: C_25  and  C_29
REMARK                            x       y       z     vdW  Elec       q    Type
REMARK                         _______ _______ _______ _____ _____    ______ ____
ROOT
ATOM      6  C   UNL     1      -2.073   4.162  24.876  0.00  0.00    +0.226 C 
ATOM      7  O   UNL     1      -2.677   4.671  24.638  0.00  0.00    -0.275 OA
ATOM      8  N   UNL     1      -2.202   3.347  24.889  0.00  0.00    -0.276 N 
ATOM      9  C   UNL     1      -2.934   3.042  24.663  0.00  0.00    +0.115 C 
ATOM     10  C   UNL     1      -3.064   2.227  24.675  0.00  0.00    +0.116 C 
ATOM     11  N   UNL     1      -2.460   1.718  24.915  0.00  0.00    -0.266 N 
ATOM     12  C   UNL     1      -1.728   2.023  25.141  0.00  0.00    +0.174 C 
ATOM     13  C   UNL     1      -1.599   2.838  25.128  0.00  0.00    +0.123 C 
ATOM     14  C   UNL     1      -1.058   1.615  25.395  0.00  0.00    +0.265 C 
ATOM     15  O   UNL     1      -0.405   2.083  25.583  0.00  0.00    -0.271 OA
ATOM     16  N   UNL     1      -0.954   0.802  25.487  0.00  0.00    -0.178 NA
ATOM     17  C   UNL     1      -1.495   0.195  25.346  0.00  0.00    +0.078 A 
ATOM     18  C   UNL     1      -2.273   0.252  25.079  0.00  0.00    +0.069 A 
ATOM     19  C   UNL     1      -2.725  -0.431  24.974  0.00  0.00    +0.006 A 
ATOM     20  C   UNL     1      -2.396  -1.171  25.136  0.00  0.00    +0.000 A 
ATOM     21  C   UNL     1      -1.618  -1.227  25.402  0.00  0.00    +0.001 A 
ATOM     22  C   UNL     1      -1.167  -0.545  25.508  0.00  0.00    +0.017 A 
ATOM     33  C   UNL     1      -2.703   0.930  24.887  0.00  0.00    +0.251 C 
ATOM     34  O   UNL     1      -3.478   0.802  24.634  0.00  0.00    -0.270 OA
ENDROOT
BRANCH  20  23
ATOM     23  C   UNL     1      -2.847  -1.854  25.031  0.00  0.00    -0.000 A 
ATOM     24  C   UNL     1      -3.338  -1.927  24.373  0.00  0.00    +0.004 A 
ATOM     25  C   UNL     1      -3.789  -2.610  24.268  0.00  0.00    +0.071 A 
ATOM     26  C   UNL     1      -3.748  -3.220  24.822  0.00  0.00    +0.004 A 
ATOM     27  C   UNL     1      -3.256  -3.148  25.480  0.00  0.00    -0.000 A 
ATOM     28  C   UNL     1      -2.805  -2.465  25.585  0.00  0.00    -0.000 A 
BRANCH  25  29
ATOM     29  C   UNL     1      -4.281  -2.682  23.610  0.00  0.00    +0.419 C 
ATOM     30  F   UNL     1      -4.772  -2.755  22.952  0.00  0.00    -0.166 F 
ATOM     31  F   UNL     1      -3.780  -3.261  23.300  0.00  0.00    -0.166 F 
ATOM     32  F   UNL     1      -4.781  -2.105  23.920  0.00  0.00    -0.166 F 
ENDBRANCH  25  29
ENDBRANCH  20  23
BRANCH   6   5
ATOM      5  C   UNL     1      -1.341   4.467  25.103  0.00  0.00    +0.085 C 
BRANCH   5   2
ATOM      1  C   UNL     1      -0.999   6.061  24.852  0.00  0.00    +0.000 C 
ATOM      2  C   UNL     1      -1.170   5.264  24.978  0.00  0.00    +0.009 C 
ATOM      3  C   UNL     1      -0.551   5.052  24.473  0.00  0.00    +0.000 C 
ATOM      4  C   UNL     1      -1.787   5.476  25.481  0.00  0.00    +0.000 C 
ENDBRANCH   5   2
ENDBRANCH   6   5
TORSDOF 4
ENDMDL
MODEL 2
REMARK VINA RESULT:     -12.9      1.235      2.037
REMARK  Name = 
REMARK  4 active torsions:
REMARK  status: ('A' for Active; 'I' for Inactive)
REMARK    1  A    between atoms: C_2  and  C_5
REMARK    2  A    between atoms: C_5  and  C_6
REMARK    3  A    between atoms: C_20  and  C_23
REMARK    4  A    between atoms: C_25  and  C_29
REMARK                            x       y       z     vdW  Elec       q    Type
REMARK                         _______ _______ _______ _____ _____    ______ ____
ROOT
ATOM      6  C   UNL     1      -1.159   3.994  24.875  0.00  0.00    +0.226 C 
ATOM      7  O   UNL     1      -0.338   4.056  24.824  0.00  0.00    -0.275 OA
ATOM      8  N   UNL     1      -1.523   3.258  24.794  0.00  0.00    -0.276 N 
ATOM      9  C   UNL     1      -1.066   2.584  24.661  0.00  0.00    +0.115 C 
ATOM     10  C   UNL     1      -1.430   1.848  24.580  0.00  0.00    +0.116 C 
ATOM     11  N   UNL     1      -2.252   1.786  24.632  0.00  0.00    -0.266 N 
ATOM     12  C   UNL     1      -2.708   2.461  24.764  0.00  0.00    +0.174 C 
ATOM     13  C   UNL     1      -2.344   3.196  24.845  0.00  0.00    +0.123 C 
ATOM     14  C   UNL     1      -3.528   2.520  24.833  0.00  0.00    +0.265 C 
ATOM     15  O   UNL     1      -3.821   3.280  24.966  0.00  0.00    -0.271 OA
ATOM     16  N   UNL     1      -4.094   1.921  24.787  0.00  0.00    -0.178 NA
ATOM     17  C   UNL     1      -3.979   1.115  24.660  0.00  0.00    +0.078 A 
ATOM     18  C   UNL     1      -3.271   0.707  24.548  0.00  0.00    +0.069 A 
ATOM     19  C   UNL     1      -3.278  -0.109  24.429  0.00  0.00    +0.006 A 
ATOM     20  C   UNL     1      -3.995  -0.518  24.422  0.00  0.00    +0.000 A 
ATOM     21  C   UNL     1      -4.703  -0.111  24.533  0.00  0.00    +0.001 A 
ATOM     22  C   UNL     1      -4.696   0.705  24.653  0.00  0.00    +0.017 A 
ATOM     33  C   UNL     1      -2.501   1.006  24.535  0.00  0.00    +0.251 C 
ATOM     34  O   UNL     1      -1.904   0.452  24.410  0.00  0.00    -0.270 OA
ENDROOT
BRANCH  20  23
ATOM     23  C   UNL     1      -4.003  -1.335  24.302  0.00  0.00    -0.000 A 
ATOM     24  C   UNL     1      -3.550  -1.827  24.785  0.00  0.00    +0.004 A 
ATOM     25  C   UNL     1      -3.559  -2.643  24.666  0.00  0.00    +0.071 A 
ATOM     26  C   UNL     1      -4.021  -2.967  24.063  0.00  0.00    +0.004 A 
ATOM     27  C   UNL     1      -4.474  -2.475  23.581  0.00  0.00    -0.000 A 
ATOM     28  C   UNL     1      -4.465  -1.659  23.700  0.00  0.00    -0.000 A 
BRANCH  25  29
ATOM     29  C   UNL     1      -3.106  -3.135  25.148  0.00  0.00    +0.419 C 
ATOM     30  F   UNL     1      -2.653  -3.627  25.631  0.00  0.00    -0.166 F 
ATOM     31  F   UNL     1      -3.656  -3.043  25.757  0.00  0.00    -0.166 F 
ATOM     32  F   UNL     1      -2.557  -3.226  24.540  0.00  0.00    -0.166 F 
ENDBRANCH  25  29
ENDBRANCH  20  23
BRANCH   6   5
ATOM      5  C   UNL     1      -1.616   4.668  25.008  0.00  0.00    +0.085 C 
BRANCH   5   2
ATOM      1  C   UNL     1      -0.930   6.164  24.897  0.00  0.00    +0.000 C 
ATOM      2  C   UNL     1      -1.273   5.416  24.952  0.00  0.00    +0.009 C 
ATOM      3  C   UNL     1      -1.904   5.736  25.379  0.00  0.00    +0.000 C 
ATOM      4  C   UNL     1      -0.644   5.096  24.527  0.00  0.00    +0.000 C 
ENDBRANCH   5   2
ENDBRANCH   6   5
TORSDOF 4
ENDMDL
MODEL 3
REMARK VINA RESULT:     -12.6      2.790      6.280
REMARK  Name = 
REMARK  4 active torsions:
REMARK  status: ('A' for Active; 'I' for Inactive)
REMARK    1  A    between atoms: C_2  and  C_5
REMARK    2  A    between atoms: C_5  and  C_6
REMARK    3  A    between atoms: C_20  and  C_23
REMARK    4  A    between atoms: C_25  and  C_29
REMARK                            x       y       z     vdW  Elec       q    Type
REMARK                         _______ _______ _______ _____ _____    ______ ____
ROOT
ATOM      6  C   UNL     1      -2.928  -1.802  24.535  0.00  0.00    +0.226 C 
ATOM      7  O   UNL     1      -2.254  -2.277  24.495  0.00  0.00    -0.275 OA
ATOM      8  N   UNL     1      -2.853  -0.987  24.632  0.00  0.00    -0.276 N 
ATOM      9  C   UNL     1      -2.105  -0.645  24.688  0.00  0.00    +0.115 C 
ATOM     10  C   UNL     1      -2.029   0.171  24.785  0.00  0.00    +0.116 C 
ATOM     11  N   UNL     1      -2.704   0.645  24.825  0.00  0.00    -0.266 N 
ATOM     12  C   UNL     1      -3.452   0.303  24.769  0.00  0.00    +0.174 C 
ATOM     13  C   UNL     1      -3.527  -0.513  24.672  0.00  0.00    +0.123 C 
ATOM     14  C   UNL     1      -4.190   0.673  24.796  0.00  0.00    +0.265 C 
ATOM     15  O   UNL     1      -4.843   0.174  24.723  0.00  0.00    -0.271 OA
ATOM     16  N   UNL     1      -4.361   1.475  24.885  0.00  0.00    -0.178 NA
ATOM     17  C   UNL     1      -3.836   2.106  24.970  0.00  0.00    +0.078 A 
ATOM     18  C   UNL     1      -3.012   2.091  24.986  0.00  0.00    +0.069 A 
ATOM     19  C   UNL     1      -2.587   2.792  25.077  0.00  0.00    +0.006 A 
ATOM     20  C   UNL     1      -2.989   3.510  25.152  0.00  0.00    +0.000 A 
ATOM     21  C   UNL     1      -3.813   3.525  25.136  0.00  0.00    +0.001 A 
ATOM     22  C   UNL     1      -4.237   2.823  25.045  0.00  0.00    +0.017 A 
ATOM     33  C   UNL     1      -2.508   1.440  24.922  0.00  0.00    +0.251 C 
ATOM     34  O   UNL     1      -1.701   1.608  24.959  0.00  0.00    -0.270 OA
ENDROOT
BRANCH  20  23
ATOM     23  C   UNL     1      -2.565   4.212  25.243  0.00  0.00    -0.000 A 
ATOM     24  C   UNL     1      -1.826   4.297  24.888  0.00  0.00    +0.004 A 
ATOM     25  C   UNL     1      -1.402   4.999  24.979  0.00  0.00    +0.071 A 
ATOM     26  C   UNL     1      -1.719   5.617  25.426  0.00  0.00    +0.004 A 
ATOM     27  C   UNL     1      -2.459   5.532  25.781  0.00  0.00    -0.000 A 
ATOM     28  C   UNL     1      -2.882   4.830  25.690  0.00  0.00    -0.000 A 
BRANCH  25  29
ATOM     29  C   UNL     1      -0.663   5.084  24.623  0.00  0.00    +0.419 C 
ATOM     30  F   UNL     1       0.076   5.169  24.268  0.00  0.00    -0.166 F 
ATOM     31  F   UNL     1      -0.325   4.622  25.218  0.00  0.00    -0.166 F 
ATOM     32  F   UNL     1      -1.002   5.546  24.029  0.00  0.00    -0.166 F 
ENDBRANCH  25  29
ENDBRANCH  20  23
BRANCH   6   5
ATOM      5  C   UNL     1      -3.677  -2.145  24.479  0.00  0.00    +0.085 C 
BRANCH   5   2
ATOM      1  C   UNL     1      -3.827  -3.750  24.133  0.00  0.00    +0.000 C 
ATOM      2  C   UNL     1      -3.752  -2.948  24.306  0.00  0.00    +0.009 C 
ATOM      3  C   UNL     1      -3.507  -3.135  25.071  0.00  0.00    +0.000 C 
ATOM      4  C   UNL     1      -3.997  -2.760  23.541  0.00  0.00    +0.000 C 
ENDBRANCH   5   2
ENDBRANCH   6   5
TORSDOF 4
ENDMDL
MODEL 4
REMARK VINA RESULT:     -12.1      2.726      6.094
REMARK  Name = 
REMARK  4 active torsions:
REMARK  status: ('A' for Active; 'I' for Inactive)
REMARK    1  A    between atoms: C_2  and  C_5
REMARK    2  A    between atoms: C_5  and  C_6
REMARK    3  A    between atoms: C_20  and  C_23
REMARK    4  A    between atoms: C_25  and  C_29
REMARK                            x       y       z     vdW  Elec       q    Type
REMARK                         _______ _______ _______ _____ _____    ______ ____
ROOT
ATOM      6  C   UNL     1      -3.591  -1.547  24.249  0.00  0.00    +0.226 C 
ATOM      7  O   UNL     1      -4.330  -1.615  23.886  0.00  0.00    -0.275 OA
ATOM      8  N   UNL     1      -3.237  -0.807  24.328  0.00  0.00    -0.276 N 
ATOM      9  C   UNL     1      -3.620  -0.133  24.046  0.00  0.00    +0.115 C 
ATOM     10  C   UNL     1      -3.266   0.608  24.126  0.00  0.00    +0.116 C 
ATOM     11  N   UNL     1      -2.528   0.674  24.488  0.00  0.00    -0.266 N 
ATOM     12  C   UNL     1      -2.144   0.001  24.770  0.00  0.00    +0.174 C 
ATOM     13  C   UNL     1      -2.499  -0.740  24.691  0.00  0.00    +0.123 C 
ATOM     14  C   UNL     1      -1.411  -0.054  25.146  0.00  0.00    +0.265 C 
ATOM     15  O   UNL     1      -1.178  -0.814  25.364  0.00  0.00    -0.271 OA
ATOM     16  N   UNL     1      -0.882   0.550  25.332  0.00  0.00    -0.178 NA
ATOM     17  C   UNL     1      -0.954   1.359  25.188  0.00  0.00    +0.078 A 
ATOM     18  C   UNL     1      -1.573   1.764  24.823  0.00  0.00    +0.069 A 
ATOM     19  C   UNL     1      -1.536   2.583  24.733  0.00  0.00    +0.006 A 
ATOM     20  C   UNL     1      -0.877   2.998  25.009  0.00  0.00    +0.000 A 
ATOM     21  C   UNL     1      -0.258   2.593  25.374  0.00  0.00    +0.001 A 
ATOM     22  C   UNL     1      -0.296   1.775  25.464  0.00  0.00    +0.017 A 
ATOM     33  C   UNL     1      -2.274   1.459  24.512  0.00  0.00    +0.251 C 
ATOM     34  O   UNL     1      -2.788   2.012  24.180  0.00  0.00    -0.270 OA
ENDROOT
BRANCH  20  23
ATOM     23  C   UNL     1      -0.839   3.817  24.920  0.00  0.00    -0.000 A 
ATOM     24  C   UNL     1      -1.434   4.295  25.232  0.00  0.00    +0.004 A 
ATOM     25  C   UNL     1      -1.395   5.114  25.143  0.00  0.00    +0.071 A 
ATOM     26  C   UNL     1      -0.760   5.456  24.740  0.00  0.00    +0.004 A 
ATOM     27  C   UNL     1      -0.165   4.978  24.428  0.00  0.00    -0.000 A 
ATOM     28  C   UNL     1      -0.203   4.159  24.518  0.00  0.00    -0.000 A 
BRANCH  25  29
ATOM     29  C   UNL     1      -1.991   5.592  25.455  0.00  0.00    +0.419 C 
ATOM     30  F   UNL     1      -2.586   6.069  25.767  0.00  0.00    -0.166 F 
ATOM     31  F   UNL     1      -2.215   4.980  25.962  0.00  0.00    -0.166 F 
ATOM     32  F   UNL     1      -1.766   6.203  24.948  0.00  0.00    -0.166 F 
ENDBRANCH  25  29
ENDBRANCH  20  23
BRANCH   6   5
ATOM      5  C   UNL     1      -3.207  -2.222  24.531  0.00  0.00    +0.085 C 
BRANCH   5   2
ATOM      1  C   UNL     1      -3.938  -3.696  24.416  0.00  0.00    +0.000 C 
ATOM      2  C   UNL     1      -3.573  -2.959  24.474  0.00  0.00    +0.009 C 
ATOM      3  C   UNL     1      -3.623  -2.997  25.297  0.00  0.00    +0.000 C 
ATOM      4  C   UNL     1      -3.522  -2.920  23.652  0.00  0.00    +0.000 C 
ENDBRANCH   5   2
ENDBRANCH   6   5
TORSDOF 4
ENDMDL
MODEL 5
REMARK VINA RESULT:     -11.9      3.565      4.756
REMARK  Name = 
REMARK  4 active torsions:
REMARK  status: ('A' for Active; 'I' for Inactive)
REMARK    1  A    between atoms: C_2  and  C_5
REMARK    2  A    between atoms: C_5  and  C_6
REMARK    3  A    between atoms: C_20  and  C_23
REMARK    4  A    between atoms: C_25  and  C_29
REMARK                            x       y       z     vdW  Elec       q    Type
REMARK                         _______ _______ _______ _____ _____    ______ ____
ROOT
ATOM      6  C   UNL     1      -4.209   2.347  24.560  0.00  0.00    +0.226 C 
ATOM      7  O   UNL     1      -4.523   3.015  24.191  0.00  0.00    -0.275 OA
ATOM      8  N   UNL     1      -3.481   2.046  24.317  0.00  0.00    -0.276 N 
ATOM      9  C   UNL     1      -3.065   2.411  23.706  0.00  0.00    +0.115 C 
ATOM     10  C   UNL     1      -2.337   2.111  23.463  0.00  0.00    +0.116 C 
ATOM     11  N   UNL     1      -2.023   1.442  23.833  0.00  0.00    -0.266 N 
ATOM     12  C   UNL     1      -2.438   1.077  24.444  0.00  0.00    +0.174 C 
ATOM     13  C   UNL     1      -3.167   1.378  24.687  0.00  0.00    +0.123 C 
ATOM     14  C   UNL     1      -2.226   0.410  24.883  0.00  0.00    +0.265 C 
ATOM     15  O   UNL     1      -2.765   0.178  25.463  0.00  0.00    -0.271 OA
ATOM     16  N   UNL     1      -1.547  -0.054  24.818  0.00  0.00    -0.178 NA
ATOM     17  C   UNL     1      -0.913   0.034  24.299  0.00  0.00    +0.078 A 
ATOM     18  C   UNL     1      -0.799   0.606  23.716  0.00  0.00    +0.069 A 
ATOM     19  C   UNL     1      -0.118   0.594  23.251  0.00  0.00    +0.006 A 
ATOM     20  C   UNL     1       0.451   0.008  23.370  0.00  0.00    +0.000 A 
ATOM     21  C   UNL     1       0.338  -0.565  23.953  0.00  0.00    +0.001 A 
ATOM     22  C   UNL     1      -0.343  -0.552  24.418  0.00  0.00    +0.017 A 
ATOM     33  C   UNL     1      -1.294   1.233  23.508  0.00  0.00    +0.251 C 
ATOM     34  O   UNL     1      -1.024   1.714  22.896  0.00  0.00    -0.270 OA
ENDROOT
BRANCH  20  23
ATOM     23  C   UNL     1       1.133  -0.006  22.906  0.00  0.00    -0.000 A 
ATOM     24  C   UNL     1       1.832   0.326  23.191  0.00  0.00    +0.004 A 
ATOM     25  C   UNL     1       2.514   0.313  22.726  0.00  0.00    +0.071 A 
ATOM     26  C   UNL     1       2.496  -0.032  21.977  0.00  0.00    +0.004 A 
ATOM     27  C   UNL     1       1.797  -0.364  21.692  0.00  0.00    -0.000 A 
ATOM     28  C   UNL     1       1.115  -0.351  22.156  0.00  0.00    -0.000 A 
BRANCH  25  29
ATOM     29  C   UNL     1       3.214   0.645  23.011  0.00  0.00    +0.419 C 
ATOM     30  F   UNL     1       3.913   0.977  23.295  0.00  0.00    -0.166 F 
ATOM     31  F   UNL     1       3.559  -0.104  23.035  0.00  0.00    -0.166 F 
ATOM     32  F   UNL     1       2.868   1.394  22.987  0.00  0.00    -0.166 F 
ENDBRANCH  25  29
ENDBRANCH  20  23
BRANCH   6   5
ATOM      5  C   UNL     1      -4.624   1.981  25.172  0.00  0.00    +0.085 C 
BRANCH   5   2
ATOM      1  C   UNL     1      -6.096   2.564  25.634  0.00  0.00    +0.000 C 
ATOM      2  C   UNL     1      -5.360   2.272  25.403  0.00  0.00    +0.009 C 
ATOM      3  C   UNL     1      -5.732   1.697  24.943  0.00  0.00    +0.000 C 
ATOM      4  C   UNL     1      -4.989   2.847  25.863  0.00  0.00    +0.000 C 
ENDBRANCH   5   2
ENDBRANCH   6   5
TORSDOF 4
ENDMDL
MODEL 6
REMARK VINA RESULT:     -11.3      3.224      4.552
REMARK  Name = 
REMARK  4 active torsions:
REMARK  status: ('A' for Active; 'I' for Inactive)
REMARK    1  A    between atoms: C_2  and  C_5
REMARK    2  A    between atoms: C_5  and  C_6
REMARK    3  A    between atoms: C_20  and  C_23
REMARK    4  A    between atoms: C_25  and  C_29
REMARK                            x       y       z     vdW  Elec       q    Type
REMARK                         _______ _______ _______ _____ _____    ______ ____
ROOT
ATOM      6  C   UNL     1       2.336   0.209  22.890  0.00  0.00    +0.226 C 
ATOM      7  O   UNL     1       2.542  -0.467  22.465  0.00  0.00    -0.275 OA
ATOM      8  N   UNL     1       1.560   0.314  23.150  0.00  0.00    -0.276 N 
ATOM      9  C   UNL     1       0.989  -0.258  22.984  0.00  0.00    +0.115 C 
ATOM     10  C   UNL     1       0.213  -0.154  23.243  0.00  0.00    +0.116 C 
ATOM     11  N   UNL     1       0.008   0.523  23.669  0.00  0.00    -0.266 N 
ATOM     12  C   UNL     1       0.579   1.095  23.835  0.00  0.00    +0.174 C 
ATOM     13  C   UNL     1       1.355   0.990  23.575  0.00  0.00    +0.123 C 
ATOM     14  C   UNL     1       0.492   1.804  24.248  0.00  0.00    +0.265 C 
ATOM     15  O   UNL     1       1.174   2.261  24.321  0.00  0.00    -0.271 OA
ATOM     16  N   UNL     1      -0.188   2.116  24.596  0.00  0.00    -0.178 NA
ATOM     17  C   UNL     1      -0.947   1.796  24.618  0.00  0.00    +0.078 A 
ATOM     18  C   UNL     1      -1.216   1.086  24.298  0.00  0.00    +0.069 A 
ATOM     19  C   UNL     1      -2.007   0.866  24.383  0.00  0.00    +0.006 A 
ATOM     20  C   UNL     1      -2.529   1.359  24.790  0.00  0.00    +0.000 A 
ATOM     21  C   UNL     1      -2.260   2.070  25.111  0.00  0.00    +0.001 A 
ATOM     22  C   UNL     1      -1.470   2.289  25.026  0.00  0.00    +0.017 A 
ATOM     33  C   UNL     1      -0.790   0.519  23.875  0.00  0.00    +0.251 C 
ATOM     34  O   UNL     1      -1.221  -0.139  23.625  0.00  0.00    -0.270 OA
ENDROOT
BRANCH  20  23
ATOM     23  C   UNL     1      -3.320   1.141  24.876  0.00  0.00    -0.000 A 
ATOM     24  C   UNL     1      -3.912   1.715  24.852  0.00  0.00    +0.004 A 
ATOM     25  C   UNL     1      -4.703   1.496  24.937  0.00  0.00    +0.071 A 
ATOM     26  C   UNL     1      -4.902   0.702  25.048  0.00  0.00    +0.004 A 
ATOM     27  C   UNL     1      -4.310   0.129  25.073  0.00  0.00    -0.000 A 
ATOM     28  C   UNL     1      -3.519   0.347  24.987  0.00  0.00    -0.000 A 
BRANCH  25  29
ATOM     29  C   UNL     1      -5.294   2.070  24.913  0.00  0.00    +0.419 C 
ATOM     30  F   UNL     1      -5.886   2.644  24.888  0.00  0.00    -0.166 F 
ATOM     31  F   UNL     1      -5.348   2.050  25.736  0.00  0.00    -0.166 F 
ATOM     32  F   UNL     1      -5.240   2.090  24.090  0.00  0.00    -0.166 F 
ENDBRANCH  25  29
ENDBRANCH  20  23
BRANCH   6   5
ATOM      5  C   UNL     1       2.908   0.782  23.056  0.00  0.00    +0.085 C 
BRANCH   5   2
ATOM      1  C   UNL     1       4.476   0.534  22.611  0.00  0.00    +0.000 C 
ATOM      2  C   UNL     1       3.692   0.658  22.833  0.00  0.00    +0.009 C 
ATOM      3  C   UNL     1       3.555   1.062  22.126  0.00  0.00    +0.000 C 
ATOM      4  C   UNL     1       3.829   0.255  23.540  0.00  0.00    +0.000 C 
ENDBRANCH   5   2
ENDBRANCH   6   5
TORSDOF 4
ENDMDL
MODEL 7
REMARK VINA RESULT:     -10.0      4.297      5.632
REMARK  Name = 
REMARK  4 active torsions:
REMARK  status: ('A' for Active; 'I' for Inactive)
REMARK    1  A    between atoms: C_2  and  C_5
REMARK    2  A    between atoms: C_5  and  C_6
REMARK    3  A    between atoms: C_20  and  C_23
REMARK    4  A    between atoms: C_25  and  C_29
REMARK                            x       y       z     vdW  Elec       q    Type
REMARK                         _______ _______ _______ _____ _____    ______ ____
ROOT
ATOM      6  C   UNL     1      -2.279   2.491  24.726  0.00  0.00    +0.226 C 
ATOM      7  O   UNL     1      -2.366   3.210  25.122  0.00  0.00    -0.275 OA
ATOM      8  N   UNL     1      -1.529   2.231  24.504  0.00  0.00    -0.276 N 
ATOM      9  C   UNL     1      -0.865   2.689  24.677  0.00  0.00    +0.115 C 
ATOM     10  C   UNL     1      -0.114   2.430  24.455  0.00  0.00    +0.116 C 
ATOM     11  N   UNL     1      -0.027   1.710  24.060  0.00  0.00    -0.266 N 
ATOM     12  C   UNL     1      -0.691   1.252  23.887  0.00  0.00    +0.174 C 
ATOM     13  C   UNL     1      -1.441   1.512  24.109  0.00  0.00    +0.123 C 
ATOM     14  C   UNL     1      -0.726   0.524  23.500  0.00  0.00    +0.265 C 
ATOM     15  O   UNL     1      -1.480   0.203  23.411  0.00  0.00    -0.271 OA
ATOM     16  N   UNL     1      -0.106   0.075  23.191  0.00  0.00    -0.178 NA
ATOM     17  C   UNL     1       0.701   0.243  23.193  0.00  0.00    +0.078 A 
ATOM     18  C   UNL     1       1.089   0.901  23.503  0.00  0.00    +0.069 A 
ATOM     19  C   UNL     1       1.910   0.963  23.446  0.00  0.00    +0.006 A 
ATOM     20  C   UNL     1       2.343   0.364  23.077  0.00  0.00    +0.000 A 
ATOM     21  C   UNL     1       1.955  -0.294  22.767  0.00  0.00    +0.001 A 
ATOM     22  C   UNL     1       1.134  -0.355  22.824  0.00  0.00    +0.017 A 
ATOM     33  C   UNL     1       0.765   1.555  23.889  0.00  0.00    +0.251 C 
ATOM     34  O   UNL     1       1.304   2.128  24.137  0.00  0.00    -0.270 OA
ENDROOT
BRANCH  20  23
ATOM     23  C   UNL     1       3.163   0.424  23.019  0.00  0.00    -0.000 A 
ATOM     24  C   UNL     1       3.646  -0.025  23.515  0.00  0.00    +0.004 A 
ATOM     25  C   UNL     1       4.467   0.035  23.457  0.00  0.00    +0.071 A 
ATOM     26  C   UNL     1       4.805   0.546  22.902  0.00  0.00    +0.004 A 
ATOM     27  C   UNL     1       4.322   0.995  22.407  0.00  0.00    -0.000 A 
ATOM     28  C   UNL     1       3.501   0.934  22.465  0.00  0.00    -0.000 A 
BRANCH  25  29
ATOM     29  C   UNL     1       4.950  -0.414  23.952  0.00  0.00    +0.419 C 
ATOM     30  F   UNL     1       5.432  -0.863  24.448  0.00  0.00    -0.166 F 
ATOM     31  F   UNL     1       4.692  -1.103  23.578  0.00  0.00    -0.166 F 
ATOM     32  F   UNL     1       5.206   0.275  24.326  0.00  0.00    -0.166 F 
ENDBRANCH  25  29
ENDBRANCH  20  23
BRANCH   6   5
ATOM      5  C   UNL     1      -2.943   2.032  24.553  0.00  0.00    +0.085 C 
BRANCH   5   2
ATOM      1  C   UNL     1      -4.454   2.617  24.863  0.00  0.00    +0.000 C 
ATOM      2  C   UNL     1      -3.698   2.325  24.708  0.00  0.00    +0.009 C 
ATOM      3  C   UNL     1      -3.722   1.892  25.411  0.00  0.00    +0.000 C 
ATOM      4  C   UNL     1      -3.675   2.757  24.006  0.00  0.00    +0.000 C 
ENDBRANCH   5   2
ENDBRANCH   6   5
TORSDOF 4
ENDMDL
MODEL 8
REMARK VINA RESULT:      -9.2     17.141     18.533
REMARK  Name = 
REMARK  4 active torsions:
REMARK  status: ('A' for Active; 'I' for Inactive)
REMARK    1  A    between atoms: C_2  and  C_5
REMARK    2  A    between atoms: C_5  and  C_6
REMARK    3  A    between atoms: C_20  and  C_23
REMARK    4  A    between atoms: C_25  and  C_29
REMARK                            x       y       z     vdW  Elec       q    Type
REMARK                         _______ _______ _______ _____ _____    ______ ____
ROOT
ATOM      6  C   UNL     1      -8.751  -8.793  10.000  0.00  0.00    +0.226 C 
ATOM      7  O   UNL     1      -9.300  -8.921  10.601  0.00  0.00    -0.275 OA
ATOM      8  N   UNL     1      -7.949  -8.932  10.136  0.00  0.00    -0.276 N 
ATOM      9  C   UNL     1      -7.697  -9.201  10.874  0.00  0.00    +0.115 C 
ATOM     10  C   UNL     1      -6.896  -9.341  11.011  0.00  0.00    +0.116 C 
ATOM     11  N   UNL     1      -6.346  -9.212  10.409  0.00  0.00    -0.266 N 
ATOM     12  C   UNL     1      -6.599  -8.944   9.671  0.00  0.00    +0.174 C 
ATOM     13  C   UNL     1      -7.400  -8.804   9.534  0.00  0.00    +0.123 C 
ATOM     14  C   UNL     1      -6.145  -8.782   9.000  0.00  0.00    +0.265 C 
ATOM     15  O   UNL     1      -6.564  -8.519   8.340  0.00  0.00    -0.271 OA
ATOM     16  N   UNL     1      -5.329  -8.848   8.903  0.00  0.00    -0.178 NA
ATOM     17  C   UNL     1      -4.764  -9.093   9.451  0.00  0.00    +0.078 A 
ATOM     18  C   UNL     1      -4.874  -9.332  10.233  0.00  0.00    +0.069 A 
ATOM     19  C   UNL     1      -4.228  -9.557  10.692  0.00  0.00    +0.006 A 
ATOM     20  C   UNL     1      -3.468  -9.544  10.368  0.00  0.00    +0.000 A 
ATOM     21  C   UNL     1      -3.357  -9.305   9.587  0.00  0.00    +0.001 A 
ATOM     22  C   UNL     1      -4.004  -9.080   9.128  0.00  0.00    +0.017 A 
ATOM     33  C   UNL     1      -5.580  -9.385  10.659  0.00  0.00    +0.251 C 
ATOM     34  O   UNL     1      -5.507  -9.645  11.439  0.00  0.00    -0.270 OA
ENDROOT
BRANCH  20  23
ATOM     23  C   UNL     1      -2.820  -9.769  10.827  0.00  0.00    -0.000 A 
ATOM     24  C   UNL     1      -2.167  -9.270  10.892  0.00  0.00    +0.004 A 
ATOM     25  C   UNL     1      -1.519  -9.496  11.350  0.00  0.00    +0.071 A 
ATOM     26  C   UNL     1      -1.525 -10.221  11.744  0.00  0.00    +0.004 A 
ATOM     27  C   UNL     1      -2.179 -10.720  11.680  0.00  0.00    -0.000 A 
ATOM     28  C   UNL     1      -2.826 -10.495  11.221  0.00  0.00    -0.000 A 
BRANCH  25  29
ATOM     29  C   UNL     1      -0.866  -8.997  11.415  0.00  0.00    +0.419 C 
ATOM     30  F   UNL     1      -0.212  -8.498  11.480  0.00  0.00    -0.166 F 
ATOM     31  F   UNL     1      -0.767  -9.020  10.596  0.00  0.00    -0.166 F 
ATOM     32  F   UNL     1      -0.964  -8.974  12.233  0.00  0.00    -0.166 F 
ENDBRANCH  25  29
ENDBRANCH  20  23
BRANCH   6   5
ATOM      5  C   UNL     1      -9.003  -8.524   9.261  0.00  0.00    +0.085 C 
BRANCH   5   2
ATOM      1  C   UNL     1     -10.607  -8.257   8.984  0.00  0.00    +0.000 C 
ATOM      2  C   UNL     1      -9.805  -8.390   9.122  0.00  0.00    +0.009 C 
ATOM      3  C   UNL     1      -9.706  -7.595   9.320  0.00  0.00    +0.000 C 
ATOM      4  C   UNL     1      -9.903  -9.185   8.924  0.00  0.00    +0.000 C 
ENDBRANCH   5   2
ENDBRANCH   6   5
TORSDOF 4
ENDMDL
