MODEL 1
REMARK VINA RESULT:     -10.3      0.000      0.000
REMARK  Name = 
REMARK  5 active torsions:
REMARK  status: ('A' for Active; 'I' for Inactive)
REMARK    1  A    between atoms: C_3  and  C_4
REMARK    2  A    between atoms: C_4  and  N_5
REMARK    3  A    between atoms: C_6  and  C_8
REMARK    4  A    between atoms: C_14  and  C_15
REMARK    5  A    between atoms: C_15  and  C_16
REMARK                            x       y       z     vdW  Elec       q    Type
REMARK                         _______ _______ _______ _____ _____    ______ ____
ROOT
ATOM      1  O   UNL     1      -5.683   4.068  25.950  0.00  0.00    -0.218 OA
ATOM      2  C   UNL     1      -5.242   3.444  25.640  0.00  0.00    +0.213 C 
ATOM      3  C   UNL     1      -4.421   3.421  25.564  0.00  0.00    +0.170 C 
ATOM     13  O   UNL     1      -4.216   2.696  25.228  0.00  0.00    -0.351 OA
ATOM     14  C   UNL     1      -4.910   2.270  25.097  0.00  0.00    +0.157 C 
ATOM     30  C   UNL     1      -5.545   2.733  25.351  0.00  0.00    +0.212 C 
ATOM     31  O   UNL     1      -6.341   2.521  25.322  0.00  0.00    -0.218 OA
ENDROOT
BRANCH   3   4
ATOM      4  C   UNL     1      -3.897   4.019  25.785  0.00  0.00    +0.148 C 
BRANCH   4   5
ATOM      5  N   UNL     1      -3.151   4.065  25.435  0.00  0.00    -0.196 NA
ATOM      6  C   UNL     1      -2.555   4.511  25.789  0.00  0.00    +0.300 C 
ATOM      7  O   UNL     1      -2.705   4.912  26.494  0.00  0.00    -0.265 OA
BRANCH   6   8
ATOM      8  C   UNL     1      -1.809   4.557  25.439  0.00  0.00    +0.200 A 
ATOM      9  C   UNL     1      -1.476   5.228  25.095  0.00  0.00    +0.046 A 
ATOM     10  C   UNL     1      -0.727   5.026  24.815  0.00  0.00    +0.044 A 
ATOM     11  C   UNL     1      -0.598   4.229  24.985  0.00  0.00    +0.180 A 
ATOM     12  O   UNL     1      -1.266   3.940  25.371  0.00  0.00    -0.446 OA
ENDBRANCH   6   8
ENDBRANCH   4   5
ENDBRANCH   3   4
BRANCH  14  15
ATOM     15  C   UNL     1      -4.962   1.515  24.769  0.00  0.00    +0.117 C 
BRANCH  15  16
ATOM     16  C   UNL     1      -4.368   1.245  24.262  0.00  0.00    +0.228 C 
ATOM     17  O   UNL     1      -4.077   1.737  23.667  0.00  0.00    -0.275 OA
ATOM     18  N   UNL     1      -4.067   0.482  24.352  0.00  0.00    -0.276 N 
ATOM     19  C   UNL     1      -3.474   0.211  23.845  0.00  0.00    +0.115 C 
ATOM     20  C   UNL     1      -3.173  -0.551  23.935  0.00  0.00    +0.114 C 
ATOM     21  N   UNL     1      -3.464  -1.044  24.529  0.00  0.00    -0.290 N 
ATOM     22  C   UNL     1      -4.057  -0.772  25.035  0.00  0.00    +0.114 C 
ATOM     23  C   UNL     1      -4.358  -0.010  24.946  0.00  0.00    +0.115 C 
ATOM     24  C   UNL     1      -3.163  -1.806  24.619  0.00  0.00    +0.132 A 
ATOM     25  N   UNL     1      -2.570  -2.077  24.112  0.00  0.00    -0.229 NA
ATOM     26  C   UNL     1      -2.268  -2.840  24.201  0.00  0.00    +0.100 A 
ATOM     27  C   UNL     1      -2.560  -3.332  24.796  0.00  0.00    +0.021 A 
ATOM     28  C   UNL     1      -3.153  -3.061  25.302  0.00  0.00    +0.004 A 
ATOM     29  C   UNL     1      -3.455  -2.298  25.213  0.00  0.00    +0.034 A 
ENDBRANCH  15  16
ENDBRANCH  14  15
TORSDOF 5
ENDMDL
MODEL 2
REMARK VINA RESULT:      -9.7      1.529      3.287
REMARK  Name = 
REMARK  5 active torsions:
REMARK  status: ('A' for Active; 'I' for Inactive)
REMARK    1  A    between atoms: C_3  and  C_4
REMARK    2  A    between atoms: C_4  and  N_5
REMARK    3  A    between atoms: C_6  and  C_8
REMARK    4  A    between atoms: C_14  and  C_15
REMARK    5  A    between atoms: C_15  and  C_16
REMARK                            x       y       z     vdW  Elec       q    Type
REMARK                         _______ _______ _______ _____ _____    ______ ____
ROOT
ATOM      1  O   UNL     1      -0.641   4.335  24.806  0.00  0.00    -0.218 OA
ATOM      2  C   UNL     1      -0.901   3.553  24.852  0.00  0.00    +0.213 C 
ATOM      3  C   UNL     1      -1.632   3.302  25.141  0.00  0.00    +0.170 C 
ATOM     13  O   UNL     1      -1.660   2.479  25.085  0.00  0.00    -0.351 OA
ATOM     14  C   UNL     1      -0.946   2.222  24.761  0.00  0.00    +0.157 C 
ATOM     30  C   UNL     1      -0.477   2.886  24.617  0.00  0.00    +0.212 C 
ATOM     31  O   UNL     1       0.282   2.882  24.295  0.00  0.00    -0.218 OA
ENDROOT
BRANCH   3   4
ATOM      4  C   UNL     1      -2.230   3.789  25.435  0.00  0.00    +0.148 C 
BRANCH   4   5
ATOM      5  N   UNL     1      -3.020   3.563  25.360  0.00  0.00    -0.196 NA
ATOM      6  C   UNL     1      -3.590   3.879  25.865  0.00  0.00    +0.300 C 
ATOM      7  O   UNL     1      -3.370   4.423  26.445  0.00  0.00    -0.265 OA
BRANCH   6   8
ATOM      8  C   UNL     1      -4.380   3.653  25.790  0.00  0.00    +0.200 A 
ATOM      9  C   UNL     1      -4.968   4.071  25.390  0.00  0.00    +0.046 A 
ATOM     10  C   UNL     1      -5.672   3.646  25.455  0.00  0.00    +0.044 A 
ATOM     11  C   UNL     1      -5.519   2.966  25.895  0.00  0.00    +0.180 A 
ATOM     12  O   UNL     1      -4.721   2.970  26.102  0.00  0.00    -0.446 OA
ENDBRANCH   6   8
ENDBRANCH   4   5
ENDBRANCH   3   4
BRANCH  14  15
ATOM     15  C   UNL     1      -0.737   1.439  24.608  0.00  0.00    +0.117 C 
BRANCH  15  16
ATOM     16  C   UNL     1      -0.839   0.864  25.191  0.00  0.00    +0.228 C 
ATOM     17  O   UNL     1      -0.425   0.920  25.903  0.00  0.00    -0.275 OA
ATOM     18  N   UNL     1      -1.354   0.232  25.062  0.00  0.00    -0.276 N 
ATOM     19  C   UNL     1      -1.455  -0.343  25.645  0.00  0.00    +0.115 C 
ATOM     20  C   UNL     1      -1.970  -0.974  25.516  0.00  0.00    +0.114 C 
ATOM     21  N   UNL     1      -2.384  -1.031  24.804  0.00  0.00    -0.290 N 
ATOM     22  C   UNL     1      -2.282  -0.455  24.222  0.00  0.00    +0.114 C 
ATOM     23  C   UNL     1      -1.767   0.176  24.351  0.00  0.00    +0.115 C 
ATOM     24  C   UNL     1      -2.898  -1.662  24.675  0.00  0.00    +0.132 A 
ATOM     25  N   UNL     1      -3.000  -2.237  25.258  0.00  0.00    -0.229 NA
ATOM     26  C   UNL     1      -3.515  -2.869  25.129  0.00  0.00    +0.100 A 
ATOM     27  C   UNL     1      -3.928  -2.925  24.418  0.00  0.00    +0.021 A 
ATOM     28  C   UNL     1      -3.827  -2.350  23.835  0.00  0.00    +0.004 A 
ATOM     29  C   UNL     1      -3.312  -1.718  23.964  0.00  0.00    +0.034 A 
ENDBRANCH  15  16
ENDBRANCH  14  15
TORSDOF 5
ENDMDL
MODEL 3
REMARK VINA RESULT:      -9.4      1.773      3.525
REMARK  Name = 
REMARK  5 active torsions:
REMARK  status: ('A' for Active; 'I' for Inactive)
REMARK    1  A    between atoms: C_3  and  C_4
REMARK    2  A    between atoms: C_4  and  N_5
REMARK    3  A    between atoms: C_6  and  C_8
REMARK    4  A    between atoms: C_14  and  C_15
REMARK    5  A    between atoms: C_15  and  C_16
REMARK                            x       y       z     vdW  Elec       q    Type
REMARK                         _______ _______ _______ _____ _____    ______ ____
ROOT
ATOM      1  O   UNL     1      -2.159   5.426  25.474  0.00  0.00    -0.218 OA
ATOM      2  C   UNL     1      -2.016   4.626  25.327  0.00  0.00    +0.213 C 
ATOM      3  C   UNL     1      -2.586   4.032  25.280  0.00  0.00    +0.170 C 
ATOM     13  O   UNL     1      -2.199   3.319  25.126  0.00  0.00    -0.351 OA
ATOM     14  C   UNL     1      -1.390   3.473  25.078  0.00  0.00    +0.157 C 
ATOM     30  C   UNL     1      -1.276   4.281  25.203  0.00  0.00    +0.212 C 
ATOM     31  O   UNL     1      -0.552   4.674  25.203  0.00  0.00    -0.218 OA
ENDROOT
BRANCH   3   4
ATOM      4  C   UNL     1      -3.400   4.133  25.370  0.00  0.00    +0.148 C 
BRANCH   4   5
ATOM      5  N   UNL     1      -3.903   3.480  25.337  0.00  0.00    -0.196 NA
ATOM      6  C   UNL     1      -4.718   3.583  25.404  0.00  0.00    +0.300 C 
ATOM      7  O   UNL     1      -5.031   4.339  25.505  0.00  0.00    -0.265 OA
BRANCH   6   8
ATOM      8  C   UNL     1      -5.221   2.930  25.371  0.00  0.00    +0.200 A 
ATOM      9  C   UNL     1      -5.639   2.607  26.005  0.00  0.00    +0.046 A 
ATOM     10  C   UNL     1      -6.071   1.963  25.725  0.00  0.00    +0.044 A 
ATOM     11  C   UNL     1      -5.920   1.887  24.917  0.00  0.00    +0.180 A 
ATOM     12  O   UNL     1      -5.395   2.484  24.699  0.00  0.00    -0.446 OA
ENDBRANCH   6   8
ENDBRANCH   4   5
ENDBRANCH   3   4
BRANCH  14  15
ATOM     15  C   UNL     1      -0.799   2.917  24.932  0.00  0.00    +0.117 C 
BRANCH  15  16
ATOM     16  C   UNL     1      -0.863   2.407  24.286  0.00  0.00    +0.228 C 
ATOM     17  O   UNL     1      -0.924   2.714  23.522  0.00  0.00    -0.275 OA
ATOM     18  N   UNL     1      -0.867   1.591  24.405  0.00  0.00    -0.276 N 
ATOM     19  C   UNL     1      -0.931   1.081  23.759  0.00  0.00    +0.115 C 
ATOM     20  C   UNL     1      -0.934   0.265  23.877  0.00  0.00    +0.114 C 
ATOM     21  N   UNL     1      -0.873  -0.042  24.641  0.00  0.00    -0.290 N 
ATOM     22  C   UNL     1      -0.809   0.469  25.286  0.00  0.00    +0.114 C 
ATOM     23  C   UNL     1      -0.806   1.285  25.168  0.00  0.00    +0.115 C 
ATOM     24  C   UNL     1      -0.877  -0.858  24.760  0.00  0.00    +0.132 A 
ATOM     25  N   UNL     1      -0.941  -1.368  24.114  0.00  0.00    -0.229 NA
ATOM     26  C   UNL     1      -0.944  -2.185  24.232  0.00  0.00    +0.100 A 
ATOM     27  C   UNL     1      -0.883  -2.491  24.996  0.00  0.00    +0.021 A 
ATOM     28  C   UNL     1      -0.819  -1.981  25.641  0.00  0.00    +0.004 A 
ATOM     29  C   UNL     1      -0.816  -1.164  25.523  0.00  0.00    +0.034 A 
ENDBRANCH  15  16
ENDBRANCH  14  15
TORSDOF 5
ENDMDL
MODEL 4
REMARK VINA RESULT:      -9.2      2.670      6.121
REMARK  Name = 
REMARK  5 active torsions:
REMARK  status: ('A' for Active; 'I' for Inactive)
REMARK    1  A    between atoms: C_3  and  C_4
REMARK    2  A    between atoms: C_4  and  N_5
REMARK    3  A    between atoms: C_6  and  C_8
REMARK    4  A    between atoms: C_14  and  C_15
REMARK    5  A    between atoms: C_15  and  C_16
REMARK                            x       y       z     vdW  Elec       q    Type
REMARK                         _______ _______ _______ _____ _____    ______ ____
ROOT
ATOM      1  O   UNL     1       0.974  -0.782  23.406  0.00  0.00    -0.218 OA
ATOM      2  C   UNL     1       0.431  -0.239  23.707  0.00  0.00    +0.213 C 
ATOM      3  C   UNL     1      -0.243  -0.419  24.146  0.00  0.00    +0.170 C 
ATOM     13  O   UNL     1      -0.624   0.290  24.332  0.00  0.00    -0.351 OA
ATOM     14  C   UNL     1      -0.184   0.908  24.007  0.00  0.00    +0.157 C 
ATOM     30  C   UNL     1       0.468   0.582  23.620  0.00  0.00    +0.212 C 
ATOM     31  O   UNL     1       1.053   1.001  23.218  0.00  0.00    -0.218 OA
ENDROOT
BRANCH   3   4
ATOM      4  C   UNL     1      -0.493  -1.175  24.363  0.00  0.00    +0.148 C 
BRANCH   4   5
ATOM      5  N   UNL     1      -1.296  -1.363  24.352  0.00  0.00    -0.196 NA
ATOM      6  C   UNL     1      -1.562  -2.059  24.705  0.00  0.00    +0.300 C 
ATOM      7  O   UNL     1      -1.025  -2.567  25.070  0.00  0.00    -0.265 OA
BRANCH   6   8
ATOM      8  C   UNL     1      -2.365  -2.247  24.694  0.00  0.00    +0.200 A 
ATOM      9  C   UNL     1      -2.921  -2.035  25.265  0.00  0.00    +0.046 A 
ATOM     10  C   UNL     1      -3.652  -2.336  25.035  0.00  0.00    +0.044 A 
ATOM     11  C   UNL     1      -3.550  -2.736  24.320  0.00  0.00    +0.180 A 
ATOM     12  O   UNL     1      -2.754  -2.681  24.110  0.00  0.00    -0.446 OA
ENDBRANCH   6   8
ENDBRANCH   4   5
ENDBRANCH   3   4
BRANCH  14  15
ATOM     15  C   UNL     1      -0.365   1.711  24.059  0.00  0.00    +0.117 C 
BRANCH  15  16
ATOM     16  C   UNL     1      -0.577   2.040  24.786  0.00  0.00    +0.228 C 
ATOM     17  O   UNL     1      -0.036   2.044  25.409  0.00  0.00    -0.275 OA
ATOM     18  N   UNL     1      -1.328   2.364  24.888  0.00  0.00    -0.276 N 
ATOM     19  C   UNL     1      -1.539   2.692  25.615  0.00  0.00    +0.115 C 
ATOM     20  C   UNL     1      -2.291   3.016  25.718  0.00  0.00    +0.114 C 
ATOM     21  N   UNL     1      -2.832   3.012  25.094  0.00  0.00    -0.290 N 
ATOM     22  C   UNL     1      -2.619   2.683  24.368  0.00  0.00    +0.114 C 
ATOM     23  C   UNL     1      -1.868   2.359  24.265  0.00  0.00    +0.115 C 
ATOM     24  C   UNL     1      -3.583   3.336  25.197  0.00  0.00    +0.132 A 
ATOM     25  N   UNL     1      -3.794   3.664  25.924  0.00  0.00    -0.229 NA
ATOM     26  C   UNL     1      -4.546   3.989  26.027  0.00  0.00    +0.100 A 
ATOM     27  C   UNL     1      -5.086   3.984  25.403  0.00  0.00    +0.021 A 
ATOM     28  C   UNL     1      -4.875   3.655  24.677  0.00  0.00    +0.004 A 
ATOM     29  C   UNL     1      -4.123   3.331  24.574  0.00  0.00    +0.034 A 
ENDBRANCH  15  16
ENDBRANCH  14  15
TORSDOF 5
ENDMDL
MODEL 5
REMARK VINA RESULT:      -8.9      3.295      4.829
REMARK  Name = 
REMARK  5 active torsions:
REMARK  status: ('A' for Active; 'I' for Inactive)
REMARK    1  A    between atoms: C_3  and  C_4
REMARK    2  A    between atoms: C_4  and  N_5
REMARK    3  A    between atoms: C_6  and  C_8
REMARK    4  A    between atoms: C_14  and  C_15
REMARK    5  A    between atoms: C_15  and  C_16
REMARK                            x       y       z     vdW  Elec       q    Type
REMARK                         _______ _______ _______ _____ _____    ______ ____
ROOT
ATOM      1  O   UNL     1      -3.961  -1.082  25.682  0.00  0.00    -0.218 OA
ATOM      2  C   UNL     1      -3.406  -0.658  25.244  0.00  0.00    +0.213 C 
ATOM      3  C   UNL     1      -3.535   0.062  24.864  0.00  0.00    +0.170 C 
ATOM     13  O   UNL     1      -2.832   0.286  24.494  0.00  0.00    -0.351 OA
ATOM     14  C   UNL     1      -2.268  -0.297  24.645  0.00  0.00    +0.157 C 
ATOM     30  C   UNL     1      -2.622  -0.881  25.109  0.00  0.00    +0.212 C 
ATOM     31  O   UNL     1      -2.258  -1.566  25.387  0.00  0.00    -0.218 OA
ENDROOT
BRANCH   3   4
ATOM      4  C   UNL     1      -4.244   0.486  24.856  0.00  0.00    +0.148 C 
BRANCH   4   5
ATOM      5  N   UNL     1      -4.245   1.292  25.030  0.00  0.00    -0.196 NA
ATOM      6  C   UNL     1      -4.935   1.733  24.939  0.00  0.00    +0.300 C 
ATOM      7  O   UNL     1      -5.626   1.368  24.674  0.00  0.00    -0.265 OA
BRANCH   6   8
ATOM      8  C   UNL     1      -4.936   2.540  25.112  0.00  0.00    +0.200 A 
ATOM      9  C   UNL     1      -5.427   2.918  25.657  0.00  0.00    +0.046 A 
ATOM     10  C   UNL     1      -5.242   3.721  25.653  0.00  0.00    +0.044 A 
ATOM     11  C   UNL     1      -4.636   3.840  25.106  0.00  0.00    +0.180 A 
ATOM     12  O   UNL     1      -4.447   3.110  24.773  0.00  0.00    -0.446 OA
ENDBRANCH   6   8
ENDBRANCH   4   5
ENDBRANCH   3   4
BRANCH  14  15
ATOM     15  C   UNL     1      -1.487  -0.296  24.379  0.00  0.00    +0.117 C 
BRANCH  15  16
ATOM     16  C   UNL     1      -1.006   0.361  24.515  0.00  0.00    +0.228 C 
ATOM     17  O   UNL     1      -1.268   0.970  25.006  0.00  0.00    -0.275 OA
ATOM     18  N   UNL     1      -0.264   0.408  24.159  0.00  0.00    -0.276 N 
ATOM     19  C   UNL     1       0.217   1.065  24.294  0.00  0.00    +0.115 C 
ATOM     20  C   UNL     1       0.960   1.112  23.938  0.00  0.00    +0.114 C 
ATOM     21  N   UNL     1       1.222   0.502  23.447  0.00  0.00    -0.290 N 
ATOM     22  C   UNL     1       0.740  -0.154  23.312  0.00  0.00    +0.114 C 
ATOM     23  C   UNL     1      -0.002  -0.201  23.668  0.00  0.00    +0.115 C 
ATOM     24  C   UNL     1       1.964   0.549  23.091  0.00  0.00    +0.132 A 
ATOM     25  N   UNL     1       2.446   1.206  23.226  0.00  0.00    -0.229 NA
ATOM     26  C   UNL     1       3.189   1.254  22.870  0.00  0.00    +0.100 A 
ATOM     27  C   UNL     1       3.450   0.645  22.380  0.00  0.00    +0.021 A 
ATOM     28  C   UNL     1       2.969  -0.012  22.244  0.00  0.00    +0.004 A 
ATOM     29  C   UNL     1       2.226  -0.059  22.600  0.00  0.00    +0.034 A 
ENDBRANCH  15  16
ENDBRANCH  14  15
TORSDOF 5
ENDMDL
MODEL 6
REMARK VINA RESULT:      -8.6      3.866      5.912
REMARK  Name = 
REMARK  5 active torsions:
REMARK  status: ('A' for Active; 'I' for Inactive)
REMARK    1  A    between atoms: C_3  and  C_4
REMARK    2  A    between atoms: C_4  and  N_5
REMARK    3  A    between atoms: C_6  and  C_8
REMARK    4  A    between atoms: C_14  and  C_15
REMARK    5  A    between atoms: C_15  and  C_16
REMARK                            x       y       z     vdW  Elec       q    Type
REMARK                         _______ _______ _______ _____ _____    ______ ____
ROOT
ATOM      1  O   UNL     1       0.187  -1.456  23.669  0.00  0.00    -0.218 OA
ATOM      2  C   UNL     1       0.040  -0.662  23.837  0.00  0.00    +0.213 C 
ATOM      3  C   UNL     1       0.411  -0.015  23.484  0.00  0.00    +0.170 C 
ATOM     13  O   UNL     1       0.097   0.672  23.817  0.00  0.00    -0.351 OA
ATOM     14  C   UNL     1      -0.468   0.450  24.375  0.00  0.00    +0.157 C 
ATOM     30  C   UNL     1      -0.504  -0.374  24.388  0.00  0.00    +0.212 C 
ATOM     31  O   UNL     1      -0.996  -0.831  24.866  0.00  0.00    -0.218 OA
ENDROOT
BRANCH   3   4
ATOM      4  C   UNL     1       0.994  -0.049  22.901  0.00  0.00    +0.148 C 
BRANCH   4   5
ATOM      5  N   UNL     1       1.779   0.121  23.092  0.00  0.00    -0.196 NA
ATOM      6  C   UNL     1       2.356   0.121  22.503  0.00  0.00    +0.300 C 
ATOM      7  O   UNL     1       2.149  -0.050  21.723  0.00  0.00    -0.265 OA
BRANCH   6   8
ATOM      8  C   UNL     1       3.141   0.291  22.694  0.00  0.00    +0.200 A 
ATOM      9  C   UNL     1       3.512   1.022  22.609  0.00  0.00    +0.046 A 
ATOM     10  C   UNL     1       4.292   0.944  22.865  0.00  0.00    +0.044 A 
ATOM     11  C   UNL     1       4.403   0.163  23.108  0.00  0.00    +0.180 A 
ATOM     12  O   UNL     1       3.692  -0.240  23.002  0.00  0.00    -0.446 OA
ENDBRANCH   6   8
ENDBRANCH   4   5
ENDBRANCH   3   4
BRANCH  14  15
ATOM     15  C   UNL     1      -0.919   0.962  24.839  0.00  0.00    +0.117 C 
BRANCH  15  16
ATOM     16  C   UNL     1      -1.099   1.718  24.562  0.00  0.00    +0.228 C 
ATOM     17  O   UNL     1      -0.538   2.145  24.133  0.00  0.00    -0.275 OA
ATOM     18  N   UNL     1      -1.840   2.047  24.715  0.00  0.00    -0.276 N 
ATOM     19  C   UNL     1      -2.020   2.804  24.438  0.00  0.00    +0.115 C 
ATOM     20  C   UNL     1      -2.761   3.133  24.591  0.00  0.00    +0.114 C 
ATOM     21  N   UNL     1      -3.322   2.706  25.021  0.00  0.00    -0.290 N 
ATOM     22  C   UNL     1      -3.141   1.950  25.297  0.00  0.00    +0.114 C 
ATOM     23  C   UNL     1      -2.400   1.621  25.144  0.00  0.00    +0.115 C 
ATOM     24  C   UNL     1      -4.063   3.035  25.173  0.00  0.00    +0.132 A 
ATOM     25  N   UNL     1      -4.243   3.791  24.897  0.00  0.00    -0.229 NA
ATOM     26  C   UNL     1      -4.984   4.121  25.050  0.00  0.00    +0.100 A 
ATOM     27  C   UNL     1      -5.544   3.694  25.479  0.00  0.00    +0.021 A 
ATOM     28  C   UNL     1      -5.364   2.938  25.755  0.00  0.00    +0.004 A 
ATOM     29  C   UNL     1      -4.623   2.608  25.602  0.00  0.00    +0.034 A 
ENDBRANCH  15  16
ENDBRANCH  14  15
TORSDOF 5
ENDMDL
MODEL 7
REMARK VINA RESULT:      -8.4      2.863      4.502
REMARK  Name = 
REMARK  5 active torsions:
REMARK  status: ('A' for Active; 'I' for Inactive)
REMARK    1  A    between atoms: C_3  and  C_4
REMARK    2  A    between atoms: C_4  and  N_5
REMARK    3  A    between atoms: C_6  and  C_8
REMARK    4  A    between atoms: C_14  and  C_15
REMARK    5  A    between atoms: C_15  and  C_16
REMARK                            x       y       z     vdW  Elec       q    Type
REMARK                         _______ _______ _______ _____ _____    ______ ____
ROOT
ATOM      1  O   UNL     1      -2.303   5.180  25.546  0.00  0.00    -0.218 OA
ATOM      2  C   UNL     1      -2.156   4.371  25.482  0.00  0.00    +0.213 C 
ATOM      3  C   UNL     1      -2.726   3.776  25.449  0.00  0.00    +0.170 C 
ATOM     13  O   UNL     1      -2.335   3.052  25.386  0.00  0.00    -0.351 OA
ATOM     14  C   UNL     1      -1.524   3.199  25.380  0.00  0.00    +0.157 C 
ATOM     30  C   UNL     1      -1.412   4.015  25.439  0.00  0.00    +0.212 C 
ATOM     31  O   UNL     1      -0.686   4.406  25.453  0.00  0.00    -0.218 OA
ENDROOT
BRANCH   3   4
ATOM      4  C   UNL     1      -3.543   3.886  25.475  0.00  0.00    +0.148 C 
BRANCH   4   5
ATOM      5  N   UNL     1      -4.049   3.236  25.419  0.00  0.00    -0.196 NA
ATOM      6  C   UNL     1      -4.866   3.347  25.427  0.00  0.00    +0.300 C 
ATOM      7  O   UNL     1      -5.178   4.107  25.492  0.00  0.00    -0.265 OA
BRANCH   6   8
ATOM      8  C   UNL     1      -5.372   2.697  25.371  0.00  0.00    +0.200 A 
ATOM      9  C   UNL     1      -5.775   2.342  25.997  0.00  0.00    +0.046 A 
ATOM     10  C   UNL     1      -6.215   1.714  25.693  0.00  0.00    +0.044 A 
ATOM     11  C   UNL     1      -6.084   1.681  24.879  0.00  0.00    +0.180 A 
ATOM     12  O   UNL     1      -5.563   2.288  24.681  0.00  0.00    -0.446 OA
ENDBRANCH   6   8
ENDBRANCH   4   5
ENDBRANCH   3   4
BRANCH  14  15
ATOM     15  C   UNL     1      -0.928   2.632  25.324  0.00  0.00    +0.117 C 
BRANCH  15  16
ATOM     16  C   UNL     1      -1.058   1.938  24.896  0.00  0.00    +0.228 C 
ATOM     17  O   UNL     1      -1.805   1.587  24.896  0.00  0.00    -0.275 OA
ATOM     18  N   UNL     1      -0.441   1.597  24.468  0.00  0.00    -0.276 N 
ATOM     19  C   UNL     1      -0.571   0.903  24.040  0.00  0.00    +0.115 C 
ATOM     20  C   UNL     1       0.046   0.562  23.612  0.00  0.00    +0.114 C 
ATOM     21  N   UNL     1       0.793   0.913  23.612  0.00  0.00    -0.290 N 
ATOM     22  C   UNL     1       0.922   1.607  24.040  0.00  0.00    +0.114 C 
ATOM     23  C   UNL     1       0.305   1.948  24.468  0.00  0.00    +0.115 C 
ATOM     24  C   UNL     1       1.410   0.572  23.184  0.00  0.00    +0.132 A 
ATOM     25  N   UNL     1       1.280  -0.122  22.756  0.00  0.00    -0.229 NA
ATOM     26  C   UNL     1       1.897  -0.464  22.327  0.00  0.00    +0.100 A 
ATOM     27  C   UNL     1       2.643  -0.112  22.328  0.00  0.00    +0.021 A 
ATOM     28  C   UNL     1       2.773   0.581  22.756  0.00  0.00    +0.004 A 
ATOM     29  C   UNL     1       2.156   0.923  23.184  0.00  0.00    +0.034 A 
ENDBRANCH  15  16
ENDBRANCH  14  15
TORSDOF 5
ENDMDL
MODEL 8
REMARK VINA RESULT:      -7.2     16.611     19.446
REMARK  Name = 
REMARK  5 active torsions:
REMARK  status: ('A' for Active; 'I' for Inactive)
REMARK    1  A    between atoms: C_3  and  C_4
REMARK    2  A    between atoms: C_4  and  N_5
REMARK    3  A    between atoms: C_6  and  C_8
REMARK    4  A    between atoms: C_14  and  C_15
REMARK    5  A    between atoms: C_15  and  C_16
REMARK                            x       y       z     vdW  Elec       q    Type
REMARK                         _______ _______ _______ _____ _____    ______ ____
ROOT
ATOM      1  O   UNL     1      16.462   6.160  18.609  0.00  0.00    -0.218 OA
ATOM      2  C   UNL     1      15.885   6.475  19.108  0.00  0.00    +0.213 C 
ATOM      3  C   UNL     1      15.238   6.930  18.874  0.00  0.00    +0.170 C 
ATOM     13  O   UNL     1      14.807   7.126  19.550  0.00  0.00    -0.351 OA
ATOM     14  C   UNL     1      15.187   6.792  20.201  0.00  0.00    +0.157 C 
ATOM     30  C   UNL     1      15.854   6.389  19.928  0.00  0.00    +0.212 C 
ATOM     31  O   UNL     1      16.394   5.974  20.393  0.00  0.00    -0.218 OA
ENDROOT
BRANCH   3   4
ATOM      4  C   UNL     1      15.055   7.150  18.100  0.00  0.00    +0.148 C 
BRANCH   4   5
ATOM      5  N   UNL     1      14.369   7.583  17.945  0.00  0.00    -0.196 NA
ATOM      6  C   UNL     1      14.121   7.698  17.168  0.00  0.00    +0.300 C 
ATOM      7  O   UNL     1      14.557   7.381  16.544  0.00  0.00    -0.265 OA
BRANCH   6   8
ATOM      8  C   UNL     1      13.435   8.131  17.013  0.00  0.00    +0.200 A 
ATOM      9  C   UNL     1      13.393   8.837  16.590  0.00  0.00    +0.046 A 
ATOM     10  C   UNL     1      12.604   9.076  16.569  0.00  0.00    +0.044 A 
ATOM     11  C   UNL     1      12.158   8.517  16.981  0.00  0.00    +0.180 A 
ATOM     12  O   UNL     1      12.672   7.933  17.255  0.00  0.00    -0.446 OA
ENDBRANCH   6   8
ENDBRANCH   4   5
ENDBRANCH   3   4
BRANCH  14  15
ATOM     15  C   UNL     1      14.944   6.850  20.987  0.00  0.00    +0.117 C 
BRANCH  15  16
ATOM     16  C   UNL     1      14.745   7.586  21.304  0.00  0.00    +0.228 C 
ATOM     17  O   UNL     1      15.325   8.167  21.392  0.00  0.00    -0.275 OA
ATOM     18  N   UNL     1      13.968   7.740  21.531  0.00  0.00    -0.276 N 
ATOM     19  C   UNL     1      13.769   8.476  21.848  0.00  0.00    +0.115 C 
ATOM     20  C   UNL     1      12.992   8.630  22.076  0.00  0.00    +0.114 C 
ATOM     21  N   UNL     1      12.412   8.049  21.987  0.00  0.00    -0.290 N 
ATOM     22  C   UNL     1      12.612   7.314  21.670  0.00  0.00    +0.114 C 
ATOM     23  C   UNL     1      13.389   7.160  21.443  0.00  0.00    +0.115 C 
ATOM     24  C   UNL     1      11.635   8.203  22.215  0.00  0.00    +0.132 A 
ATOM     25  N   UNL     1      11.436   8.939  22.532  0.00  0.00    -0.229 NA
ATOM     26  C   UNL     1      10.658   9.094  22.760  0.00  0.00    +0.100 A 
ATOM     27  C   UNL     1      10.080   8.512  22.671  0.00  0.00    +0.021 A 
ATOM     28  C   UNL     1      10.278   7.777  22.354  0.00  0.00    +0.004 A 
ATOM     29  C   UNL     1      11.056   7.622  22.126  0.00  0.00    +0.034 A 
ENDBRANCH  15  16
ENDBRANCH  14  15
TORSDOF 5
ENDMDL
MODEL 9
REMARK VINA RESULT:      -7.0     14.816     16.648
REMARK  Name = 
REMARK  5 active torsions:
REMARK  status: ('A' for Active; 'I' for Inactive)
REMARK    1  A    between atoms: C_3  and  C_4
REMARK    2  A    between atoms: C_4  and  N_5
REMARK    3  A    between atoms: C_6  and  C_8
REMARK    4  A    between atoms: C_14  and  C_15
REMARK    5  A    between atoms: C_15  and  C_16
REMARK                            x       y       z     vdW  Elec       q    Type
REMARK                         _______ _______ _______ _____ _____    ______ ____
ROOT
ATOM      1  O   UNL     1      -6.243  -8.934  10.751  0.00  0.00    -0.218 OA
ATOM      2  C   UNL     1      -5.943  -9.231  11.460  0.00  0.00    +0.213 C 
ATOM      3  C   UNL     1      -5.171  -9.492  11.589  0.00  0.00    +0.170 C 
ATOM     13  O   UNL     1      -5.113  -9.741  12.374  0.00  0.00    -0.351 OA
ATOM     14  C   UNL     1      -5.850  -9.633  12.730  0.00  0.00    +0.157 C 
ATOM     30  C   UNL     1      -6.363  -9.318  12.166  0.00  0.00    +0.212 C 
ATOM     31  O   UNL     1      -7.155  -9.124  12.285  0.00  0.00    -0.218 OA
ENDROOT
BRANCH   3   4
ATOM      4  C   UNL     1      -4.563  -9.502  11.031  0.00  0.00    +0.148 C 
BRANCH   4   5
ATOM      5  N   UNL     1      -3.776  -9.510  11.278  0.00  0.00    -0.196 NA
ATOM      6  C   UNL     1      -3.170  -9.579  10.723  0.00  0.00    +0.300 C 
ATOM      7  O   UNL     1      -3.351  -9.639   9.921  0.00  0.00    -0.265 OA
BRANCH   6   8
ATOM      8  C   UNL     1      -2.383  -9.586  10.970  0.00  0.00    +0.200 A 
ATOM      9  C   UNL     1      -1.803  -9.039  10.758  0.00  0.00    +0.046 A 
ATOM     10  C   UNL     1      -1.099  -9.257  11.129  0.00  0.00    +0.044 A 
ATOM     11  C   UNL     1      -1.244  -9.938  11.570  0.00  0.00    +0.180 A 
ATOM     12  O   UNL     1      -2.037 -10.142  11.472  0.00  0.00    -0.446 OA
ENDBRANCH   6   8
ENDBRANCH   4   5
ENDBRANCH   3   4
BRANCH  14  15
ATOM     15  C   UNL     1      -6.040  -9.810  13.513  0.00  0.00    +0.117 C 
BRANCH  15  16
ATOM     16  C   UNL     1      -5.479 -10.165  14.004  0.00  0.00    +0.228 C 
ATOM     17  O   UNL     1      -4.782 -10.469  13.682  0.00  0.00    -0.275 OA
ATOM     18  N   UNL     1      -5.616 -10.216  14.815  0.00  0.00    -0.276 N 
ATOM     19  C   UNL     1      -5.055 -10.572  15.306  0.00  0.00    +0.115 C 
ATOM     20  C   UNL     1      -5.191 -10.623  16.118  0.00  0.00    +0.114 C 
ATOM     21  N   UNL     1      -5.888 -10.319  16.440  0.00  0.00    -0.290 N 
ATOM     22  C   UNL     1      -6.448  -9.964  15.949  0.00  0.00    +0.114 C 
ATOM     23  C   UNL     1      -6.312  -9.913  15.137  0.00  0.00    +0.115 C 
ATOM     24  C   UNL     1      -6.024 -10.370  17.252  0.00  0.00    +0.132 A 
ATOM     25  N   UNL     1      -5.463 -10.725  17.742  0.00  0.00    -0.229 NA
ATOM     26  C   UNL     1      -5.599 -10.777  18.555  0.00  0.00    +0.100 A 
ATOM     27  C   UNL     1      -6.296 -10.473  18.875  0.00  0.00    +0.021 A 
ATOM     28  C   UNL     1      -6.856 -10.118  18.386  0.00  0.00    +0.004 A 
ATOM     29  C   UNL     1      -6.720 -10.067  17.573  0.00  0.00    +0.034 A 
ENDBRANCH  15  16
ENDBRANCH  14  15
TORSDOF 5
ENDMDL
MODEL 10
REMARK VINA RESULT:      -6.9     16.128     18.243
REMARK  Name = 
REMARK  5 active torsions:
REMARK  status: ('A' for Active; 'I' for Inactive)
REMARK    1  A    between atoms: C_3  and  C_4
REMARK    2  A    between atoms: C_4  and  N_5
REMARK    3  A    between atoms: C_6  and  C_8
REMARK    4  A    between atoms: C_14  and  C_15
REMARK    5  A    between atoms: C_15  and  C_16
REMARK                            x       y       z     vdW  Elec       q    Type
REMARK                         _______ _______ _______ _____ _____    ______ ____
ROOT
ATOM      1  O   UNL     1      -4.693  -9.743   8.417  0.00  0.00    -0.218 OA
ATOM      2  C   UNL     1      -4.654  -9.752   9.241  0.00  0.00    +0.213 C 
ATOM      3  C   UNL     1      -5.175  -9.371   9.755  0.00  0.00    +0.170 C 
ATOM     13  O   UNL     1      -4.931  -9.526  10.528  0.00  0.00    -0.351 OA
ATOM     14  C   UNL     1      -4.259 -10.003  10.492  0.00  0.00    +0.157 C 
ATOM     30  C   UNL     1      -4.088 -10.143   9.697  0.00  0.00    +0.212 C 
ATOM     31  O   UNL     1      -3.461 -10.593   9.408  0.00  0.00    -0.218 OA
ENDROOT
BRANCH   3   4
ATOM      4  C   UNL     1      -5.827  -8.915   9.535  0.00  0.00    +0.148 C 
BRANCH   4   5
ATOM      5  N   UNL     1      -6.587  -9.142   9.762  0.00  0.00    -0.196 NA
ATOM      6  C   UNL     1      -7.226  -8.641   9.626  0.00  0.00    +0.300 C 
ATOM      7  O   UNL     1      -7.107  -7.910   9.262  0.00  0.00    -0.265 OA
BRANCH   6   8
ATOM      8  C   UNL     1      -7.986  -8.868   9.854  0.00  0.00    +0.200 A 
ATOM      9  C   UNL     1      -8.633  -8.968   9.351  0.00  0.00    +0.046 A 
ATOM     10  C   UNL     1      -9.278  -9.197   9.810  0.00  0.00    +0.044 A 
ATOM     11  C   UNL     1      -9.031  -9.240  10.596  0.00  0.00    +0.180 A 
ATOM     12  O   UNL     1      -8.233  -9.037  10.622  0.00  0.00    -0.446 OA
ENDBRANCH   6   8
ENDBRANCH   4   5
ENDBRANCH   3   4
BRANCH  14  15
ATOM     15  C   UNL     1      -3.833 -10.290  11.137  0.00  0.00    +0.117 C 
BRANCH  15  16
ATOM     16  C   UNL     1      -4.223 -10.469  11.842  0.00  0.00    +0.228 C 
ATOM     17  O   UNL     1      -5.034 -10.624  11.837  0.00  0.00    -0.275 OA
ATOM     18  N   UNL     1      -3.802 -10.494  12.551  0.00  0.00    -0.276 N 
ATOM     19  C   UNL     1      -4.192 -10.673  13.256  0.00  0.00    +0.115 C 
ATOM     20  C   UNL     1      -3.771 -10.698  13.965  0.00  0.00    +0.114 C 
ATOM     21  N   UNL     1      -2.961 -10.544  13.969  0.00  0.00    -0.290 N 
ATOM     22  C   UNL     1      -2.571 -10.364  13.264  0.00  0.00    +0.114 C 
ATOM     23  C   UNL     1      -2.992 -10.340  12.555  0.00  0.00    +0.115 C 
ATOM     24  C   UNL     1      -2.540 -10.568  14.678  0.00  0.00    +0.132 A 
ATOM     25  N   UNL     1      -2.930 -10.748  15.383  0.00  0.00    -0.229 NA
ATOM     26  C   UNL     1      -2.509 -10.772  16.093  0.00  0.00    +0.100 A 
ATOM     27  C   UNL     1      -1.699 -10.618  16.097  0.00  0.00    +0.021 A 
ATOM     28  C   UNL     1      -1.309 -10.439  15.393  0.00  0.00    +0.004 A 
ATOM     29  C   UNL     1      -1.730 -10.414  14.683  0.00  0.00    +0.034 A 
ENDBRANCH  15  16
ENDBRANCH  14  15
TORSDOF 5
ENDMDL
