MODEL 1
REMARK VINA RESULT:     -12.8      0.000      0.000
REMARK  Name = 
REMARK  6 active torsions:
REMARK  status: ('A' for Active; 'I' for Inactive)
REMARK    1  A    between atoms: C_2  and  C_3
REMARK    2  A    between atoms: C_2  and  C_25
REMARK    3  A    between atoms: C_10  and  N_11
REMARK    4  A    between atoms: C_12  and  C_14
REMARK    5  A    between atoms: N_27  and  C_28
REMARK    6  A    between atoms: C_28  and  C_29
REMARK                            x       y       z     vdW  Elec       q    Type
REMARK                         _______ _______ _______ _____ _____    ______ ____
ROOT
ATOM      3  C   UNL     1      -4.426   2.934  24.663  0.00  0.00    +0.039 C 
ATOM      4  C   UNL     1      -5.074   2.917  25.176  0.00  0.00    +0.003 C 
ATOM      5  C   UNL     1      -5.384   2.195  25.424  0.00  0.00    +0.000 C 
ATOM      6  C   UNL     1      -5.049   1.490  25.162  0.00  0.00    +0.002 C 
ATOM      7  C   UNL     1      -5.695   1.473  25.673  0.00  0.00    +0.000 C 
ATOM      8  C   UNL     1      -5.359   0.767  25.411  0.00  0.00    +0.002 C 
ATOM      9  C   UNL     1      -5.023   0.061  25.148  0.00  0.00    +0.022 C 
ATOM     10  C   UNL     1      -4.375   0.077  24.636  0.00  0.00    +0.096 C 
ATOM     20  C   UNL     1      -4.065   0.799  24.387  0.00  0.00    +0.022 C 
ATOM     21  C   UNL     1      -3.418   0.816  23.875  0.00  0.00    +0.002 C 
ATOM     22  C   UNL     1      -4.401   1.506  24.650  0.00  0.00    +0.032 C 
ATOM     23  C   UNL     1      -4.091   2.228  24.401  0.00  0.00    +0.152 C 
ATOM     24  O   UNL     1      -3.444   2.245  23.889  0.00  0.00    -0.223 OA
ENDROOT
BRANCH  10  11
ATOM     11  N   UNL     1      -4.040  -0.629  24.374  0.00  0.00    -0.203 NA
ATOM     12  C   UNL     1      -3.787  -1.194  24.919  0.00  0.00    +0.265 C 
ATOM     13  O   UNL     1      -3.870  -1.052  25.728  0.00  0.00    -0.268 OA
BRANCH  12  14
ATOM     14  C   UNL     1      -3.451  -1.900  24.656  0.00  0.00    +0.055 A 
ATOM     15  C   UNL     1      -3.918  -2.463  24.275  0.00  0.00    +0.005 A 
ATOM     16  C   UNL     1      -3.582  -3.170  24.013  0.00  0.00    +0.000 A 
ATOM     17  C   UNL     1      -2.778  -3.313  24.132  0.00  0.00    +0.000 A 
ATOM     18  C   UNL     1      -2.311  -2.750  24.513  0.00  0.00    +0.000 A 
ATOM     19  C   UNL     1      -2.647  -2.044  24.775  0.00  0.00    +0.005 A 
ENDBRANCH  12  14
ENDBRANCH  10  11
BRANCH   3   2
ATOM      1  C   UNL     1      -4.284   3.941  23.658  0.00  0.00    +0.010 C 
ATOM      2  C   UNL     1      -4.116   3.657  24.414  0.00  0.00    +0.081 C 
BRANCH   2  25
ATOM     25  C   UNL     1      -3.637   4.096  24.922  0.00  0.00    +0.241 C 
ATOM     26  O   UNL     1      -3.966   4.469  25.581  0.00  0.00    -0.273 OA
ATOM     27  N   UNL     1      -2.828   4.163  24.772  0.00  0.00    -0.200 NA
BRANCH  27  28
ATOM     28  C   UNL     1      -2.349   4.601  25.279  0.00  0.00    +0.148 C 
BRANCH  28  29
ATOM     29  C   UNL     1      -1.540   4.666  25.131  0.00  0.00    +0.029 A 
ATOM     30  C   UNL     1      -1.154   5.327  24.823  0.00  0.00    +0.004 A 
ATOM     31  C   UNL     1      -0.351   5.150  24.767  0.00  0.00    +0.007 A 
ATOM     32  C   UNL     1      -0.239   4.379  25.040  0.00  0.00    +0.035 A 
ATOM     33  S   UNL     1      -0.975   4.080  25.266  0.00  0.00    -0.089 S 
ENDBRANCH  28  29
ENDBRANCH  27  28
ENDBRANCH   2  25
ENDBRANCH   3   2
TORSDOF 6
ENDMDL
MODEL 2
REMARK VINA RESULT:     -11.6      1.526      5.244
REMARK  Name = 
REMARK  6 active torsions:
REMARK  status: ('A' for Active; 'I' for Inactive)
REMARK    1  A    between atoms: C_2  and  C_3
REMARK    2  A    between atoms: C_2  and  C_25
REMARK    3  A    between atoms: C_10  and  N_11
REMARK    4  A    between atoms: C_12  and  C_14
REMARK    5  A    between atoms: N_27  and  C_28
REMARK    6  A    between atoms: C_28  and  C_29
REMARK                            x       y       z     vdW  Elec       q    Type
REMARK                         _______ _______ _______ _____ _____    ______ ____
ROOT
ATOM      3  C   UNL     1      -4.160   0.148  24.401  0.00  0.00    +0.039 C 
ATOM      4  C   UNL     1      -4.845   0.287  24.842  0.00  0.00    +0.003 C 
ATOM      5  C   UNL     1      -4.991   1.037  25.151  0.00  0.00    +0.000 C 
ATOM      6  C   UNL     1      -4.454   1.649  25.020  0.00  0.00    +0.002 C 
ATOM      7  C   UNL     1      -5.137   1.787  25.459  0.00  0.00    +0.000 C 
ATOM      8  C   UNL     1      -4.600   2.400  25.329  0.00  0.00    +0.002 C 
ATOM      9  C   UNL     1      -4.063   3.012  25.198  0.00  0.00    +0.022 C 
ATOM     10  C   UNL     1      -3.379   2.873  24.757  0.00  0.00    +0.096 C 
ATOM     20  C   UNL     1      -3.232   2.123  24.449  0.00  0.00    +0.022 C 
ATOM     21  C   UNL     1      -2.549   1.984  24.008  0.00  0.00    +0.002 C 
ATOM     22  C   UNL     1      -3.770   1.510  24.579  0.00  0.00    +0.032 C 
ATOM     23  C   UNL     1      -3.623   0.760  24.271  0.00  0.00    +0.152 C 
ATOM     24  O   UNL     1      -2.940   0.621  23.830  0.00  0.00    -0.223 OA
ENDROOT
BRANCH  10  11
ATOM     11  N   UNL     1      -2.841   3.485  24.627  0.00  0.00    -0.203 NA
ATOM     12  C   UNL     1      -2.485   3.866  25.265  0.00  0.00    +0.265 C 
ATOM     13  O   UNL     1      -2.666   3.634  26.037  0.00  0.00    -0.268 OA
BRANCH  12  14
ATOM     14  C   UNL     1      -1.948   4.478  25.135  0.00  0.00    +0.055 A 
ATOM     15  C   UNL     1      -2.209   5.260  25.121  0.00  0.00    +0.005 A 
ATOM     16  C   UNL     1      -1.672   5.873  24.990  0.00  0.00    +0.000 A 
ATOM     17  C   UNL     1      -0.873   5.703  24.873  0.00  0.00    +0.000 A 
ATOM     18  C   UNL     1      -0.612   4.920  24.887  0.00  0.00    +0.000 A 
ATOM     19  C   UNL     1      -1.150   4.308  25.018  0.00  0.00    +0.005 A 
ENDBRANCH  12  14
ENDBRANCH  10  11
BRANCH   3   2
ATOM      1  C   UNL     1      -4.218  -0.776  23.312  0.00  0.00    +0.010 C 
ATOM      2  C   UNL     1      -4.014  -0.603  24.093  0.00  0.00    +0.081 C 
BRANCH   2  25
ATOM     25  C   UNL     1      -3.665  -1.182  24.565  0.00  0.00    +0.241 C 
ATOM     26  O   UNL     1      -4.118  -1.592  25.120  0.00  0.00    -0.273 OA
ATOM     27  N   UNL     1      -2.861  -1.352  24.483  0.00  0.00    -0.200 NA
BRANCH  27  28
ATOM     28  C   UNL     1      -2.511  -1.930  24.955  0.00  0.00    +0.148 C 
BRANCH  28  29
ATOM     29  C   UNL     1      -1.690  -1.962  25.029  0.00  0.00    +0.029 A 
ATOM     30  C   UNL     1      -1.236  -1.555  25.585  0.00  0.00    +0.004 A 
ATOM     31  C   UNL     1      -0.444  -1.750  25.458  0.00  0.00    +0.007 A 
ATOM     32  C   UNL     1      -0.409  -2.277  24.823  0.00  0.00    +0.035 A 
ATOM     33  S   UNL     1      -1.179  -2.408  24.558  0.00  0.00    -0.089 S 
ENDBRANCH  28  29
ENDBRANCH  27  28
ENDBRANCH   2  25
ENDBRANCH   3   2
TORSDOF 6
ENDMDL
MODEL 3
REMARK VINA RESULT:     -10.9      2.639      6.395
REMARK  Name = 
REMARK  6 active torsions:
REMARK  status: ('A' for Active; 'I' for Inactive)
REMARK    1  A    between atoms: C_2  and  C_3
REMARK    2  A    between atoms: C_2  and  C_25
REMARK    3  A    between atoms: C_10  and  N_11
REMARK    4  A    between atoms: C_12  and  C_14
REMARK    5  A    between atoms: N_27  and  C_28
REMARK    6  A    between atoms: C_28  and  C_29
REMARK                            x       y       z     vdW  Elec       q    Type
REMARK                         _______ _______ _______ _____ _____    ______ ____
ROOT
ATOM      3  C   UNL     1      -0.543  -0.861  24.826  0.00  0.00    +0.039 C 
ATOM      4  C   UNL     1      -0.057  -0.919  24.161  0.00  0.00    +0.003 C 
ATOM      5  C   UNL     1       0.213  -0.236  23.786  0.00  0.00    +0.000 C 
ATOM      6  C   UNL     1      -0.001   0.505  24.076  0.00  0.00    +0.002 C 
ATOM      7  C   UNL     1       0.483   0.446  23.412  0.00  0.00    +0.000 C 
ATOM      8  C   UNL     1       0.269   1.189  23.701  0.00  0.00    +0.002 C 
ATOM      9  C   UNL     1       0.055   1.930  23.991  0.00  0.00    +0.022 C 
ATOM     10  C   UNL     1      -0.430   1.989  24.657  0.00  0.00    +0.096 C 
ATOM     20  C   UNL     1      -0.700   1.306  25.031  0.00  0.00    +0.022 C 
ATOM     21  C   UNL     1      -1.185   1.365  25.696  0.00  0.00    +0.002 C 
ATOM     22  C   UNL     1      -0.487   0.564  24.742  0.00  0.00    +0.032 C 
ATOM     23  C   UNL     1      -0.757  -0.119  25.116  0.00  0.00    +0.152 C 
ATOM     24  O   UNL     1      -1.242  -0.060  25.781  0.00  0.00    -0.223 OA
ENDROOT
BRANCH  10  11
ATOM     11  N   UNL     1      -0.644   2.732  24.946  0.00  0.00    -0.203 NA
ATOM     12  C   UNL     1      -1.007   3.280  24.449  0.00  0.00    +0.265 C 
ATOM     13  O   UNL     1      -1.157   3.086  23.660  0.00  0.00    -0.268 OA
BRANCH  12  14
ATOM     14  C   UNL     1      -1.221   4.023  24.739  0.00  0.00    +0.055 A 
ATOM     15  C   UNL     1      -1.948   4.126  25.114  0.00  0.00    +0.005 A 
ATOM     16  C   UNL     1      -2.161   4.868  25.404  0.00  0.00    +0.000 A 
ATOM     17  C   UNL     1      -1.647   5.508  25.317  0.00  0.00    +0.000 A 
ATOM     18  C   UNL     1      -0.919   5.405  24.942  0.00  0.00    +0.000 A 
ATOM     19  C   UNL     1      -0.707   4.662  24.653  0.00  0.00    +0.005 A 
ENDBRANCH  12  14
ENDBRANCH  10  11
BRANCH   3   2
ATOM      1  C   UNL     1      -0.611  -1.693  25.987  0.00  0.00    +0.010 C 
ATOM      2  C   UNL     1      -0.813  -1.544  25.201  0.00  0.00    +0.081 C 
BRANCH   2  25
ATOM     25  C   UNL     1      -1.286  -2.080  24.789  0.00  0.00    +0.241 C 
ATOM     26  O   UNL     1      -0.944  -2.735  24.421  0.00  0.00    -0.273 OA
ATOM     27  N   UNL     1      -2.102  -1.961  24.744  0.00  0.00    -0.200 NA
BRANCH  27  28
ATOM     28  C   UNL     1      -2.575  -2.497  24.332  0.00  0.00    +0.148 C 
BRANCH  28  29
ATOM     29  C   UNL     1      -3.359  -2.308  24.160  0.00  0.00    +0.029 A 
ATOM     30  C   UNL     1      -3.658  -1.549  24.030  0.00  0.00    +0.004 A 
ATOM     31  C   UNL     1      -4.466  -1.618  23.878  0.00  0.00    +0.007 A 
ATOM     32  C   UNL     1      -4.666  -2.418  23.913  0.00  0.00    +0.035 A 
ATOM     33  S   UNL     1      -3.982  -2.844  24.088  0.00  0.00    -0.089 S 
ENDBRANCH  28  29
ENDBRANCH  27  28
ENDBRANCH   2  25
ENDBRANCH   3   2
TORSDOF 6
ENDMDL
MODEL 4
REMARK VINA RESULT:     -10.7      3.524      5.317
REMARK  Name = 
REMARK  6 active torsions:
REMARK  status: ('A' for Active; 'I' for Inactive)
REMARK    1  A    between atoms: C_2  and  C_3
REMARK    2  A    between atoms: C_2  and  C_25
REMARK    3  A    between atoms: C_10  and  N_11
REMARK    4  A    between atoms: C_12  and  C_14
REMARK    5  A    between atoms: N_27  and  C_28
REMARK    6  A    between atoms: C_28  and  C_29
REMARK                            x       y       z     vdW  Elec       q    Type
REMARK                         _______ _______ _______ _____ _____    ______ ____
ROOT
ATOM      3  C   UNL     1      -0.012   0.655  23.980  0.00  0.00    +0.039 C 
ATOM      4  C   UNL     1       0.388   1.373  24.059  0.00  0.00    +0.003 C 
ATOM      5  C   UNL     1      -0.015   2.042  24.323  0.00  0.00    +0.000 C 
ATOM      6  C   UNL     1      -0.816   1.995  24.508  0.00  0.00    +0.002 C 
ATOM      7  C   UNL     1      -0.417   2.711  24.586  0.00  0.00    +0.000 C 
ATOM      8  C   UNL     1      -1.220   2.664  24.773  0.00  0.00    +0.002 C 
ATOM      9  C   UNL     1      -2.022   2.617  24.959  0.00  0.00    +0.022 C 
ATOM     10  C   UNL     1      -2.422   1.899  24.880  0.00  0.00    +0.096 C 
ATOM     20  C   UNL     1      -2.019   1.229  24.617  0.00  0.00    +0.022 C 
ATOM     21  C   UNL     1      -2.419   0.512  24.538  0.00  0.00    +0.002 C 
ATOM     22  C   UNL     1      -1.217   1.276  24.430  0.00  0.00    +0.032 C 
ATOM     23  C   UNL     1      -0.814   0.607  24.166  0.00  0.00    +0.152 C 
ATOM     24  O   UNL     1      -1.214  -0.110  24.088  0.00  0.00    -0.223 OA
ENDROOT
BRANCH  10  11
ATOM     11  N   UNL     1      -3.224   1.852  25.067  0.00  0.00    -0.203 NA
ATOM     12  C   UNL     1      -3.726   2.481  24.891  0.00  0.00    +0.265 C 
ATOM     13  O   UNL     1      -3.426   3.160  24.529  0.00  0.00    -0.268 OA
BRANCH  12  14
ATOM     14  C   UNL     1      -4.529   2.434  25.077  0.00  0.00    +0.055 A 
ATOM     15  C   UNL     1      -5.023   1.932  24.650  0.00  0.00    +0.005 A 
ATOM     16  C   UNL     1      -5.826   1.885  24.836  0.00  0.00    +0.000 A 
ATOM     17  C   UNL     1      -6.134   2.341  25.451  0.00  0.00    +0.000 A 
ATOM     18  C   UNL     1      -5.639   2.845  25.879  0.00  0.00    +0.000 A 
ATOM     19  C   UNL     1      -4.837   2.891  25.692  0.00  0.00    +0.005 A 
ENDBRANCH  12  14
ENDBRANCH  10  11
BRANCH   3   2
ATOM      1  C   UNL     1       0.274  -0.742  24.088  0.00  0.00    +0.010 C 
ATOM      2  C   UNL     1       0.391  -0.015  23.716  0.00  0.00    +0.081 C 
BRANCH   2  25
ATOM     25  C   UNL     1       0.912   0.043  23.079  0.00  0.00    +0.241 C 
ATOM     26  O   UNL     1       0.620   0.066  22.307  0.00  0.00    -0.273 OA
ATOM     27  N   UNL     1       1.726   0.077  23.214  0.00  0.00    -0.200 NA
BRANCH  27  28
ATOM     28  C   UNL     1       2.247   0.135  22.577  0.00  0.00    +0.148 C 
BRANCH  28  29
ATOM     29  C   UNL     1       3.048   0.277  22.711  0.00  0.00    +0.029 A 
ATOM     30  C   UNL     1       3.437   0.999  22.613  0.00  0.00    +0.004 A 
ATOM     31  C   UNL     1       4.231   0.889  22.808  0.00  0.00    +0.007 A 
ATOM     32  C   UNL     1       4.333   0.099  23.027  0.00  0.00    +0.035 A 
ATOM     33  S   UNL     1       3.603  -0.279  22.967  0.00  0.00    -0.089 S 
ENDBRANCH  28  29
ENDBRANCH  27  28
ENDBRANCH   2  25
ENDBRANCH   3   2
TORSDOF 6
ENDMDL
MODEL 5
REMARK VINA RESULT:     -10.3      2.582      4.958
REMARK  Name = 
REMARK  6 active torsions:
REMARK  status: ('A' for Active; 'I' for Inactive)
REMARK    1  A    between atoms: C_2  and  C_3
REMARK    2  A    between atoms: C_2  and  C_25
REMARK    3  A    between atoms: C_10  and  N_11
REMARK    4  A    between atoms: C_12  and  C_14
REMARK    5  A    between atoms: N_27  and  C_28
REMARK    6  A    between atoms: C_28  and  C_29
REMARK                            x       y       z     vdW  Elec       q    Type
REMARK                         _______ _______ _______ _____ _____    ______ ____
ROOT
ATOM      3  C   UNL     1      -1.693  -1.133  24.705  0.00  0.00    +0.039 C 
ATOM      4  C   UNL     1      -2.210  -1.733  24.473  0.00  0.00    +0.003 C 
ATOM      5  C   UNL     1      -3.023  -1.596  24.465  0.00  0.00    +0.000 C 
ATOM      6  C   UNL     1      -3.320  -0.860  24.689  0.00  0.00    +0.002 C 
ATOM      7  C   UNL     1      -3.836  -1.459  24.457  0.00  0.00    +0.000 C 
ATOM      8  C   UNL     1      -4.133  -0.723  24.681  0.00  0.00    +0.002 C 
ATOM      9  C   UNL     1      -4.430   0.013  24.905  0.00  0.00    +0.022 C 
ATOM     10  C   UNL     1      -3.912   0.614  25.137  0.00  0.00    +0.096 C 
ATOM     20  C   UNL     1      -3.099   0.476  25.145  0.00  0.00    +0.022 C 
ATOM     21  C   UNL     1      -2.582   1.076  25.377  0.00  0.00    +0.002 C 
ATOM     22  C   UNL     1      -2.802  -0.260  24.921  0.00  0.00    +0.032 C 
ATOM     23  C   UNL     1      -1.989  -0.397  24.929  0.00  0.00    +0.152 C 
ATOM     24  O   UNL     1      -1.472   0.202  25.161  0.00  0.00    -0.223 OA
ENDROOT
BRANCH  10  11
ATOM     11  N   UNL     1      -4.209   1.350  25.361  0.00  0.00    -0.203 NA
ATOM     12  C   UNL     1      -4.811   1.703  24.923  0.00  0.00    +0.265 C 
ATOM     13  O   UNL     1      -5.118   1.319  24.259  0.00  0.00    -0.268 OA
BRANCH  12  14
ATOM     14  C   UNL     1      -5.109   2.440  25.147  0.00  0.00    +0.055 A 
ATOM     15  C   UNL     1      -4.714   3.129  24.926  0.00  0.00    +0.005 A 
ATOM     16  C   UNL     1      -5.011   3.865  25.150  0.00  0.00    +0.000 A 
ATOM     17  C   UNL     1      -5.704   3.912  25.596  0.00  0.00    +0.000 A 
ATOM     18  C   UNL     1      -6.099   3.222  25.817  0.00  0.00    +0.000 A 
ATOM     19  C   UNL     1      -5.801   2.486  25.593  0.00  0.00    +0.005 A 
ENDBRANCH  12  14
ENDBRANCH  10  11
BRANCH   3   2
ATOM      1  C   UNL     1      -0.493  -1.430  25.424  0.00  0.00    +0.010 C 
ATOM      2  C   UNL     1      -0.879  -1.271  24.712  0.00  0.00    +0.081 C 
BRANCH   2  25
ATOM     25  C   UNL     1      -0.451  -1.250  24.007  0.00  0.00    +0.241 C 
ATOM     26  O   UNL     1      -0.596  -1.811  23.419  0.00  0.00    -0.273 OA
ATOM     27  N   UNL     1       0.122  -0.668  23.890  0.00  0.00    -0.200 NA
BRANCH  27  28
ATOM     28  C   UNL     1       0.550  -0.646  23.186  0.00  0.00    +0.148 C 
BRANCH  28  29
ATOM     29  C   UNL     1       1.181  -0.122  23.101  0.00  0.00    +0.029 A 
ATOM     30  C   UNL     1       1.211   0.652  23.387  0.00  0.00    +0.004 A 
ATOM     31  C   UNL     1       1.942   0.972  23.178  0.00  0.00    +0.007 A 
ATOM     32  C   UNL     1       2.364   0.396  22.764  0.00  0.00    +0.035 A 
ATOM     33  S   UNL     1       1.894  -0.280  22.716  0.00  0.00    -0.089 S 
ENDBRANCH  28  29
ENDBRANCH  27  28
ENDBRANCH   2  25
ENDBRANCH   3   2
TORSDOF 6
ENDMDL
MODEL 6
REMARK VINA RESULT:     -10.1      1.810      2.966
REMARK  Name = 
REMARK  6 active torsions:
REMARK  status: ('A' for Active; 'I' for Inactive)
REMARK    1  A    between atoms: C_2  and  C_3
REMARK    2  A    between atoms: C_2  and  C_25
REMARK    3  A    between atoms: C_10  and  N_11
REMARK    4  A    between atoms: C_12  and  C_14
REMARK    5  A    between atoms: N_27  and  C_28
REMARK    6  A    between atoms: C_28  and  C_29
REMARK                            x       y       z     vdW  Elec       q    Type
REMARK                         _______ _______ _______ _____ _____    ______ ____
ROOT
ATOM      3  C   UNL     1      -1.196   2.615  24.965  0.00  0.00    +0.039 C 
ATOM      4  C   UNL     1      -0.683   2.470  25.597  0.00  0.00    +0.003 C 
ATOM      5  C   UNL     1      -0.590   1.703  25.885  0.00  0.00    +0.000 C 
ATOM      6  C   UNL     1      -1.008   1.081  25.543  0.00  0.00    +0.002 C 
ATOM      7  C   UNL     1      -0.497   0.937  26.173  0.00  0.00    +0.000 C 
ATOM      8  C   UNL     1      -0.915   0.313  25.831  0.00  0.00    +0.002 C 
ATOM      9  C   UNL     1      -1.333  -0.310  25.489  0.00  0.00    +0.022 C 
ATOM     10  C   UNL     1      -1.846  -0.165  24.857  0.00  0.00    +0.096 C 
ATOM     20  C   UNL     1      -1.939   0.601  24.569  0.00  0.00    +0.022 C 
ATOM     21  C   UNL     1      -2.451   0.746  23.938  0.00  0.00    +0.002 C 
ATOM     22  C   UNL     1      -1.521   1.225  24.911  0.00  0.00    +0.032 C 
ATOM     23  C   UNL     1      -1.614   1.992  24.623  0.00  0.00    +0.152 C 
ATOM     24  O   UNL     1      -2.125   2.136  23.992  0.00  0.00    -0.223 OA
ENDROOT
BRANCH  10  11
ATOM     11  N   UNL     1      -2.264  -0.789  24.515  0.00  0.00    -0.203 NA
ATOM     12  C   UNL     1      -2.787  -1.234  24.971  0.00  0.00    +0.265 C 
ATOM     13  O   UNL     1      -2.893  -1.056  25.770  0.00  0.00    -0.268 OA
BRANCH  12  14
ATOM     14  C   UNL     1      -3.206  -1.858  24.628  0.00  0.00    +0.055 A 
ATOM     15  C   UNL     1      -2.919  -2.629  24.688  0.00  0.00    +0.005 A 
ATOM     16  C   UNL     1      -3.338  -3.253  24.346  0.00  0.00    +0.000 A 
ATOM     17  C   UNL     1      -4.043  -3.104  23.944  0.00  0.00    +0.000 A 
ATOM     18  C   UNL     1      -4.330  -2.332  23.884  0.00  0.00    +0.000 A 
ATOM     19  C   UNL     1      -3.911  -1.710  24.227  0.00  0.00    +0.005 A 
ENDBRANCH  12  14
ENDBRANCH  10  11
BRANCH   3   2
ATOM      1  C   UNL     1      -0.865   3.629  24.014  0.00  0.00    +0.010 C 
ATOM      2  C   UNL     1      -1.288   3.382  24.677  0.00  0.00    +0.081 C 
BRANCH   2  25
ATOM     25  C   UNL     1      -1.806   3.904  25.053  0.00  0.00    +0.241 C 
ATOM     26  O   UNL     1      -1.509   4.555  25.465  0.00  0.00    -0.273 OA
ATOM     27  N   UNL     1      -2.620   3.775  25.018  0.00  0.00    -0.200 NA
BRANCH  27  28
ATOM     28  C   UNL     1      -3.137   4.295  25.394  0.00  0.00    +0.148 C 
BRANCH  28  29
ATOM     29  C   UNL     1      -3.928   4.088  25.499  0.00  0.00    +0.029 A 
ATOM     30  C   UNL     1      -4.236   3.650  26.127  0.00  0.00    +0.004 A 
ATOM     31  C   UNL     1      -5.049   3.574  26.009  0.00  0.00    +0.007 A 
ATOM     32  C   UNL     1      -5.244   3.965  25.309  0.00  0.00    +0.035 A 
ATOM     33  S   UNL     1      -4.551   4.283  24.993  0.00  0.00    -0.089 S 
ENDBRANCH  28  29
ENDBRANCH  27  28
ENDBRANCH   2  25
ENDBRANCH   3   2
TORSDOF 6
ENDMDL
MODEL 7
REMARK VINA RESULT:      -9.7      2.922      4.447
REMARK  Name = 
REMARK  6 active torsions:
REMARK  status: ('A' for Active; 'I' for Inactive)
REMARK    1  A    between atoms: C_2  and  C_3
REMARK    2  A    between atoms: C_2  and  C_25
REMARK    3  A    between atoms: C_10  and  N_11
REMARK    4  A    between atoms: C_12  and  C_14
REMARK    5  A    between atoms: N_27  and  C_28
REMARK    6  A    between atoms: C_28  and  C_29
REMARK                            x       y       z     vdW  Elec       q    Type
REMARK                         _______ _______ _______ _____ _____    ______ ____
ROOT
ATOM      3  C   UNL     1      -2.132   3.532  25.366  0.00  0.00    +0.039 C 
ATOM      4  C   UNL     1      -1.810   3.520  26.127  0.00  0.00    +0.003 C 
ATOM      5  C   UNL     1      -1.104   3.119  26.268  0.00  0.00    +0.000 C 
ATOM      6  C   UNL     1      -0.720   2.730  25.652  0.00  0.00    +0.002 C 
ATOM      7  C   UNL     1      -0.398   2.717  26.410  0.00  0.00    +0.000 C 
ATOM      8  C   UNL     1      -0.013   2.328  25.793  0.00  0.00    +0.002 C 
ATOM      9  C   UNL     1       0.372   1.939  25.176  0.00  0.00    +0.022 C 
ATOM     10  C   UNL     1       0.049   1.952  24.415  0.00  0.00    +0.096 C 
ATOM     20  C   UNL     1      -0.657   2.353  24.274  0.00  0.00    +0.022 C 
ATOM     21  C   UNL     1      -0.979   2.365  23.514  0.00  0.00    +0.002 C 
ATOM     22  C   UNL     1      -1.042   2.742  24.891  0.00  0.00    +0.032 C 
ATOM     23  C   UNL     1      -1.748   3.144  24.749  0.00  0.00    +0.152 C 
ATOM     24  O   UNL     1      -2.070   3.156  23.990  0.00  0.00    -0.223 OA
ENDROOT
BRANCH  10  11
ATOM     11  N   UNL     1       0.435   1.563  23.798  0.00  0.00    -0.203 NA
ATOM     12  C   UNL     1       0.590   0.755  23.853  0.00  0.00    +0.265 C 
ATOM     13  O   UNL     1       0.360   0.334  24.525  0.00  0.00    -0.268 OA
BRANCH  12  14
ATOM     14  C   UNL     1       0.975   0.365  23.235  0.00  0.00    +0.055 A 
ATOM     15  C   UNL     1       0.553  -0.137  22.737  0.00  0.00    +0.005 A 
ATOM     16  C   UNL     1       0.938  -0.526  22.119  0.00  0.00    +0.000 A 
ATOM     17  C   UNL     1       1.747  -0.412  22.001  0.00  0.00    +0.000 A 
ATOM     18  C   UNL     1       2.170   0.091  22.501  0.00  0.00    +0.000 A 
ATOM     19  C   UNL     1       1.784   0.480  23.117  0.00  0.00    +0.005 A 
ENDBRANCH  12  14
ENDBRANCH  10  11
BRANCH   3   2
ATOM      1  C   UNL     1      -2.865   4.544  24.670  0.00  0.00    +0.010 C 
ATOM      2  C   UNL     1      -2.839   3.934  25.225  0.00  0.00    +0.081 C 
BRANCH   2  25
ATOM     25  C   UNL     1      -3.522   3.725  25.639  0.00  0.00    +0.241 C 
ATOM     26  O   UNL     1      -3.676   4.063  26.377  0.00  0.00    -0.273 OA
ATOM     27  N   UNL     1      -4.050   3.179  25.316  0.00  0.00    -0.200 NA
BRANCH  27  28
ATOM     28  C   UNL     1      -4.731   2.970  25.730  0.00  0.00    +0.148 C 
BRANCH  28  29
ATOM     29  C   UNL     1      -5.218   2.367  25.447  0.00  0.00    +0.029 A 
ATOM     30  C   UNL     1      -4.980   1.599  25.262  0.00  0.00    +0.004 A 
ATOM     31  C   UNL     1      -5.644   1.184  25.001  0.00  0.00    +0.007 A 
ATOM     32  C   UNL     1      -6.291   1.696  25.024  0.00  0.00    +0.035 A 
ATOM     33  S   UNL     1      -6.028   2.427  25.300  0.00  0.00    -0.089 S 
ENDBRANCH  28  29
ENDBRANCH  27  28
ENDBRANCH   2  25
ENDBRANCH   3   2
TORSDOF 6
ENDMDL
MODEL 8
REMARK VINA RESULT:      -9.7      2.951      4.371
REMARK  Name = 
REMARK  6 active torsions:
REMARK  status: ('A' for Active; 'I' for Inactive)
REMARK    1  A    between atoms: C_2  and  C_3
REMARK    2  A    between atoms: C_2  and  C_25
REMARK    3  A    between atoms: C_10  and  N_11
REMARK    4  A    between atoms: C_12  and  C_14
REMARK    5  A    between atoms: N_27  and  C_28
REMARK    6  A    between atoms: C_28  and  C_29
REMARK                            x       y       z     vdW  Elec       q    Type
REMARK                         _______ _______ _______ _____ _____    ______ ____
ROOT
ATOM      3  C   UNL     1      -3.454  -0.058  24.839  0.00  0.00    +0.039 C 
ATOM      4  C   UNL     1      -3.333  -0.558  25.486  0.00  0.00    +0.003 C 
ATOM      5  C   UNL     1      -2.570  -0.802  25.680  0.00  0.00    +0.000 C 
ATOM      6  C   UNL     1      -1.928  -0.548  25.230  0.00  0.00    +0.002 C 
ATOM      7  C   UNL     1      -1.807  -1.047  25.875  0.00  0.00    +0.000 C 
ATOM      8  C   UNL     1      -1.164  -0.793  25.424  0.00  0.00    +0.002 C 
ATOM      9  C   UNL     1      -0.522  -0.538  24.974  0.00  0.00    +0.022 C 
ATOM     10  C   UNL     1      -0.644  -0.038  24.328  0.00  0.00    +0.096 C 
ATOM     20  C   UNL     1      -1.406   0.206  24.133  0.00  0.00    +0.022 C 
ATOM     21  C   UNL     1      -1.527   0.706  23.488  0.00  0.00    +0.002 C 
ATOM     22  C   UNL     1      -2.049  -0.048  24.584  0.00  0.00    +0.032 C 
ATOM     23  C   UNL     1      -2.812   0.196  24.389  0.00  0.00    +0.152 C 
ATOM     24  O   UNL     1      -2.933   0.696  23.744  0.00  0.00    -0.223 OA
ENDROOT
BRANCH  10  11
ATOM     11  N   UNL     1      -0.001   0.216  23.877  0.00  0.00    -0.203 NA
ATOM     12  C   UNL     1       0.587  -0.319  23.657  0.00  0.00    +0.265 C 
ATOM     13  O   UNL     1       0.532  -1.110  23.887  0.00  0.00    -0.268 OA
BRANCH  12  14
ATOM     14  C   UNL     1       1.230  -0.065  23.207  0.00  0.00    +0.055 A 
ATOM     15  C   UNL     1       1.733   0.519  23.499  0.00  0.00    +0.005 A 
ATOM     16  C   UNL     1       2.376   0.773  23.048  0.00  0.00    +0.000 A 
ATOM     17  C   UNL     1       2.515   0.443  22.305  0.00  0.00    +0.000 A 
ATOM     18  C   UNL     1       2.011  -0.142  22.012  0.00  0.00    +0.000 A 
ATOM     19  C   UNL     1       1.368  -0.395  22.463  0.00  0.00    +0.005 A 
ENDBRANCH  12  14
ENDBRANCH  10  11
BRANCH   3   2
ATOM      1  C   UNL     1      -4.553  -0.036  23.925  0.00  0.00    +0.010 C 
ATOM      2  C   UNL     1      -4.218   0.186  24.645  0.00  0.00    +0.081 C 
BRANCH   2  25
ATOM     25  C   UNL     1      -4.647   0.654  25.172  0.00  0.00    +0.241 C 
ATOM     26  O   UNL     1      -5.044   0.304  25.806  0.00  0.00    -0.273 OA
ATOM     27  N   UNL     1      -4.681   1.472  25.065  0.00  0.00    -0.200 NA
BRANCH  27  28
ATOM     28  C   UNL     1      -5.110   1.939  25.591  0.00  0.00    +0.148 C 
BRANCH  28  29
ATOM     29  C   UNL     1      -5.072   2.762  25.538  0.00  0.00    +0.029 A 
ATOM     30  C   UNL     1      -4.384   3.218  25.548  0.00  0.00    +0.004 A 
ATOM     31  C   UNL     1      -4.604   4.010  25.482  0.00  0.00    +0.007 A 
ATOM     32  C   UNL     1      -5.428   4.044  25.432  0.00  0.00    +0.035 A 
ATOM     33  S   UNL     1      -5.717   3.272  25.467  0.00  0.00    -0.089 S 
ENDBRANCH  28  29
ENDBRANCH  27  28
ENDBRANCH   2  25
ENDBRANCH   3   2
TORSDOF 6
ENDMDL
MODEL 9
REMARK VINA RESULT:      -9.4      2.355      5.642
REMARK  Name = 
REMARK  6 active torsions:
REMARK  status: ('A' for Active; 'I' for Inactive)
REMARK    1  A    between atoms: C_2  and  C_3
REMARK    2  A    between atoms: C_2  and  C_25
REMARK    3  A    between atoms: C_10  and  N_11
REMARK    4  A    between atoms: C_12  and  C_14
REMARK    5  A    between atoms: N_27  and  C_28
REMARK    6  A    between atoms: C_28  and  C_29
REMARK                            x       y       z     vdW  Elec       q    Type
REMARK                         _______ _______ _______ _____ _____    ______ ____
ROOT
ATOM      3  C   UNL     1      -0.634   0.812  24.448  0.00  0.00    +0.039 C 
ATOM      4  C   UNL     1      -0.090   1.158  24.965  0.00  0.00    +0.003 C 
ATOM      5  C   UNL     1      -0.296   1.836  25.385  0.00  0.00    +0.000 C 
ATOM      6  C   UNL     1      -1.043   2.170  25.290  0.00  0.00    +0.002 C 
ATOM      7  C   UNL     1      -0.501   2.515  25.805  0.00  0.00    +0.000 C 
ATOM      8  C   UNL     1      -1.249   2.850  25.711  0.00  0.00    +0.002 C 
ATOM      9  C   UNL     1      -1.997   3.183  25.616  0.00  0.00    +0.022 C 
ATOM     10  C   UNL     1      -2.541   2.837  25.099  0.00  0.00    +0.096 C 
ATOM     20  C   UNL     1      -2.336   2.159  24.679  0.00  0.00    +0.022 C 
ATOM     21  C   UNL     1      -2.879   1.813  24.163  0.00  0.00    +0.002 C 
ATOM     22  C   UNL     1      -1.587   1.824  24.774  0.00  0.00    +0.032 C 
ATOM     23  C   UNL     1      -1.382   1.145  24.353  0.00  0.00    +0.152 C 
ATOM     24  O   UNL     1      -1.925   0.800  23.838  0.00  0.00    -0.223 OA
ENDROOT
BRANCH  10  11
ATOM     11  N   UNL     1      -3.289   3.172  25.004  0.00  0.00    -0.203 NA
ATOM     12  C   UNL     1      -3.748   3.353  25.665  0.00  0.00    +0.265 C 
ATOM     13  O   UNL     1      -3.457   3.199  26.423  0.00  0.00    -0.268 OA
BRANCH  12  14
ATOM     14  C   UNL     1      -4.496   3.687  25.570  0.00  0.00    +0.055 A 
ATOM     15  C   UNL     1      -4.570   4.470  25.322  0.00  0.00    +0.005 A 
ATOM     16  C   UNL     1      -5.319   4.804  25.228  0.00  0.00    +0.000 A 
ATOM     17  C   UNL     1      -5.993   4.355  25.381  0.00  0.00    +0.000 A 
ATOM     18  C   UNL     1      -5.919   3.571  25.630  0.00  0.00    +0.000 A 
ATOM     19  C   UNL     1      -5.170   3.238  25.724  0.00  0.00    +0.005 A 
ENDBRANCH  12  14
ENDBRANCH  10  11
BRANCH   3   2
ATOM      1  C   UNL     1      -0.153   0.193  23.252  0.00  0.00    +0.010 C 
ATOM      2  C   UNL     1      -0.428   0.132  24.028  0.00  0.00    +0.081 C 
BRANCH   2  25
ATOM     25  C   UNL     1      -0.498  -0.609  24.384  0.00  0.00    +0.241 C 
ATOM     26  O   UNL     1       0.146  -0.938  24.783  0.00  0.00    -0.273 OA
ATOM     27  N   UNL     1      -1.211  -1.023  24.340  0.00  0.00    -0.200 NA
BRANCH  27  28
ATOM     28  C   UNL     1      -1.281  -1.763  24.695  0.00  0.00    +0.148 C 
BRANCH  28  29
ATOM     29  C   UNL     1      -2.017  -2.133  24.739  0.00  0.00    +0.029 A 
ATOM     30  C   UNL     1      -2.610  -1.970  25.290  0.00  0.00    +0.004 A 
ATOM     31  C   UNL     1      -3.248  -2.467  25.130  0.00  0.00    +0.007 A 
ATOM     32  C   UNL     1      -3.050  -2.937  24.481  0.00  0.00    +0.035 A 
ATOM     33  S   UNL     1      -2.289  -2.730  24.239  0.00  0.00    -0.089 S 
ENDBRANCH  28  29
ENDBRANCH  27  28
ENDBRANCH   2  25
ENDBRANCH   3   2
TORSDOF 6
ENDMDL
MODEL 10
REMARK VINA RESULT:      -9.4      3.545      4.945
REMARK  Name = 
REMARK  6 active torsions:
REMARK  status: ('A' for Active; 'I' for Inactive)
REMARK    1  A    between atoms: C_2  and  C_3
REMARK    2  A    between atoms: C_2  and  C_25
REMARK    3  A    between atoms: C_10  and  N_11
REMARK    4  A    between atoms: C_12  and  C_14
REMARK    5  A    between atoms: N_27  and  C_28
REMARK    6  A    between atoms: C_28  and  C_29
REMARK                            x       y       z     vdW  Elec       q    Type
REMARK                         _______ _______ _______ _____ _____    ______ ____
ROOT
ATOM      3  C   UNL     1      -1.817   2.178  25.055  0.00  0.00    +0.039 C 
ATOM      4  C   UNL     1      -2.153   1.438  25.200  0.00  0.00    +0.003 C 
ATOM      5  C   UNL     1      -1.747   0.752  24.989  0.00  0.00    +0.000 C 
ATOM      6  C   UNL     1      -1.006   0.805  24.632  0.00  0.00    +0.002 C 
ATOM      7  C   UNL     1      -1.341   0.066  24.777  0.00  0.00    +0.000 C 
ATOM      8  C   UNL     1      -0.599   0.119  24.420  0.00  0.00    +0.002 C 
ATOM      9  C   UNL     1       0.142   0.172  24.063  0.00  0.00    +0.022 C 
ATOM     10  C   UNL     1       0.478   0.912  23.917  0.00  0.00    +0.096 C 
ATOM     20  C   UNL     1       0.072   1.598  24.129  0.00  0.00    +0.022 C 
ATOM     21  C   UNL     1       0.408   2.337  23.983  0.00  0.00    +0.002 C 
ATOM     22  C   UNL     1      -0.670   1.545  24.486  0.00  0.00    +0.032 C 
ATOM     23  C   UNL     1      -1.075   2.231  24.698  0.00  0.00    +0.152 C 
ATOM     24  O   UNL     1      -0.740   2.970  24.552  0.00  0.00    -0.223 OA
ENDROOT
BRANCH  10  11
ATOM     11  N   UNL     1       1.220   0.964  23.560  0.00  0.00    -0.203 NA
ATOM     12  C   UNL     1       1.538   0.311  23.170  0.00  0.00    +0.265 C 
ATOM     13  O   UNL     1       1.114  -0.397  23.137  0.00  0.00    -0.268 OA
BRANCH  12  14
ATOM     14  C   UNL     1       2.280   0.364  22.813  0.00  0.00    +0.055 A 
ATOM     15  C   UNL     1       2.905   0.727  23.210  0.00  0.00    +0.005 A 
ATOM     16  C   UNL     1       3.647   0.780  22.853  0.00  0.00    +0.000 A 
ATOM     17  C   UNL     1       3.763   0.468  22.098  0.00  0.00    +0.000 A 
ATOM     18  C   UNL     1       3.138   0.104  21.700  0.00  0.00    +0.000 A 
ATOM     19  C   UNL     1       2.397   0.052  22.058  0.00  0.00    +0.005 A 
ENDBRANCH  12  14
ENDBRANCH  10  11
BRANCH   3   2
ATOM      1  C   UNL     1      -1.921   3.360  25.853  0.00  0.00    +0.010 C 
ATOM      2  C   UNL     1      -2.223   2.864  25.266  0.00  0.00    +0.081 C 
BRANCH   2  25
ATOM     25  C   UNL     1      -2.933   3.054  24.891  0.00  0.00    +0.241 C 
ATOM     26  O   UNL     1      -2.925   3.469  24.178  0.00  0.00    -0.273 OA
ATOM     27  N   UNL     1      -3.652   2.830  25.230  0.00  0.00    -0.200 NA
BRANCH  27  28
ATOM     28  C   UNL     1      -4.361   3.020  24.855  0.00  0.00    +0.148 C 
BRANCH  28  29
ATOM     29  C   UNL     1      -5.067   2.679  25.110  0.00  0.00    +0.029 A 
ATOM     30  C   UNL     1      -5.465   2.055  24.745  0.00  0.00    +0.004 A 
ATOM     31  C   UNL     1      -6.143   1.893  25.185  0.00  0.00    +0.007 A 
ATOM     32  C   UNL     1      -6.166   2.416  25.823  0.00  0.00    +0.035 A 
ATOM     33  S   UNL     1      -5.501   2.902  25.777  0.00  0.00    -0.089 S 
ENDBRANCH  28  29
ENDBRANCH  27  28
ENDBRANCH   2  25
ENDBRANCH   3   2
TORSDOF 6
ENDMDL
