MODEL 1
REMARK VINA RESULT:      -9.9      0.000      0.000
REMARK  Name = 
REMARK  5 active torsions:
REMARK  status: ('A' for Active; 'I' for Inactive)
REMARK    1  A    between atoms: C_6  and  C_7
REMARK    2  A    between atoms: C_7  and  N_8
REMARK    3  A    between atoms: C_13  and  O_15
REMARK    4  A    between atoms: O_15  and  C_16
REMARK    5  A    between atoms: C_19  and  S_22
REMARK                            x       y       z     vdW  Elec       q    Type
REMARK                         _______ _______ _______ _____ _____    ______ ____
ROOT
ATOM      8  N   UNL     1      -3.081   3.048  25.449  0.00  0.00    -0.261 NA
ATOM      9  C   UNL     1      -3.715   3.491  25.737  0.00  0.00    +0.105 C 
ATOM     10  C   UNL     1      -4.511   3.449  25.524  0.00  0.00    +0.160 C 
ATOM     11  O   UNL     1      -4.869   2.952  24.971  0.00  0.00    -0.348 OA
ATOM     12  C   UNL     1      -4.521   2.376  24.494  0.00  0.00    +0.187 C 
ATOM     13  C   UNL     1      -3.727   2.154  24.453  0.00  0.00    +0.211 C 
ATOM     14  C   UNL     1      -3.086   2.453  24.878  0.00  0.00    +0.119 C 
ENDROOT
BRANCH   8   7
ATOM      7  C   UNL     1      -2.344   3.224  25.776  0.00  0.00    +0.137 C 
BRANCH   7   6
ATOM      1  C   UNL     1      -0.575   3.215  25.474  0.00  0.00    +0.132 C 
ATOM      2  N   UNL     1      -1.087   3.848  25.340  0.00  0.00    -0.311 N 
ATOM      3  C   UNL     1      -0.875   4.589  25.044  0.00  0.00    +0.098 A 
ATOM      4  C   UNL     1      -1.558   5.051  25.000  0.00  0.00    +0.119 A 
ATOM      5  N   UNL     1      -2.191   4.596  25.269  0.00  0.00    -0.228 NA
ATOM      6  C   UNL     1      -1.900   3.852  25.479  0.00  0.00    +0.137 A 
ENDBRANCH   7   6
ENDBRANCH   8   7
BRANCH  13  15
ATOM     15  O   UNL     1      -3.550   1.554  23.916  0.00  0.00    -0.475 OA
BRANCH  15  16
ATOM     16  C   UNL     1      -3.539   0.767  24.165  0.00  0.00    +0.139 A 
ATOM     17  C   UNL     1      -2.819   0.388  24.302  0.00  0.00    +0.038 A 
ATOM     18  C   UNL     1      -2.807  -0.398  24.551  0.00  0.00    +0.021 A 
ATOM     19  C   UNL     1      -3.516  -0.806  24.662  0.00  0.00    +0.106 A 
ATOM     20  C   UNL     1      -4.235  -0.427  24.525  0.00  0.00    +0.021 A 
ATOM     21  C   UNL     1      -4.247   0.359  24.276  0.00  0.00    +0.038 A 
BRANCH  19  22
ATOM     22  S   UNL     1      -3.504  -1.593  24.912  0.00  0.00    +0.010 S 
ATOM     23  C   UNL     1      -3.493  -2.378  25.160  0.00  0.00    +0.182 C 
ATOM     24  O   UNL     1      -3.480  -1.344  25.697  0.00  0.00    -0.169 OA
ATOM     25  O   UNL     1      -3.529  -1.842  24.125  0.00  0.00    -0.169 OA
ENDBRANCH  19  22
ENDBRANCH  15  16
ENDBRANCH  13  15
TORSDOF 5
ENDMDL
MODEL 2
REMARK VINA RESULT:      -9.6      1.932      3.445
REMARK  Name = 
REMARK  5 active torsions:
REMARK  status: ('A' for Active; 'I' for Inactive)
REMARK    1  A    between atoms: C_6  and  C_7
REMARK    2  A    between atoms: C_7  and  N_8
REMARK    3  A    between atoms: C_13  and  O_15
REMARK    4  A    between atoms: O_15  and  C_16
REMARK    5  A    between atoms: C_19  and  S_22
REMARK                            x       y       z     vdW  Elec       q    Type
REMARK                         _______ _______ _______ _____ _____    ______ ____
ROOT
ATOM      8  N   UNL     1      -1.225   0.141  24.794  0.00  0.00    -0.261 NA
ATOM      9  C   UNL     1      -1.073  -0.464  25.334  0.00  0.00    +0.105 C 
ATOM     10  C   UNL     1      -1.591  -1.038  25.623  0.00  0.00    +0.160 C 
ATOM     11  O   UNL     1      -2.389  -1.149  25.442  0.00  0.00    -0.348 OA
ATOM     12  C   UNL     1      -2.865  -0.713  24.929  0.00  0.00    +0.187 C 
ATOM     13  C   UNL     1      -2.662  -0.059  24.469  0.00  0.00    +0.211 C 
ATOM     14  C   UNL     1      -1.931   0.321  24.409  0.00  0.00    +0.119 C 
ENDROOT
BRANCH   8   7
ATOM      7  C   UNL     1      -0.585   0.629  24.615  0.00  0.00    +0.137 C 
BRANCH   7   6
ATOM      1  C   UNL     1       0.432   2.035  24.156  0.00  0.00    +0.132 C 
ATOM      2  N   UNL     1       0.045   1.932  24.877  0.00  0.00    -0.311 N 
ATOM      3  C   UNL     1       0.058   2.457  25.514  0.00  0.00    +0.098 A 
ATOM      4  C   UNL     1      -0.402   2.134  26.119  0.00  0.00    +0.119 A 
ATOM      5  N   UNL     1      -0.699   1.411  25.856  0.00  0.00    -0.228 NA
ATOM      6  C   UNL     1      -0.422   1.286  25.088  0.00  0.00    +0.137 A 
ENDBRANCH   7   6
ENDBRANCH   8   7
BRANCH  13  15
ATOM     15  O   UNL     1      -3.268   0.258  24.008  0.00  0.00    -0.475 OA
BRANCH  15  16
ATOM     16  C   UNL     1      -3.778   0.822  24.327  0.00  0.00    +0.139 A 
ATOM     17  C   UNL     1      -3.700   1.616  24.115  0.00  0.00    +0.038 A 
ATOM     18  C   UNL     1      -4.209   2.180  24.434  0.00  0.00    +0.021 A 
ATOM     19  C   UNL     1      -4.797   1.951  24.966  0.00  0.00    +0.106 A 
ATOM     20  C   UNL     1      -4.875   1.158  25.178  0.00  0.00    +0.021 A 
ATOM     21  C   UNL     1      -4.365   0.594  24.859  0.00  0.00    +0.038 A 
BRANCH  19  22
ATOM     22  S   UNL     1      -5.307   2.516  25.286  0.00  0.00    +0.010 S 
ATOM     23  C   UNL     1      -5.817   3.080  25.605  0.00  0.00    +0.182 C 
ATOM     24  O   UNL     1      -5.951   2.123  24.952  0.00  0.00    -0.169 OA
ATOM     25  O   UNL     1      -4.663   2.909  25.620  0.00  0.00    -0.169 OA
ENDBRANCH  19  22
ENDBRANCH  15  16
ENDBRANCH  13  15
TORSDOF 5
ENDMDL
MODEL 3
REMARK VINA RESULT:      -9.6      2.253      3.806
REMARK  Name = 
REMARK  5 active torsions:
REMARK  status: ('A' for Active; 'I' for Inactive)
REMARK    1  A    between atoms: C_6  and  C_7
REMARK    2  A    between atoms: C_7  and  N_8
REMARK    3  A    between atoms: C_13  and  O_15
REMARK    4  A    between atoms: O_15  and  C_16
REMARK    5  A    between atoms: C_19  and  S_22
REMARK                            x       y       z     vdW  Elec       q    Type
REMARK                         _______ _______ _______ _____ _____    ______ ____
ROOT
ATOM      8  N   UNL     1      -0.606   1.843  24.793  0.00  0.00    -0.261 NA
ATOM      9  C   UNL     1      -0.220   2.049  25.492  0.00  0.00    +0.105 C 
ATOM     10  C   UNL     1      -0.411   2.648  26.027  0.00  0.00    +0.160 C 
ATOM     11  O   UNL     1      -1.034   3.189  25.994  0.00  0.00    -0.348 OA
ATOM     12  C   UNL     1      -1.620   3.263  25.419  0.00  0.00    +0.187 C 
ATOM     13  C   UNL     1      -1.729   2.816  24.734  0.00  0.00    +0.211 C 
ATOM     14  C   UNL     1      -1.277   2.184  24.455  0.00  0.00    +0.119 C 
ENDROOT
BRANCH   8   7
ATOM      7  C   UNL     1      -0.278   1.212  24.376  0.00  0.00    +0.137 C 
BRANCH   7   6
ATOM      1  C   UNL     1       0.196  -0.269  23.479  0.00  0.00    +0.132 C 
ATOM      2  N   UNL     1      -0.242  -0.244  24.178  0.00  0.00    -0.311 N 
ATOM      3  C   UNL     1      -0.539  -0.897  24.588  0.00  0.00    +0.098 A 
ATOM      4  C   UNL     1      -0.940  -0.619  25.253  0.00  0.00    +0.119 A 
ATOM      5  N   UNL     1      -0.891   0.205  25.255  0.00  0.00    -0.228 NA
ATOM      6  C   UNL     1      -0.459   0.436  24.590  0.00  0.00    +0.137 A 
ENDBRANCH   7   6
ENDBRANCH   8   7
BRANCH  13  15
ATOM     15  O   UNL     1      -2.373   3.029  24.265  0.00  0.00    -0.475 OA
BRANCH  15  16
ATOM     16  C   UNL     1      -3.141   2.864  24.519  0.00  0.00    +0.139 A 
ATOM     17  C   UNL     1      -3.494   2.145  24.321  0.00  0.00    +0.038 A 
ATOM     18  C   UNL     1      -4.261   1.979  24.574  0.00  0.00    +0.021 A 
ATOM     19  C   UNL     1      -4.675   2.532  25.026  0.00  0.00    +0.106 A 
ATOM     20  C   UNL     1      -4.321   3.250  25.224  0.00  0.00    +0.021 A 
ATOM     21  C   UNL     1      -3.555   3.416  24.970  0.00  0.00    +0.038 A 
BRANCH  19  22
ATOM     22  S   UNL     1      -5.443   2.367  25.280  0.00  0.00    +0.010 S 
ATOM     23  C   UNL     1      -6.209   2.201  25.533  0.00  0.00    +0.182 C 
ATOM     24  O   UNL     1      -5.290   2.751  25.993  0.00  0.00    -0.169 OA
ATOM     25  O   UNL     1      -5.596   1.982  24.566  0.00  0.00    -0.169 OA
ENDBRANCH  19  22
ENDBRANCH  15  16
ENDBRANCH  13  15
TORSDOF 5
ENDMDL
MODEL 4
REMARK VINA RESULT:      -9.5      1.732      2.713
REMARK  Name = 
REMARK  5 active torsions:
REMARK  status: ('A' for Active; 'I' for Inactive)
REMARK    1  A    between atoms: C_6  and  C_7
REMARK    2  A    between atoms: C_7  and  N_8
REMARK    3  A    between atoms: C_13  and  O_15
REMARK    4  A    between atoms: O_15  and  C_16
REMARK    5  A    between atoms: C_19  and  S_22
REMARK                            x       y       z     vdW  Elec       q    Type
REMARK                         _______ _______ _______ _____ _____    ______ ____
ROOT
ATOM      8  N   UNL     1      -1.559   1.982  24.936  0.00  0.00    -0.261 NA
ATOM      9  C   UNL     1      -0.935   2.145  24.421  0.00  0.00    +0.105 C 
ATOM     10  C   UNL     1      -0.333   1.641  24.166  0.00  0.00    +0.160 C 
ATOM     11  O   UNL     1      -0.207   0.850  24.364  0.00  0.00    -0.348 OA
ATOM     12  C   UNL     1      -0.651   0.368  24.865  0.00  0.00    +0.187 C 
ATOM     13  C   UNL     1      -1.331   0.557  25.292  0.00  0.00    +0.211 C 
ATOM     14  C   UNL     1      -1.735   1.276  25.324  0.00  0.00    +0.119 C 
ENDROOT
BRANCH   8   7
ATOM      7  C   UNL     1      -2.074   2.610  25.083  0.00  0.00    +0.137 C 
BRANCH   7   6
ATOM      1  C   UNL     1      -3.571   3.512  25.493  0.00  0.00    +0.132 C 
ATOM      2  N   UNL     1      -3.400   3.161  24.766  0.00  0.00    -0.311 N 
ATOM      3  C   UNL     1      -3.887   3.163  24.100  0.00  0.00    +0.098 A 
ATOM      4  C   UNL     1      -3.500   2.750  23.499  0.00  0.00    +0.119 A 
ATOM      5  N   UNL     1      -2.774   2.492  23.795  0.00  0.00    -0.228 NA
ATOM      6  C   UNL     1      -2.712   2.746  24.577  0.00  0.00    +0.137 A 
ENDBRANCH   7   6
ENDBRANCH   8   7
BRANCH  13  15
ATOM     15  O   UNL     1      -1.650  -0.052  25.748  0.00  0.00    -0.475 OA
BRANCH  15  16
ATOM     16  C   UNL     1      -2.156  -0.605  25.402  0.00  0.00    +0.139 A 
ATOM     17  C   UNL     1      -2.972  -0.541  25.509  0.00  0.00    +0.038 A 
ATOM     18  C   UNL     1      -3.477  -1.093  25.164  0.00  0.00    +0.021 A 
ATOM     19  C   UNL     1      -3.167  -1.710  24.711  0.00  0.00    +0.106 A 
ATOM     20  C   UNL     1      -2.352  -1.774  24.605  0.00  0.00    +0.021 A 
ATOM     21  C   UNL     1      -1.847  -1.222  24.950  0.00  0.00    +0.038 A 
BRANCH  19  22
ATOM     22  S   UNL     1      -3.673  -2.263  24.366  0.00  0.00    +0.010 S 
ATOM     23  C   UNL     1      -4.179  -2.815  24.021  0.00  0.00    +0.182 C 
ATOM     24  O   UNL     1      -3.449  -2.821  24.930  0.00  0.00    -0.169 OA
ATOM     25  O   UNL     1      -3.898  -1.705  23.801  0.00  0.00    -0.169 OA
ENDBRANCH  19  22
ENDBRANCH  15  16
ENDBRANCH  13  15
TORSDOF 5
ENDMDL
