MODEL 1
REMARK VINA RESULT:      -9.8      0.000      0.000
REMARK  Name = 
REMARK  6 active torsions:
REMARK  status: ('A' for Active; 'I' for Inactive)
REMARK    1  A    between atoms: N_5  and  C_8
REMARK    2  A    between atoms: C_9  and  C_10
REMARK    3  A    between atoms: C_10  and  N_11
REMARK    4  A    between atoms: N_11  and  S_12
REMARK    5  A    between atoms: S_12  and  C_15
REMARK    6  A    between atoms: C_21  and  C_22
REMARK                            x       y       z     vdW  Elec       q    Type
REMARK                         _______ _______ _______ _____ _____    ______ ____
ROOT
ATOM      8  C   UNL     1      -3.261   2.425  24.961  0.00  0.00    +0.120 C 
ATOM      9  C   UNL     1      -3.809   1.809  24.954  0.00  0.00    +0.152 C 
ATOM     20  O   UNL     1      -4.552   2.126  25.125  0.00  0.00    -0.350 OA
ATOM     21  C   UNL     1      -4.462   2.938  25.236  0.00  0.00    +0.180 C 
ATOM     24  C   UNL     1      -3.664   3.123  25.135  0.00  0.00    +0.198 C 
ATOM     25  O   UNL     1      -3.329   3.875  25.197  0.00  0.00    -0.219 OA
ENDROOT
BRANCH   8   5
ATOM      1  C   UNL     1      -0.022   2.146  24.390  0.00  0.00    +0.000 C 
ATOM      2  C   UNL     1      -0.832   2.216  24.533  0.00  0.00    +0.003 C 
ATOM      3  C   UNL     1      -1.123   2.143  25.301  0.00  0.00    +0.017 C 
ATOM      4  C   UNL     1      -1.932   2.212  25.443  0.00  0.00    +0.072 C 
ATOM      5  N   UNL     1      -2.451   2.355  24.818  0.00  0.00    -0.270 NA
ATOM      6  C   UNL     1      -2.160   2.428  24.049  0.00  0.00    +0.072 C 
ATOM      7  C   UNL     1      -1.350   2.358  23.907  0.00  0.00    +0.017 C 
ENDBRANCH   8   5
BRANCH  21  22
ATOM     22  C   UNL     1      -5.064   3.472  25.417  0.00  0.00    +0.214 C 
ATOM     23  O   UNL     1      -5.680   3.246  25.916  0.00  0.00    -0.218 OA
ENDBRANCH  21  22
BRANCH   9  10
ATOM     10  C   UNL     1      -3.644   1.014  24.804  0.00  0.00    +0.146 C 
BRANCH  10  11
ATOM     11  N   UNL     1      -4.248   0.454  24.841  0.00  0.00    -0.075 NA
BRANCH  11  12
ATOM     12  S   UNL     1      -4.075  -0.347  24.737  0.00  0.00    +0.083 S 
ATOM     13  O   UNL     1      -4.088  -0.243  23.918  0.00  0.00    -0.151 OA
ATOM     14  O   UNL     1      -4.062  -0.450  25.556  0.00  0.00    -0.151 OA
BRANCH  12  15
ATOM     15  C   UNL     1      -3.902  -1.146  24.633  0.00  0.00    +0.153 A 
ATOM     16  C   UNL     1      -4.153  -1.619  24.005  0.00  0.00    +0.027 A 
ATOM     17  C   UNL     1      -3.854  -2.379  24.124  0.00  0.00    +0.009 A 
ATOM     18  C   UNL     1      -3.418  -2.375  24.825  0.00  0.00    +0.037 A 
ATOM     19  S   UNL     1      -3.448  -1.614  25.140  0.00  0.00    -0.067 S 
ENDBRANCH  12  15
ENDBRANCH  11  12
ENDBRANCH  10  11
ENDBRANCH   9  10
TORSDOF 6
ENDMDL
MODEL 2
REMARK VINA RESULT:      -9.6      1.642      3.665
REMARK  Name = 
REMARK  6 active torsions:
REMARK  status: ('A' for Active; 'I' for Inactive)
REMARK    1  A    between atoms: N_5  and  C_8
REMARK    2  A    between atoms: C_9  and  C_10
REMARK    3  A    between atoms: C_10  and  N_11
REMARK    4  A    between atoms: N_11  and  S_12
REMARK    5  A    between atoms: S_12  and  C_15
REMARK    6  A    between atoms: C_21  and  C_22
REMARK                            x       y       z     vdW  Elec       q    Type
REMARK                         _______ _______ _______ _____ _____    ______ ____
ROOT
ATOM      8  C   UNL     1      -4.211   0.762  24.846  0.00  0.00    +0.120 C 
ATOM      9  C   UNL     1      -3.647   1.361  24.780  0.00  0.00    +0.152 C 
ATOM     20  O   UNL     1      -4.029   2.084  24.892  0.00  0.00    -0.350 OA
ATOM     21  C   UNL     1      -4.828   1.932  25.027  0.00  0.00    +0.180 C 
ATOM     24  C   UNL     1      -4.941   1.115  24.999  0.00  0.00    +0.198 C 
ATOM     25  O   UNL     1      -5.658   0.721  25.104  0.00  0.00    -0.219 OA
ENDROOT
BRANCH   8   5
ATOM      1  C   UNL     1      -3.645  -2.475  24.550  0.00  0.00    +0.000 C 
ATOM      2  C   UNL     1      -3.787  -1.666  24.624  0.00  0.00    +0.003 C 
ATOM      3  C   UNL     1      -4.007  -1.224  23.964  0.00  0.00    +0.017 C 
ATOM      4  C   UNL     1      -4.148  -0.415  24.038  0.00  0.00    +0.072 C 
ATOM      5  N   UNL     1      -4.069  -0.047  24.772  0.00  0.00    -0.270 NA
ATOM      6  C   UNL     1      -3.849  -0.490  25.433  0.00  0.00    +0.072 C 
ATOM      7  C   UNL     1      -3.708  -1.299  25.359  0.00  0.00    +0.017 C 
ENDBRANCH   8   5
BRANCH  21  22
ATOM     22  C   UNL     1      -5.413   2.498  25.167  0.00  0.00    +0.214 C 
ATOM     23  O   UNL     1      -5.202   3.261  25.397  0.00  0.00    -0.218 OA
ENDBRANCH  21  22
BRANCH   9  10
ATOM     10  C   UNL     1      -2.843   1.256  24.629  0.00  0.00    +0.146 C 
BRANCH  10  11
ATOM     11  N   UNL     1      -2.340   1.909  24.599  0.00  0.00    -0.075 NA
BRANCH  11  12
ATOM     12  S   UNL     1      -1.532   1.801  24.471  0.00  0.00    +0.083 S 
ATOM     13  O   UNL     1      -1.654   1.852  23.656  0.00  0.00    -0.151 OA
ATOM     14  O   UNL     1      -1.410   1.751  25.286  0.00  0.00    -0.151 OA
BRANCH  12  15
ATOM     15  C   UNL     1      -0.724   1.694  24.344  0.00  0.00    +0.153 A 
ATOM     16  C   UNL     1      -0.371   1.035  23.995  0.00  0.00    +0.027 A 
ATOM     17  C   UNL     1       0.444   1.160  23.979  0.00  0.00    +0.009 A 
ATOM     18  C   UNL     1       0.595   1.897  24.318  0.00  0.00    +0.037 A 
ATOM     19  S   UNL     1      -0.126   2.227  24.544  0.00  0.00    -0.067 S 
ENDBRANCH  12  15
ENDBRANCH  11  12
ENDBRANCH  10  11
ENDBRANCH   9  10
TORSDOF 6
ENDMDL
MODEL 3
REMARK VINA RESULT:      -9.5      1.997      4.188
REMARK  Name = 
REMARK  6 active torsions:
REMARK  status: ('A' for Active; 'I' for Inactive)
REMARK    1  A    between atoms: N_5  and  C_8
REMARK    2  A    between atoms: C_9  and  C_10
REMARK    3  A    between atoms: C_10  and  N_11
REMARK    4  A    between atoms: N_11  and  S_12
REMARK    5  A    between atoms: S_12  and  C_15
REMARK    6  A    between atoms: C_21  and  C_22
REMARK                            x       y       z     vdW  Elec       q    Type
REMARK                         _______ _______ _______ _____ _____    ______ ____
ROOT
ATOM      8  C   UNL     1      -1.693   0.202  24.605  0.00  0.00    +0.120 C 
ATOM      9  C   UNL     1      -1.951   0.985  24.583  0.00  0.00    +0.152 C 
ATOM     20  O   UNL     1      -1.304   1.462  24.397  0.00  0.00    -0.350 OA
ATOM     21  C   UNL     1      -0.646   0.974  24.305  0.00  0.00    +0.180 C 
ATOM     24  C   UNL     1      -0.886   0.195  24.433  0.00  0.00    +0.198 C 
ATOM     25  O   UNL     1      -0.403  -0.474  24.396  0.00  0.00    -0.219 OA
ENDROOT
BRANCH   8   5
ATOM      1  C   UNL     1      -3.558  -2.439  25.267  0.00  0.00    +0.000 C 
ATOM      2  C   UNL     1      -3.092  -1.779  25.101  0.00  0.00    +0.003 C 
ATOM      3  C   UNL     1      -2.995  -1.527  24.322  0.00  0.00    +0.017 C 
ATOM      4  C   UNL     1      -2.529  -0.867  24.157  0.00  0.00    +0.072 C 
ATOM      5  N   UNL     1      -2.159  -0.458  24.771  0.00  0.00    -0.270 NA
ATOM      6  C   UNL     1      -2.256  -0.711  25.551  0.00  0.00    +0.072 C 
ATOM      7  C   UNL     1      -2.723  -1.371  25.716  0.00  0.00    +0.017 C 
ENDBRANCH   8   5
BRANCH  21  22
ATOM     22  C   UNL     1       0.118   1.221  24.116  0.00  0.00    +0.214 C 
ATOM     23  O   UNL     1       0.376   1.972  24.337  0.00  0.00    -0.218 OA
ENDBRANCH  21  22
BRANCH   9  10
ATOM     10  C   UNL     1      -2.722   1.245  24.723  0.00  0.00    +0.146 C 
BRANCH  10  11
ATOM     11  N   UNL     1      -2.910   2.043  24.630  0.00  0.00    -0.075 NA
BRANCH  11  12
ATOM     12  S   UNL     1      -3.655   2.319  24.852  0.00  0.00    +0.083 S 
ATOM     13  O   UNL     1      -3.953   2.115  24.110  0.00  0.00    -0.151 OA
ATOM     14  O   UNL     1      -3.358   2.524  25.595  0.00  0.00    -0.151 OA
BRANCH  12  15
ATOM     15  C   UNL     1      -4.400   2.596  25.075  0.00  0.00    +0.153 A 
ATOM     16  C   UNL     1      -5.092   2.147  25.116  0.00  0.00    +0.027 A 
ATOM     17  C   UNL     1      -5.703   2.643  25.363  0.00  0.00    +0.009 A 
ATOM     18  C   UNL     1      -5.388   3.398  25.475  0.00  0.00    +0.037 A 
ATOM     19  S   UNL     1      -4.584   3.369  25.298  0.00  0.00    -0.067 S 
ENDBRANCH  12  15
ENDBRANCH  11  12
ENDBRANCH  10  11
ENDBRANCH   9  10
TORSDOF 6
ENDMDL
MODEL 4
REMARK VINA RESULT:      -9.3      1.723      2.007
REMARK  Name = 
REMARK  6 active torsions:
REMARK  status: ('A' for Active; 'I' for Inactive)
REMARK    1  A    between atoms: N_5  and  C_8
REMARK    2  A    between atoms: C_9  and  C_10
REMARK    3  A    between atoms: C_10  and  N_11
REMARK    4  A    between atoms: N_11  and  S_12
REMARK    5  A    between atoms: S_12  and  C_15
REMARK    6  A    between atoms: C_21  and  C_22
REMARK                            x       y       z     vdW  Elec       q    Type
REMARK                         _______ _______ _______ _____ _____    ______ ____
ROOT
ATOM      8  C   UNL     1      -3.928   2.819  25.120  0.00  0.00    +0.120 C 
ATOM      9  C   UNL     1      -3.880   2.005  24.996  0.00  0.00    +0.152 C 
ATOM     20  O   UNL     1      -4.647   1.700  25.002  0.00  0.00    -0.350 OA
ATOM     21  C   UNL     1      -5.169   2.326  25.129  0.00  0.00    +0.180 C 
ATOM     24  C   UNL     1      -4.725   3.018  25.202  0.00  0.00    +0.198 C 
ATOM     25  O   UNL     1      -5.025   3.775  25.334  0.00  0.00    -0.219 OA
ENDROOT
BRANCH   8   5
ATOM      1  C   UNL     1      -1.382   4.913  25.261  0.00  0.00    +0.000 C 
ATOM      2  C   UNL     1      -2.018   4.390  25.226  0.00  0.00    +0.003 C 
ATOM      3  C   UNL     1      -2.300   4.037  25.915  0.00  0.00    +0.017 C 
ATOM      4  C   UNL     1      -2.937   3.513  25.880  0.00  0.00    +0.072 C 
ATOM      5  N   UNL     1      -3.291   3.342  25.155  0.00  0.00    -0.270 NA
ATOM      6  C   UNL     1      -3.009   3.696  24.464  0.00  0.00    +0.072 C 
ATOM      7  C   UNL     1      -2.372   4.219  24.500  0.00  0.00    +0.017 C 
ENDBRANCH   8   5
BRANCH  21  22
ATOM     22  C   UNL     1      -5.991   2.271  25.175  0.00  0.00    +0.214 C 
ATOM     23  O   UNL     1      -6.365   1.552  25.022  0.00  0.00    -0.218 OA
ENDBRANCH  21  22
BRANCH   9  10
ATOM     10  C   UNL     1      -3.187   1.571  24.886  0.00  0.00    +0.146 C 
BRANCH  10  11
ATOM     11  N   UNL     1      -3.224   0.754  24.780  0.00  0.00    -0.075 NA
BRANCH  11  12
ATOM     12  S   UNL     1      -2.530   0.308  24.761  0.00  0.00    +0.083 S 
ATOM     13  O   UNL     1      -2.426   0.505  23.966  0.00  0.00    -0.151 OA
ATOM     14  O   UNL     1      -2.634   0.111  25.556  0.00  0.00    -0.151 OA
BRANCH  12  15
ATOM     15  C   UNL     1      -1.836  -0.137  24.742  0.00  0.00    +0.153 A 
ATOM     16  C   UNL     1      -1.069   0.162  24.686  0.00  0.00    +0.027 A 
ATOM     17  C   UNL     1      -0.546  -0.476  24.685  0.00  0.00    +0.009 A 
ATOM     18  C   UNL     1      -0.990  -1.170  24.740  0.00  0.00    +0.037 A 
ATOM     19  S   UNL     1      -1.787  -0.960  24.775  0.00  0.00    -0.067 S 
ENDBRANCH  12  15
ENDBRANCH  11  12
ENDBRANCH  10  11
ENDBRANCH   9  10
TORSDOF 6
ENDMDL
MODEL 5
REMARK VINA RESULT:      -9.2      2.879      5.098
REMARK  Name = 
REMARK  6 active torsions:
REMARK  status: ('A' for Active; 'I' for Inactive)
REMARK    1  A    between atoms: N_5  and  C_8
REMARK    2  A    between atoms: C_9  and  C_10
REMARK    3  A    between atoms: C_10  and  N_11
REMARK    4  A    between atoms: N_11  and  S_12
REMARK    5  A    between atoms: S_12  and  C_15
REMARK    6  A    between atoms: C_21  and  C_22
REMARK                            x       y       z     vdW  Elec       q    Type
REMARK                         _______ _______ _______ _____ _____    ______ ____
ROOT
ATOM      8  C   UNL     1      -0.791   0.011  24.336  0.00  0.00    +0.120 C 
ATOM      9  C   UNL     1      -0.544   0.796  24.273  0.00  0.00    +0.152 C 
ATOM     20  O   UNL     1       0.149   0.810  23.826  0.00  0.00    -0.350 OA
ATOM     21  C   UNL     1       0.332   0.034  23.613  0.00  0.00    +0.180 C 
ATOM     24  C   UNL     1      -0.250  -0.460  23.929  0.00  0.00    +0.198 C 
ATOM     25  O   UNL     1      -0.283  -1.281  23.850  0.00  0.00    -0.219 OA
ENDROOT
BRANCH   8   5
ATOM      1  C   UNL     1      -3.471  -1.057  25.938  0.00  0.00    +0.000 C 
ATOM      2  C   UNL     1      -2.801  -0.790  25.538  0.00  0.00    +0.003 C 
ATOM      3  C   UNL     1      -2.073  -0.768  25.923  0.00  0.00    +0.017 C 
ATOM      4  C   UNL     1      -1.403  -0.500  25.522  0.00  0.00    +0.072 C 
ATOM      5  N   UNL     1      -1.461  -0.256  24.737  0.00  0.00    -0.270 NA
ATOM      6  C   UNL     1      -2.191  -0.279  24.351  0.00  0.00    +0.072 C 
ATOM      7  C   UNL     1      -2.861  -0.546  24.752  0.00  0.00    +0.017 C 
ENDBRANCH   8   5
BRANCH  21  22
ATOM     22  C   UNL     1       0.980  -0.206  23.164  0.00  0.00    +0.214 C 
ATOM     23  O   UNL     1       1.532   0.349  22.906  0.00  0.00    -0.218 OA
ENDBRANCH  21  22
BRANCH   9  10
ATOM     10  C   UNL     1      -0.925   1.451  24.600  0.00  0.00    +0.146 C 
BRANCH  10  11
ATOM     11  N   UNL     1      -0.579   2.198  24.544  0.00  0.00    -0.075 NA
BRANCH  11  12
ATOM     12  S   UNL     1      -0.981   2.861  24.829  0.00  0.00    +0.083 S 
ATOM     13  O   UNL     1      -0.606   2.773  25.559  0.00  0.00    -0.151 OA
ATOM     14  O   UNL     1      -1.355   2.948  24.098  0.00  0.00    -0.151 OA
BRANCH  12  15
ATOM     15  C   UNL     1      -1.382   3.522  25.113  0.00  0.00    +0.153 A 
ATOM     16  C   UNL     1      -2.072   3.514  25.566  0.00  0.00    +0.027 A 
ATOM     17  C   UNL     1      -2.280   4.296  25.728  0.00  0.00    +0.009 A 
ATOM     18  C   UNL     1      -1.719   4.787  25.375  0.00  0.00    +0.037 A 
ATOM     19  S   UNL     1      -1.164   4.310  24.995  0.00  0.00    -0.067 S 
ENDBRANCH  12  15
ENDBRANCH  11  12
ENDBRANCH  10  11
ENDBRANCH   9  10
TORSDOF 6
ENDMDL
MODEL 6
REMARK VINA RESULT:      -9.1      2.079      3.145
REMARK  Name = 
REMARK  6 active torsions:
REMARK  status: ('A' for Active; 'I' for Inactive)
REMARK    1  A    between atoms: N_5  and  C_8
REMARK    2  A    between atoms: C_9  and  C_10
REMARK    3  A    between atoms: C_10  and  N_11
REMARK    4  A    between atoms: N_11  and  S_12
REMARK    5  A    between atoms: S_12  and  C_15
REMARK    6  A    between atoms: C_21  and  C_22
REMARK                            x       y       z     vdW  Elec       q    Type
REMARK                         _______ _______ _______ _____ _____    ______ ____
ROOT
ATOM      8  C   UNL     1      -2.854   3.195  25.001  0.00  0.00    +0.120 C 
ATOM      9  C   UNL     1      -2.148   2.769  25.001  0.00  0.00    +0.152 C 
ATOM     20  O   UNL     1      -1.524   3.307  25.047  0.00  0.00    -0.350 OA
ATOM     21  C   UNL     1      -1.845   4.067  25.074  0.00  0.00    +0.180 C 
ATOM     24  C   UNL     1      -2.667   3.998  25.046  0.00  0.00    +0.198 C 
ATOM     25  O   UNL     1      -3.207   4.622  25.060  0.00  0.00    -0.219 OA
ENDROOT
BRANCH   8   5
ATOM      1  C   UNL     1      -5.893   1.919  24.845  0.00  0.00    +0.000 C 
ATOM      2  C   UNL     1      -5.133   2.238  24.884  0.00  0.00    +0.003 C 
ATOM      3  C   UNL     1      -4.796   2.412  25.616  0.00  0.00    +0.017 C 
ATOM      4  C   UNL     1      -4.037   2.731  25.655  0.00  0.00    +0.072 C 
ATOM      5  N   UNL     1      -3.614   2.876  24.962  0.00  0.00    -0.270 NA
ATOM      6  C   UNL     1      -3.952   2.702  24.229  0.00  0.00    +0.072 C 
ATOM      7  C   UNL     1      -4.712   2.383  24.190  0.00  0.00    +0.017 C 
ENDBRANCH   8   5
BRANCH  21  22
ATOM     22  C   UNL     1      -1.419   4.771  25.122  0.00  0.00    +0.214 C 
ATOM     23  O   UNL     1      -0.625   4.790  24.899  0.00  0.00    -0.218 OA
ENDBRANCH  21  22
BRANCH   9  10
ATOM     10  C   UNL     1      -2.078   1.947  24.963  0.00  0.00    +0.146 C 
BRANCH  10  11
ATOM     11  N   UNL     1      -1.332   1.596  24.978  0.00  0.00    -0.075 NA
BRANCH  11  12
ATOM     12  S   UNL     1      -1.263   0.774  24.976  0.00  0.00    +0.083 S 
ATOM     13  O   UNL     1      -1.145   0.782  25.793  0.00  0.00    -0.151 OA
ATOM     14  O   UNL     1      -1.381   0.765  24.159  0.00  0.00    -0.151 OA
BRANCH  12  15
ATOM     15  C   UNL     1      -1.194  -0.048  24.975  0.00  0.00    +0.153 A 
ATOM     16  C   UNL     1      -1.739  -0.581  25.291  0.00  0.00    +0.027 A 
ATOM     17  C   UNL     1      -1.450  -1.344  25.168  0.00  0.00    +0.009 A 
ATOM     18  C   UNL     1      -0.726  -1.282  24.775  0.00  0.00    +0.037 A 
ATOM     19  S   UNL     1      -0.568  -0.482  24.656  0.00  0.00    -0.067 S 
ENDBRANCH  12  15
ENDBRANCH  11  12
ENDBRANCH  10  11
ENDBRANCH   9  10
TORSDOF 6
ENDMDL
MODEL 7
REMARK VINA RESULT:      -9.1      1.776      2.837
REMARK  Name = 
REMARK  6 active torsions:
REMARK  status: ('A' for Active; 'I' for Inactive)
REMARK    1  A    between atoms: N_5  and  C_8
REMARK    2  A    between atoms: C_9  and  C_10
REMARK    3  A    between atoms: C_10  and  N_11
REMARK    4  A    between atoms: N_11  and  S_12
REMARK    5  A    between atoms: S_12  and  C_15
REMARK    6  A    between atoms: C_21  and  C_22
REMARK                            x       y       z     vdW  Elec       q    Type
REMARK                         _______ _______ _______ _____ _____    ______ ____
ROOT
ATOM      8  C   UNL     1      -1.751   2.286  25.149  0.00  0.00    +0.120 C 
ATOM      9  C   UNL     1      -1.464   1.522  25.267  0.00  0.00    +0.152 C 
ATOM     20  O   UNL     1      -0.702   1.581  25.580  0.00  0.00    -0.350 OA
ATOM     21  C   UNL     1      -0.518   2.382  25.654  0.00  0.00    +0.180 C 
ATOM     24  C   UNL     1      -1.166   2.818  25.388  0.00  0.00    +0.198 C 
ATOM     25  O   UNL     1      -1.221   3.641  25.365  0.00  0.00    -0.219 OA
ENDROOT
BRANCH   8   5
ATOM      1  C   UNL     1      -4.714   3.079  23.931  0.00  0.00    +0.000 C 
ATOM      2  C   UNL     1      -3.973   2.880  24.235  0.00  0.00    +0.003 C 
ATOM      3  C   UNL     1      -3.865   2.821  25.050  0.00  0.00    +0.017 C 
ATOM      4  C   UNL     1      -3.124   2.623  25.355  0.00  0.00    +0.072 C 
ATOM      5  N   UNL     1      -2.491   2.484  24.844  0.00  0.00    -0.270 NA
ATOM      6  C   UNL     1      -2.600   2.543  24.028  0.00  0.00    +0.072 C 
ATOM      7  C   UNL     1      -3.341   2.741  23.723  0.00  0.00    +0.017 C 
ENDBRANCH   8   5
BRANCH  21  22
ATOM     22  C   UNL     1       0.188   2.693  25.944  0.00  0.00    +0.214 C 
ATOM     23  O   UNL     1       0.565   2.334  26.584  0.00  0.00    -0.218 OA
ENDBRANCH  21  22
BRANCH   9  10
ATOM     10  C   UNL     1      -1.867   0.821  25.102  0.00  0.00    +0.146 C 
BRANCH  10  11
ATOM     11  N   UNL     1      -1.529   0.095  25.299  0.00  0.00    -0.075 NA
BRANCH  11  12
ATOM     12  S   UNL     1      -1.941  -0.605  25.152  0.00  0.00    +0.083 S 
ATOM     13  O   UNL     1      -1.662  -0.606  24.375  0.00  0.00    -0.151 OA
ATOM     14  O   UNL     1      -2.220  -0.604  25.929  0.00  0.00    -0.151 OA
BRANCH  12  15
ATOM     15  C   UNL     1      -2.353  -1.304  25.005  0.00  0.00    +0.153 A 
ATOM     16  C   UNL     1      -3.143  -1.450  25.193  0.00  0.00    +0.027 A 
ATOM     17  C   UNL     1      -3.326  -2.217  24.949  0.00  0.00    +0.009 A 
ATOM     18  C   UNL     1      -2.648  -2.544  24.610  0.00  0.00    +0.037 A 
ATOM     19  S   UNL     1      -2.047  -1.981  24.645  0.00  0.00    -0.067 S 
ENDBRANCH  12  15
ENDBRANCH  11  12
ENDBRANCH  10  11
ENDBRANCH   9  10
TORSDOF 6
ENDMDL
MODEL 8
REMARK VINA RESULT:      -9.0      1.842      3.575
REMARK  Name = 
REMARK  6 active torsions:
REMARK  status: ('A' for Active; 'I' for Inactive)
REMARK    1  A    between atoms: N_5  and  C_8
REMARK    2  A    between atoms: C_9  and  C_10
REMARK    3  A    between atoms: C_10  and  N_11
REMARK    4  A    between atoms: N_11  and  S_12
REMARK    5  A    between atoms: S_12  and  C_15
REMARK    6  A    between atoms: C_21  and  C_22
REMARK                            x       y       z     vdW  Elec       q    Type
REMARK                         _______ _______ _______ _____ _____    ______ ____
ROOT
ATOM      8  C   UNL     1      -1.442  -0.110  24.812  0.00  0.00    +0.120 C 
ATOM      9  C   UNL     1      -2.258  -0.194  24.728  0.00  0.00    +0.152 C 
ATOM     20  O   UNL     1      -2.422  -0.994  24.609  0.00  0.00    -0.350 OA
ATOM     21  C   UNL     1      -1.707  -1.405  24.620  0.00  0.00    +0.180 C 
ATOM     24  C   UNL     1      -1.101  -0.859  24.746  0.00  0.00    +0.198 C 
ATOM     25  O   UNL     1      -0.295  -1.031  24.796  0.00  0.00    -0.219 OA
ENDROOT
BRANCH   8   5
ATOM      1  C   UNL     1       0.176   2.720  25.326  0.00  0.00    +0.000 C 
ATOM      2  C   UNL     1      -0.229   2.012  25.198  0.00  0.00    +0.003 C 
ATOM      3  C   UNL     1      -0.538   1.593  25.836  0.00  0.00    +0.017 C 
ATOM      4  C   UNL     1      -0.943   0.885  25.708  0.00  0.00    +0.072 C 
ATOM      5  N   UNL     1      -1.038   0.597  24.941  0.00  0.00    -0.270 NA
ATOM      6  C   UNL     1      -0.728   1.018  24.301  0.00  0.00    +0.072 C 
ATOM      7  C   UNL     1      -0.323   1.725  24.430  0.00  0.00    +0.017 C 
ENDBRANCH   8   5
BRANCH  21  22
ATOM     22  C   UNL     1      -1.613  -2.219  24.523  0.00  0.00    +0.214 C 
ATOM     23  O   UNL     1      -2.253  -2.683  24.287  0.00  0.00    -0.218 OA
ENDBRANCH  21  22
BRANCH   9  10
ATOM     10  C   UNL     1      -2.814   0.416  24.757  0.00  0.00    +0.146 C 
BRANCH  10  11
ATOM     11  N   UNL     1      -3.609   0.255  24.610  0.00  0.00    -0.075 NA
BRANCH  11  12
ATOM     12  S   UNL     1      -4.179   0.837  24.744  0.00  0.00    +0.083 S 
ATOM     13  O   UNL     1      -3.992   1.187  24.020  0.00  0.00    -0.151 OA
ATOM     14  O   UNL     1      -4.366   0.488  25.468  0.00  0.00    -0.151 OA
BRANCH  12  15
ATOM     15  C   UNL     1      -4.748   1.419  24.878  0.00  0.00    +0.153 A 
ATOM     16  C   UNL     1      -5.535   1.288  25.090  0.00  0.00    +0.027 A 
ATOM     17  C   UNL     1      -5.903   2.022  25.167  0.00  0.00    +0.009 A 
ATOM     18  C   UNL     1      -5.344   2.607  25.002  0.00  0.00    +0.037 A 
ATOM     19  S   UNL     1      -4.630   2.234  24.824  0.00  0.00    -0.067 S 
ENDBRANCH  12  15
ENDBRANCH  11  12
ENDBRANCH  10  11
ENDBRANCH   9  10
TORSDOF 6
ENDMDL
