MODEL 1
REMARK VINA RESULT:      -8.2      0.000      0.000
REMARK  Name = 
REMARK  8 active torsions:
REMARK  status: ('A' for Active; 'I' for Inactive)
REMARK    1  A    between atoms: O_2  and  C_3
REMARK    2  A    between atoms: C_6  and  C_7
REMARK    3  A    between atoms: C_7  and  N_8
REMARK    4  A    between atoms: N_8  and  C_9
REMARK    5  A    between atoms: C_12  and  C_13
REMARK    6  A    between atoms: C_13  and  N_14
REMARK    7  A    between atoms: N_14  and  S_15
REMARK    8  A    between atoms: S_15  and  C_18
REMARK                            x       y       z     vdW  Elec       q    Type
REMARK                         _______ _______ _______ _____ _____    ______ ____
ROOT
ATOM      9  C   UNL     1       0.613   0.463  23.545  0.00  0.00    +0.135 C 
ATOM     10  C   UNL     1       0.244  -0.252  23.364  0.00  0.00    +0.162 C 
ATOM     11  O   UNL     1      -0.551  -0.188  23.572  0.00  0.00    -0.350 OA
ATOM     12  C   UNL     1      -0.674   0.567  23.881  0.00  0.00    +0.166 C 
ATOM     25  C   UNL     1       0.046   0.969  23.865  0.00  0.00    +0.199 C 
ATOM     26  O   UNL     1       0.176   1.742  24.122  0.00  0.00    -0.219 OA
ENDROOT
BRANCH   9   8
ATOM      8  N   UNL     1       1.410   0.640  23.428  0.00  0.00    -0.209 NA
BRANCH   8   7
ATOM      7  C   UNL     1       1.857   0.200  22.892  0.00  0.00    +0.115 C 
BRANCH   7   6
ATOM      3  C   UNL     1       4.327   0.326  22.939  0.00  0.00    +0.139 A 
ATOM      4  C   UNL     1       3.885   0.986  22.714  0.00  0.00    +0.037 A 
ATOM      5  C   UNL     1       3.061   0.943  22.698  0.00  0.00    +0.000 A 
ATOM      6  C   UNL     1       2.680   0.242  22.907  0.00  0.00    -0.005 A 
ATOM     27  C   UNL     1       3.123  -0.417  23.132  0.00  0.00    +0.000 A 
ATOM     28  C   UNL     1       3.946  -0.375  23.148  0.00  0.00    +0.037 A 
BRANCH   3   2
ATOM      1  C   UNL     1       5.566   0.093  23.612  0.00  0.00    +0.252 C 
ATOM      2  O   UNL     1       5.152   0.368  22.955  0.00  0.00    -0.471 OA
ENDBRANCH   3   2
ENDBRANCH   7   6
ENDBRANCH   8   7
ENDBRANCH   9   8
BRANCH  12  13
ATOM     13  C   UNL     1      -1.391   0.868  24.158  0.00  0.00    +0.148 C 
BRANCH  13  14
ATOM     14  N   UNL     1      -2.089   0.441  24.044  0.00  0.00    -0.075 NA
BRANCH  14  15
ATOM     15  S   UNL     1      -2.812   0.764  24.274  0.00  0.00    +0.077 S 
ATOM     16  O   UNL     1      -2.646   0.575  25.060  0.00  0.00    -0.152 OA
ATOM     17  O   UNL     1      -2.977   0.954  23.488  0.00  0.00    -0.152 OA
BRANCH  15  18
ATOM     18  C   UNL     1      -3.534   1.088  24.505  0.00  0.00    +0.124 A 
ATOM     19  C   UNL     1      -4.119   0.602  24.827  0.00  0.00    +0.020 A 
ATOM     20  C   UNL     1      -4.843   0.925  25.058  0.00  0.00    -0.003 A 
ATOM     21  C   UNL     1      -4.981   1.734  24.967  0.00  0.00    -0.022 A 
ATOM     22  C   UNL     1      -5.704   2.057  25.198  0.00  0.00    +0.031 C 
ATOM     23  C   UNL     1      -4.397   2.218  24.646  0.00  0.00    -0.003 A 
ATOM     24  C   UNL     1      -3.673   1.895  24.414  0.00  0.00    +0.020 A 
ENDBRANCH  15  18
ENDBRANCH  14  15
ENDBRANCH  13  14
ENDBRANCH  12  13
TORSDOF 8
ENDMDL
MODEL 2
REMARK VINA RESULT:      -7.5      4.440      5.845
REMARK  Name = 
REMARK  8 active torsions:
REMARK  status: ('A' for Active; 'I' for Inactive)
REMARK    1  A    between atoms: O_2  and  C_3
REMARK    2  A    between atoms: C_6  and  C_7
REMARK    3  A    between atoms: C_7  and  N_8
REMARK    4  A    between atoms: N_8  and  C_9
REMARK    5  A    between atoms: C_12  and  C_13
REMARK    6  A    between atoms: C_13  and  N_14
REMARK    7  A    between atoms: N_14  and  S_15
REMARK    8  A    between atoms: S_15  and  C_18
REMARK                            x       y       z     vdW  Elec       q    Type
REMARK                         _______ _______ _______ _____ _____    ______ ____
ROOT
ATOM      9  C   UNL     1      -4.531   0.891  24.683  0.00  0.00    +0.135 C 
ATOM     10  C   UNL     1      -4.990   1.190  25.299  0.00  0.00    +0.162 C 
ATOM     11  O   UNL     1      -4.801   1.986  25.395  0.00  0.00    -0.350 OA
ATOM     12  C   UNL     1      -4.224   2.180  24.838  0.00  0.00    +0.166 C 
ATOM     25  C   UNL     1      -4.057   1.503  24.397  0.00  0.00    +0.199 C 
ATOM     26  O   UNL     1      -3.512   1.448  23.781  0.00  0.00    -0.219 OA
ENDROOT
BRANCH   9   8
ATOM      8  N   UNL     1      -4.543   0.115  24.401  0.00  0.00    -0.209 NA
BRANCH   8   7
ATOM      7  C   UNL     1      -4.564  -0.516  24.930  0.00  0.00    +0.115 C 
BRANCH   7   6
ATOM      3  C   UNL     1      -3.384  -2.623  24.394  0.00  0.00    +0.139 A 
ATOM      4  C   UNL     1      -3.967  -2.337  23.885  0.00  0.00    +0.037 A 
ATOM      5  C   UNL     1      -4.360  -1.634  24.064  0.00  0.00    +0.000 A 
ATOM      6  C   UNL     1      -4.171  -1.218  24.752  0.00  0.00    -0.005 A 
ATOM     27  C   UNL     1      -3.588  -1.506  25.260  0.00  0.00    +0.000 A 
ATOM     28  C   UNL     1      -3.195  -2.208  25.081  0.00  0.00    +0.037 A 
BRANCH   3   2
ATOM      1  C   UNL     1      -2.174  -3.323  24.094  0.00  0.00    +0.252 C 
ATOM      2  O   UNL     1      -2.990  -3.327  24.215  0.00  0.00    -0.471 OA
ENDBRANCH   3   2
ENDBRANCH   7   6
ENDBRANCH   8   7
ENDBRANCH   9   8
BRANCH  12  13
ATOM     13  C   UNL     1      -3.875   2.922  24.738  0.00  0.00    +0.148 C 
BRANCH  13  14
ATOM     14  N   UNL     1      -3.528   3.304  25.383  0.00  0.00    -0.075 NA
BRANCH  14  15
ATOM     15  S   UNL     1      -2.872   3.790  25.269  0.00  0.00    +0.077 S 
ATOM     16  O   UNL     1      -2.481   3.405  25.885  0.00  0.00    -0.152 OA
ATOM     17  O   UNL     1      -3.263   4.175  24.653  0.00  0.00    -0.152 OA
BRANCH  15  18
ATOM     18  C   UNL     1      -2.215   4.275  25.155  0.00  0.00    +0.124 A 
ATOM     19  C   UNL     1      -1.475   3.940  25.006  0.00  0.00    +0.020 A 
ATOM     20  C   UNL     1      -0.817   4.425  24.892  0.00  0.00    -0.003 A 
ATOM     21  C   UNL     1      -0.900   5.246  24.928  0.00  0.00    -0.022 A 
ATOM     22  C   UNL     1      -0.242   5.731  24.814  0.00  0.00    +0.031 C 
ATOM     23  C   UNL     1      -1.638   5.580  25.077  0.00  0.00    -0.003 A 
ATOM     24  C   UNL     1      -2.296   5.095  25.191  0.00  0.00    +0.020 A 
ENDBRANCH  15  18
ENDBRANCH  14  15
ENDBRANCH  13  14
ENDBRANCH  12  13
TORSDOF 8
ENDMDL
MODEL 3
REMARK VINA RESULT:      -7.1      4.426      5.425
REMARK  Name = 
REMARK  8 active torsions:
REMARK  status: ('A' for Active; 'I' for Inactive)
REMARK    1  A    between atoms: O_2  and  C_3
REMARK    2  A    between atoms: C_6  and  C_7
REMARK    3  A    between atoms: C_7  and  N_8
REMARK    4  A    between atoms: N_8  and  C_9
REMARK    5  A    between atoms: C_12  and  C_13
REMARK    6  A    between atoms: C_13  and  N_14
REMARK    7  A    between atoms: N_14  and  S_15
REMARK    8  A    between atoms: S_15  and  C_18
REMARK                            x       y       z     vdW  Elec       q    Type
REMARK                         _______ _______ _______ _____ _____    ______ ____
ROOT
ATOM      9  C   UNL     1      -4.055   2.799  25.061  0.00  0.00    +0.135 C 
ATOM     10  C   UNL     1      -4.644   2.654  25.620  0.00  0.00    +0.162 C 
ATOM     11  O   UNL     1      -4.895   1.874  25.530  0.00  0.00    -0.350 OA
ATOM     12  C   UNL     1      -4.461   1.536  24.915  0.00  0.00    +0.166 C 
ATOM     25  C   UNL     1      -3.942   2.107  24.625  0.00  0.00    +0.199 C 
ATOM     26  O   UNL     1      -3.404   2.006  24.008  0.00  0.00    -0.219 OA
ENDROOT
BRANCH   9   8
ATOM      8  N   UNL     1      -3.650   3.510  24.956  0.00  0.00    -0.209 NA
BRANCH   8   7
ATOM      7  C   UNL     1      -3.197   3.821  25.571  0.00  0.00    +0.115 C 
BRANCH   7   6
ATOM      3  C   UNL     1      -1.116   5.062  25.070  0.00  0.00    +0.139 A 
ATOM      4  C   UNL     1      -1.076   4.281  25.336  0.00  0.00    +0.037 A 
ATOM      5  C   UNL     1      -1.770   3.868  25.503  0.00  0.00    +0.000 A 
ATOM      6  C   UNL     1      -2.504   4.234  25.404  0.00  0.00    -0.005 A 
ATOM     27  C   UNL     1      -2.541   5.014  25.138  0.00  0.00    +0.000 A 
ATOM     28  C   UNL     1      -1.847   5.428  24.971  0.00  0.00    +0.037 A 
BRANCH   3   2
ATOM      1  C   UNL     1       0.014   5.294  24.226  0.00  0.00    +0.252 C 
ATOM      2  O   UNL     1      -0.421   5.476  24.903  0.00  0.00    -0.471 OA
ENDBRANCH   3   2
ENDBRANCH   7   6
ENDBRANCH   8   7
ENDBRANCH   9   8
BRANCH  12  13
ATOM     13  C   UNL     1      -4.534   0.761  24.638  0.00  0.00    +0.148 C 
BRANCH  13  14
ATOM     14  N   UNL     1      -4.581   0.135  25.173  0.00  0.00    -0.075 NA
BRANCH  14  15
ATOM     15  S   UNL     1      -4.314  -0.615  24.954  0.00  0.00    +0.077 S 
ATOM     16  O   UNL     1      -3.864  -0.655  25.644  0.00  0.00    -0.152 OA
ATOM     17  O   UNL     1      -4.766  -0.573  24.264  0.00  0.00    -0.152 OA
BRANCH  15  18
ATOM     18  C   UNL     1      -4.048  -1.364  24.736  0.00  0.00    +0.124 A 
ATOM     19  C   UNL     1      -3.531  -1.777  25.229  0.00  0.00    +0.020 A 
ATOM     20  C   UNL     1      -3.263  -2.527  25.010  0.00  0.00    -0.003 A 
ATOM     21  C   UNL     1      -3.514  -2.863  24.299  0.00  0.00    -0.022 A 
ATOM     22  C   UNL     1      -3.247  -3.613  24.080  0.00  0.00    +0.031 C 
ATOM     23  C   UNL     1      -4.030  -2.449  23.807  0.00  0.00    -0.003 A 
ATOM     24  C   UNL     1      -4.297  -1.699  24.025  0.00  0.00    +0.020 A 
ENDBRANCH  15  18
ENDBRANCH  14  15
ENDBRANCH  13  14
ENDBRANCH  12  13
TORSDOF 8
ENDMDL
MODEL 4
REMARK VINA RESULT:      -7.1      1.562      6.870
REMARK  Name = 
REMARK  8 active torsions:
REMARK  status: ('A' for Active; 'I' for Inactive)
REMARK    1  A    between atoms: O_2  and  C_3
REMARK    2  A    between atoms: C_6  and  C_7
REMARK    3  A    between atoms: C_7  and  N_8
REMARK    4  A    between atoms: N_8  and  C_9
REMARK    5  A    between atoms: C_12  and  C_13
REMARK    6  A    between atoms: C_13  and  N_14
REMARK    7  A    between atoms: N_14  and  S_15
REMARK    8  A    between atoms: S_15  and  C_18
REMARK                            x       y       z     vdW  Elec       q    Type
REMARK                         _______ _______ _______ _____ _____    ______ ____
ROOT
ATOM      9  C   UNL     1      -0.872   0.992  23.788  0.00  0.00    +0.135 C 
ATOM     10  C   UNL     1      -0.839   0.360  23.260  0.00  0.00    +0.162 C 
ATOM     11  O   UNL     1      -0.045   0.184  23.123  0.00  0.00    -0.350 OA
ATOM     12  C   UNL     1       0.413   0.707  23.567  0.00  0.00    +0.166 C 
ATOM     25  C   UNL     1      -0.098   1.207  23.978  0.00  0.00    +0.199 C 
ATOM     26  O   UNL     1       0.125   1.814  24.489  0.00  0.00    -0.219 OA
ENDROOT
BRANCH   9   8
ATOM      8  N   UNL     1      -1.558   1.348  24.076  0.00  0.00    -0.209 NA
BRANCH   8   7
ATOM      7  C   UNL     1      -2.283   1.205  23.709  0.00  0.00    +0.115 C 
BRANCH   7   6
ATOM      3  C   UNL     1      -4.328   2.334  24.524  0.00  0.00    +0.139 A 
ATOM      4  C   UNL     1      -3.863   2.693  23.945  0.00  0.00    +0.037 A 
ATOM      5  C   UNL     1      -3.181   2.316  23.673  0.00  0.00    +0.000 A 
ATOM      6  C   UNL     1      -2.964   1.581  23.981  0.00  0.00    -0.005 A 
ATOM     27  C   UNL     1      -3.430   1.224  24.560  0.00  0.00    +0.000 A 
ATOM     28  C   UNL     1      -4.112   1.601  24.832  0.00  0.00    +0.037 A 
BRANCH   3   2
ATOM      1  C   UNL     1      -4.961   3.263  25.407  0.00  0.00    +0.252 C 
ATOM      2  O   UNL     1      -5.011   2.711  24.797  0.00  0.00    -0.471 OA
ENDBRANCH   3   2
ENDBRANCH   7   6
ENDBRANCH   8   7
ENDBRANCH   9   8
BRANCH  12  13
ATOM     13  C   UNL     1       1.238   0.727  23.594  0.00  0.00    +0.148 C 
BRANCH  13  14
ATOM     14  N   UNL     1       1.678   0.475  22.943  0.00  0.00    -0.075 NA
BRANCH  14  15
ATOM     15  S   UNL     1       2.496   0.389  23.008  0.00  0.00    +0.077 S 
ATOM     16  O   UNL     1       2.564   1.187  23.206  0.00  0.00    -0.152 OA
ATOM     17  O   UNL     1       2.428  -0.409  22.809  0.00  0.00    -0.152 OA
BRANCH  15  18
ATOM     18  C   UNL     1       3.314   0.304  23.072  0.00  0.00    +0.124 A 
ATOM     19  C   UNL     1       3.632  -0.395  23.376  0.00  0.00    +0.020 A 
ATOM     20  C   UNL     1       4.451  -0.481  23.440  0.00  0.00    -0.003 A 
ATOM     21  C   UNL     1       4.950   0.132  23.201  0.00  0.00    -0.022 A 
ATOM     22  C   UNL     1       5.768   0.046  23.266  0.00  0.00    +0.031 C 
ATOM     23  C   UNL     1       4.631   0.829  22.899  0.00  0.00    -0.003 A 
ATOM     24  C   UNL     1       3.813   0.915  22.834  0.00  0.00    +0.020 A 
ENDBRANCH  15  18
ENDBRANCH  14  15
ENDBRANCH  13  14
ENDBRANCH  12  13
TORSDOF 8
ENDMDL
MODEL 5
REMARK VINA RESULT:      -6.9      3.625      5.365
REMARK  Name = 
REMARK  8 active torsions:
REMARK  status: ('A' for Active; 'I' for Inactive)
REMARK    1  A    between atoms: O_2  and  C_3
REMARK    2  A    between atoms: C_6  and  C_7
REMARK    3  A    between atoms: C_7  and  N_8
REMARK    4  A    between atoms: N_8  and  C_9
REMARK    5  A    between atoms: C_12  and  C_13
REMARK    6  A    between atoms: C_13  and  N_14
REMARK    7  A    between atoms: N_14  and  S_15
REMARK    8  A    between atoms: S_15  and  C_18
REMARK                            x       y       z     vdW  Elec       q    Type
REMARK                         _______ _______ _______ _____ _____    ______ ____
ROOT
ATOM      9  C   UNL     1      -1.036  -0.303  25.170  0.00  0.00    +0.135 C 
ATOM     10  C   UNL     1      -0.811  -0.166  25.952  0.00  0.00    +0.162 C 
ATOM     11  O   UNL     1      -0.608   0.630  26.023  0.00  0.00    -0.350 OA
ATOM     12  C   UNL     1      -0.707   0.985  25.285  0.00  0.00    +0.166 C 
ATOM     25  C   UNL     1      -0.971   0.409  24.758  0.00  0.00    +0.199 C 
ATOM     26  O   UNL     1      -1.142   0.523  23.959  0.00  0.00    -0.219 OA
ENDROOT
BRANCH   9   8
ATOM      8  N   UNL     1      -1.282  -1.025  24.856  0.00  0.00    -0.209 NA
BRANCH   8   7
ATOM      7  C   UNL     1      -1.702  -1.558  25.324  0.00  0.00    +0.115 C 
BRANCH   7   6
ATOM      3  C   UNL     1      -3.560  -2.868  24.347  0.00  0.00    +0.139 A 
ATOM      4  C   UNL     1      -2.788  -2.986  24.080  0.00  0.00    +0.037 A 
ATOM      5  C   UNL     1      -2.168  -2.549  24.406  0.00  0.00    +0.000 A 
ATOM      6  C   UNL     1      -2.321  -1.995  24.999  0.00  0.00    -0.005 A 
ATOM     27  C   UNL     1      -3.093  -1.878  25.264  0.00  0.00    +0.000 A 
ATOM     28  C   UNL     1      -3.712  -2.315  24.938  0.00  0.00    +0.037 A 
BRANCH   3   2
ATOM      1  C   UNL     1      -4.687  -2.956  23.473  0.00  0.00    +0.252 C 
ATOM      2  O   UNL     1      -4.180  -3.306  24.021  0.00  0.00    -0.471 OA
ENDBRANCH   3   2
ENDBRANCH   7   6
ENDBRANCH   8   7
ENDBRANCH   9   8
BRANCH  12  13
ATOM     13  C   UNL     1      -0.566   1.778  25.106  0.00  0.00    +0.148 C 
BRANCH  13  14
ATOM     14  N   UNL     1      -0.593   2.347  25.703  0.00  0.00    -0.075 NA
BRANCH  14  15
ATOM     15  S   UNL     1      -0.819   3.120  25.526  0.00  0.00    +0.077 S 
ATOM     16  O   UNL     1      -0.238   3.156  24.942  0.00  0.00    -0.152 OA
ATOM     17  O   UNL     1      -1.401   3.084  26.110  0.00  0.00    -0.152 OA
BRANCH  15  18
ATOM     18  C   UNL     1      -1.045   3.894  25.349  0.00  0.00    +0.124 A 
ATOM     19  C   UNL     1      -1.791   4.166  25.572  0.00  0.00    +0.020 A 
ATOM     20  C   UNL     1      -2.018   4.940  25.394  0.00  0.00    -0.003 A 
ATOM     21  C   UNL     1      -1.497   5.440  24.994  0.00  0.00    -0.022 A 
ATOM     22  C   UNL     1      -1.724   6.214  24.817  0.00  0.00    +0.031 C 
ATOM     23  C   UNL     1      -0.752   5.167  24.771  0.00  0.00    -0.003 A 
ATOM     24  C   UNL     1      -0.526   4.394  24.949  0.00  0.00    +0.020 A 
ENDBRANCH  15  18
ENDBRANCH  14  15
ENDBRANCH  13  14
ENDBRANCH  12  13
TORSDOF 8
ENDMDL
MODEL 6
REMARK VINA RESULT:      -6.8      3.586      4.867
REMARK  Name = 
REMARK  8 active torsions:
REMARK  status: ('A' for Active; 'I' for Inactive)
REMARK    1  A    between atoms: O_2  and  C_3
REMARK    2  A    between atoms: C_6  and  C_7
REMARK    3  A    between atoms: C_7  and  N_8
REMARK    4  A    between atoms: N_8  and  C_9
REMARK    5  A    between atoms: C_12  and  C_13
REMARK    6  A    between atoms: C_13  and  N_14
REMARK    7  A    between atoms: N_14  and  S_15
REMARK    8  A    between atoms: S_15  and  C_18
REMARK                            x       y       z     vdW  Elec       q    Type
REMARK                         _______ _______ _______ _____ _____    ______ ____
ROOT
ATOM      9  C   UNL     1      -0.721   1.614  25.204  0.00  0.00    +0.135 C 
ATOM     10  C   UNL     1      -0.518   1.229  25.905  0.00  0.00    +0.162 C 
ATOM     11  O   UNL     1      -0.752   0.441  25.839  0.00  0.00    -0.350 OA
ATOM     12  C   UNL     1      -1.101   0.339  25.099  0.00  0.00    +0.166 C 
ATOM     25  C   UNL     1      -1.082   1.064  24.706  0.00  0.00    +0.199 C 
ATOM     26  O   UNL     1      -1.372   1.213  23.949  0.00  0.00    -0.219 OA
ENDROOT
BRANCH   9   8
ATOM      8  N   UNL     1      -0.588   2.410  25.032  0.00  0.00    -0.209 NA
BRANCH   8   7
ATOM      7  C   UNL     1      -0.649   2.977  25.628  0.00  0.00    +0.115 C 
BRANCH   7   6
ATOM      3  C   UNL     1      -1.375   5.278  25.077  0.00  0.00    +0.139 A 
ATOM      4  C   UNL     1      -0.641   5.003  24.816  0.00  0.00    +0.037 A 
ATOM      5  C   UNL     1      -0.400   4.236  25.000  0.00  0.00    +0.000 A 
ATOM      6  C   UNL     1      -0.891   3.744  25.444  0.00  0.00    -0.005 A 
ATOM     27  C   UNL     1      -1.623   4.019  25.705  0.00  0.00    +0.000 A 
ATOM     28  C   UNL     1      -1.865   4.786  25.521  0.00  0.00    +0.037 A 
BRANCH   3   2
ATOM      1  C   UNL     1      -2.284   6.167  24.426  0.00  0.00    +0.252 C 
ATOM      2  O   UNL     1      -1.617   6.046  24.894  0.00  0.00    -0.471 OA
ENDBRANCH   3   2
ENDBRANCH   7   6
ENDBRANCH   8   7
ENDBRANCH   9   8
BRANCH  12  13
ATOM     13  C   UNL     1      -1.413  -0.365  24.803  0.00  0.00    +0.148 C 
BRANCH  13  14
ATOM     14  N   UNL     1      -1.894  -0.836  25.280  0.00  0.00    -0.075 NA
BRANCH  14  15
ATOM     15  S   UNL     1      -2.477  -1.309  24.939  0.00  0.00    +0.077 S 
ATOM     16  O   UNL     1      -3.049  -0.940  25.404  0.00  0.00    -0.152 OA
ATOM     17  O   UNL     1      -1.904  -1.678  24.473  0.00  0.00    -0.152 OA
BRANCH  15  18
ATOM     18  C   UNL     1      -3.060  -1.782  24.597  0.00  0.00    +0.124 A 
ATOM     19  C   UNL     1      -3.674  -1.434  24.169  0.00  0.00    +0.020 A 
ATOM     20  C   UNL     1      -4.258  -1.907  23.827  0.00  0.00    -0.003 A 
ATOM     21  C   UNL     1      -4.227  -2.727  23.914  0.00  0.00    -0.022 A 
ATOM     22  C   UNL     1      -4.811  -3.200  23.572  0.00  0.00    +0.031 C 
ATOM     23  C   UNL     1      -3.614  -3.074  24.341  0.00  0.00    -0.003 A 
ATOM     24  C   UNL     1      -3.030  -2.601  24.684  0.00  0.00    +0.020 A 
ENDBRANCH  15  18
ENDBRANCH  14  15
ENDBRANCH  13  14
ENDBRANCH  12  13
TORSDOF 8
ENDMDL
MODEL 7
REMARK VINA RESULT:      -6.1     17.546     19.090
REMARK  Name = 
REMARK  8 active torsions:
REMARK  status: ('A' for Active; 'I' for Inactive)
REMARK    1  A    between atoms: O_2  and  C_3
REMARK    2  A    between atoms: C_6  and  C_7
REMARK    3  A    between atoms: C_7  and  N_8
REMARK    4  A    between atoms: N_8  and  C_9
REMARK    5  A    between atoms: C_12  and  C_13
REMARK    6  A    between atoms: C_13  and  N_14
REMARK    7  A    between atoms: N_14  and  S_15
REMARK    8  A    between atoms: S_15  and  C_18
REMARK                            x       y       z     vdW  Elec       q    Type
REMARK                         _______ _______ _______ _____ _____    ______ ____
ROOT
ATOM      9  C   UNL     1      -7.317  -8.202   8.862  0.00  0.00    +0.135 C 
ATOM     10  C   UNL     1      -6.931  -8.436   8.172  0.00  0.00    +0.162 C 
ATOM     11  O   UNL     1      -6.249  -8.846   8.388  0.00  0.00    -0.350 OA
ATOM     12  C   UNL     1      -6.213  -8.865   9.212  0.00  0.00    +0.166 C 
ATOM     25  C   UNL     1      -6.873  -8.467   9.505  0.00  0.00    +0.199 C 
ATOM     26  O   UNL     1      -7.056  -8.353  10.301  0.00  0.00    -0.219 OA
ENDROOT
BRANCH   9   8
ATOM      8  N   UNL     1      -8.023  -7.776   8.903  0.00  0.00    -0.209 NA
BRANCH   8   7
ATOM      7  C   UNL     1      -8.269  -7.322   8.260  0.00  0.00    +0.115 C 
BRANCH   7   6
ATOM      3  C   UNL     1     -10.078  -5.658   8.539  0.00  0.00    +0.139 A 
ATOM      4  C   UNL     1      -9.302  -5.406   8.414  0.00  0.00    +0.037 A 
ATOM      5  C   UNL     1      -8.699  -5.961   8.321  0.00  0.00    +0.000 A 
ATOM      6  C   UNL     1      -8.871  -6.768   8.353  0.00  0.00    -0.005 A 
ATOM     27  C   UNL     1      -9.647  -7.018   8.477  0.00  0.00    +0.000 A 
ATOM     28  C   UNL     1     -10.251  -6.463   8.570  0.00  0.00    +0.037 A 
BRANCH   3   2
ATOM      1  C   UNL     1     -10.513  -4.359   8.946  0.00  0.00    +0.252 C 
ATOM      2  O   UNL     1     -10.682  -5.102   8.632  0.00  0.00    -0.471 OA
ENDBRANCH   3   2
ENDBRANCH   7   6
ENDBRANCH   8   7
ENDBRANCH   9   8
BRANCH  12  13
ATOM     13  C   UNL     1      -5.620  -9.220   9.664  0.00  0.00    +0.148 C 
BRANCH  13  14
ATOM     14  N   UNL     1      -4.848  -9.258   9.375  0.00  0.00    -0.075 NA
BRANCH  14  15
ATOM     15  S   UNL     1      -4.233  -9.490   9.873  0.00  0.00    +0.077 S 
ATOM     16  O   UNL     1      -4.493 -10.272   9.828  0.00  0.00    -0.152 OA
ATOM     17  O   UNL     1      -3.974  -8.708   9.917  0.00  0.00    -0.152 OA
BRANCH  15  18
ATOM     18  C   UNL     1      -3.618  -9.723  10.370  0.00  0.00    +0.124 A 
ATOM     19  C   UNL     1      -3.719 -10.367  10.877  0.00  0.00    +0.020 A 
ATOM     20  C   UNL     1      -3.103 -10.600  11.375  0.00  0.00    -0.003 A 
ATOM     21  C   UNL     1      -2.388 -10.189  11.366  0.00  0.00    -0.022 A 
ATOM     22  C   UNL     1      -1.772 -10.422  11.865  0.00  0.00    +0.031 C 
ATOM     23  C   UNL     1      -2.287  -9.546  10.860  0.00  0.00    -0.003 A 
ATOM     24  C   UNL     1      -2.903  -9.313  10.362  0.00  0.00    +0.020 A 
ENDBRANCH  15  18
ENDBRANCH  14  15
ENDBRANCH  13  14
ENDBRANCH  12  13
TORSDOF 8
ENDMDL
MODEL 8
REMARK VINA RESULT:      -5.8     15.193     16.590
REMARK  Name = 
REMARK  8 active torsions:
REMARK  status: ('A' for Active; 'I' for Inactive)
REMARK    1  A    between atoms: O_2  and  C_3
REMARK    2  A    between atoms: C_6  and  C_7
REMARK    3  A    between atoms: C_7  and  N_8
REMARK    4  A    between atoms: N_8  and  C_9
REMARK    5  A    between atoms: C_12  and  C_13
REMARK    6  A    between atoms: C_13  and  N_14
REMARK    7  A    between atoms: N_14  and  S_15
REMARK    8  A    between atoms: S_15  and  C_18
REMARK                            x       y       z     vdW  Elec       q    Type
REMARK                         _______ _______ _______ _____ _____    ______ ____
ROOT
ATOM      9  C   UNL     1      -4.848 -10.529  14.782  0.00  0.00    +0.135 C 
ATOM     10  C   UNL     1      -4.030 -10.462  14.698  0.00  0.00    +0.162 C 
ATOM     11  O   UNL     1      -3.860 -10.417  13.893  0.00  0.00    -0.350 OA
ATOM     12  C   UNL     1      -4.572 -10.456  13.479  0.00  0.00    +0.166 C 
ATOM     25  C   UNL     1      -5.183 -10.526  14.028  0.00  0.00    +0.199 C 
ATOM     26  O   UNL     1      -5.987 -10.582  13.854  0.00  0.00    -0.219 OA
ENDROOT
BRANCH   9   8
ATOM      8  N   UNL     1      -5.259 -10.589  15.495  0.00  0.00    -0.209 NA
BRANCH   8   7
ATOM      7  C   UNL     1      -4.997 -10.177  16.159  0.00  0.00    +0.115 C 
BRANCH   7   6
ATOM      3  C   UNL     1      -6.152 -10.458  18.329  0.00  0.00    +0.139 A 
ATOM      4  C   UNL     1      -6.528 -10.061  17.710  0.00  0.00    +0.037 A 
ATOM      5  C   UNL     1      -6.142  -9.967  16.987  0.00  0.00    +0.000 A 
ATOM      6  C   UNL     1      -5.381 -10.270  16.882  0.00  0.00    -0.005 A 
ATOM     27  C   UNL     1      -5.007 -10.666  17.501  0.00  0.00    +0.000 A 
ATOM     28  C   UNL     1      -5.393 -10.760  18.224  0.00  0.00    +0.037 A 
BRANCH   3   2
ATOM      1  C   UNL     1      -6.104 -10.560  19.753  0.00  0.00    +0.252 C 
ATOM      2  O   UNL     1      -6.538 -10.551  19.053  0.00  0.00    -0.471 OA
ENDBRANCH   3   2
ENDBRANCH   7   6
ENDBRANCH   8   7
ENDBRANCH   9   8
BRANCH  12  13
ATOM     13  C   UNL     1      -4.658 -10.431  12.658  0.00  0.00    +0.148 C 
BRANCH  13  14
ATOM     14  N   UNL     1      -4.070 -10.087  12.192  0.00  0.00    -0.075 NA
BRANCH  14  15
ATOM     15  S   UNL     1      -4.182 -10.009  11.379  0.00  0.00    +0.077 S 
ATOM     16  O   UNL     1      -4.458  -9.240  11.491  0.00  0.00    -0.152 OA
ATOM     17  O   UNL     1      -3.905 -10.778  11.267  0.00  0.00    -0.152 OA
BRANCH  15  18
ATOM     18  C   UNL     1      -4.294  -9.930  10.565  0.00  0.00    +0.124 A 
ATOM     19  C   UNL     1      -4.249  -9.185  10.213  0.00  0.00    +0.020 A 
ATOM     20  C   UNL     1      -4.361  -9.106   9.399  0.00  0.00    -0.003 A 
ATOM     21  C   UNL     1      -4.519  -9.773   8.938  0.00  0.00    -0.022 A 
ATOM     22  C   UNL     1      -4.631  -9.694   8.124  0.00  0.00    +0.031 C 
ATOM     23  C   UNL     1      -4.564 -10.516   9.290  0.00  0.00    -0.003 A 
ATOM     24  C   UNL     1      -4.451 -10.596  10.104  0.00  0.00    +0.020 A 
ENDBRANCH  15  18
ENDBRANCH  14  15
ENDBRANCH  13  14
ENDBRANCH  12  13
TORSDOF 8
ENDMDL
MODEL 9
REMARK VINA RESULT:      -5.3     16.063     17.497
REMARK  Name = 
REMARK  8 active torsions:
REMARK  status: ('A' for Active; 'I' for Inactive)
REMARK    1  A    between atoms: O_2  and  C_3
REMARK    2  A    between atoms: C_6  and  C_7
REMARK    3  A    between atoms: C_7  and  N_8
REMARK    4  A    between atoms: N_8  and  C_9
REMARK    5  A    between atoms: C_12  and  C_13
REMARK    6  A    between atoms: C_13  and  N_14
REMARK    7  A    between atoms: N_14  and  S_15
REMARK    8  A    between atoms: S_15  and  C_18
REMARK                            x       y       z     vdW  Elec       q    Type
REMARK                         _______ _______ _______ _____ _____    ______ ____
ROOT
ATOM      9  C   UNL     1      -5.178  -9.632  10.963  0.00  0.00    +0.135 C 
ATOM     10  C   UNL     1      -4.481  -9.890  10.606  0.00  0.00    +0.162 C 
ATOM     11  O   UNL     1      -3.973 -10.152  11.200  0.00  0.00    -0.350 OA
ATOM     12  C   UNL     1      -4.355 -10.056  11.924  0.00  0.00    +0.166 C 
ATOM     25  C   UNL     1      -5.100  -9.734  11.779  0.00  0.00    +0.199 C 
ATOM     26  O   UNL     1      -5.668  -9.548  12.347  0.00  0.00    -0.219 OA
ENDROOT
BRANCH   9   8
ATOM      8  N   UNL     1      -5.838  -9.325  10.574  0.00  0.00    -0.209 NA
BRANCH   8   7
ATOM      7  C   UNL     1      -5.816  -9.201   9.759  0.00  0.00    +0.115 C 
BRANCH   7   6
ATOM      3  C   UNL     1      -7.761  -8.196   8.606  0.00  0.00    +0.139 A 
ATOM      4  C   UNL     1      -7.741  -9.008   8.747  0.00  0.00    +0.037 A 
ATOM      5  C   UNL     1      -7.092  -9.344   9.132  0.00  0.00    +0.000 A 
ATOM      6  C   UNL     1      -6.464  -8.866   9.375  0.00  0.00    -0.005 A 
ATOM     27  C   UNL     1      -6.485  -8.054   9.233  0.00  0.00    +0.000 A 
ATOM     28  C   UNL     1      -7.133  -7.719   8.849  0.00  0.00    +0.037 A 
BRANCH   3   2
ATOM      1  C   UNL     1      -8.948  -7.401   8.645  0.00  0.00    +0.252 C 
ATOM      2  O   UNL     1      -8.410  -7.860   8.221  0.00  0.00    -0.471 OA
ENDBRANCH   3   2
ENDBRANCH   7   6
ENDBRANCH   8   7
ENDBRANCH   9   8
BRANCH  12  13
ATOM     13  C   UNL     1      -4.046 -10.248  12.665  0.00  0.00    +0.148 C 
BRANCH  13  14
ATOM     14  N   UNL     1      -3.237 -10.389  12.751  0.00  0.00    -0.075 NA
BRANCH  14  15
ATOM     15  S   UNL     1      -2.909 -10.457  13.505  0.00  0.00    +0.077 S 
ATOM     16  O   UNL     1      -2.203 -10.134  13.226  0.00  0.00    -0.152 OA
ATOM     17  O   UNL     1      -3.616 -10.781  13.783  0.00  0.00    -0.152 OA
BRANCH  15  18
ATOM     18  C   UNL     1      -2.581 -10.525  14.258  0.00  0.00    +0.124 A 
ATOM     19  C   UNL     1      -1.771 -10.405  14.367  0.00  0.00    +0.020 A 
ATOM     20  C   UNL     1      -1.442 -10.474  15.121  0.00  0.00    -0.003 A 
ATOM     21  C   UNL     1      -1.923 -10.662  15.765  0.00  0.00    -0.022 A 
ATOM     22  C   UNL     1      -1.594 -10.730  16.519  0.00  0.00    +0.031 C 
ATOM     23  C   UNL     1      -2.731 -10.781  15.656  0.00  0.00    -0.003 A 
ATOM     24  C   UNL     1      -3.060 -10.713  14.902  0.00  0.00    +0.020 A 
ENDBRANCH  15  18
ENDBRANCH  14  15
ENDBRANCH  13  14
ENDBRANCH  12  13
TORSDOF 8
ENDMDL
MODEL 10
REMARK VINA RESULT:      -5.2     17.471     18.091
REMARK  Name = 
REMARK  8 active torsions:
REMARK  status: ('A' for Active; 'I' for Inactive)
REMARK    1  A    between atoms: O_2  and  C_3
REMARK    2  A    between atoms: C_6  and  C_7
REMARK    3  A    between atoms: C_7  and  N_8
REMARK    4  A    between atoms: N_8  and  C_9
REMARK    5  A    between atoms: C_12  and  C_13
REMARK    6  A    between atoms: C_13  and  N_14
REMARK    7  A    between atoms: N_14  and  S_15
REMARK    8  A    between atoms: S_15  and  C_18
REMARK                            x       y       z     vdW  Elec       q    Type
REMARK                         _______ _______ _______ _____ _____    ______ ____
ROOT
ATOM      9  C   UNL     1      -5.949  -9.047   9.276  0.00  0.00    +0.135 C 
ATOM     10  C   UNL     1      -6.042  -9.122   8.460  0.00  0.00    +0.162 C 
ATOM     11  O   UNL     1      -6.714  -8.698   8.240  0.00  0.00    -0.350 OA
ATOM     12  C   UNL     1      -7.036  -8.359   8.920  0.00  0.00    +0.166 C 
ATOM     25  C   UNL     1      -6.564  -8.575   9.560  0.00  0.00    +0.199 C 
ATOM     26  O   UNL     1      -6.684  -8.357  10.347  0.00  0.00    -0.219 OA
ENDROOT
BRANCH   9   8
ATOM      8  N   UNL     1      -5.347  -9.384   9.729  0.00  0.00    -0.209 NA
BRANCH   8   7
ATOM      7  C   UNL     1      -4.698  -8.929   9.956  0.00  0.00    +0.115 C 
BRANCH   7   6
ATOM      3  C   UNL     1      -2.737 -10.009  11.010  0.00  0.00    +0.139 A 
ATOM      4  C   UNL     1      -3.496 -10.169  11.291  0.00  0.00    +0.037 A 
ATOM      5  C   UNL     1      -4.150  -9.809  10.940  0.00  0.00    +0.000 A 
ATOM      6  C   UNL     1      -4.045  -9.289  10.307  0.00  0.00    -0.005 A 
ATOM     27  C   UNL     1      -3.285  -9.130  10.027  0.00  0.00    +0.000 A 
ATOM     28  C   UNL     1      -2.632  -9.490  10.378  0.00  0.00    +0.037 A 
BRANCH   3   2
ATOM      1  C   UNL     1      -2.117 -10.606  12.150  0.00  0.00    +0.252 C 
ATOM      2  O   UNL     1      -2.083 -10.370  11.361  0.00  0.00    -0.471 OA
ENDBRANCH   3   2
ENDBRANCH   7   6
ENDBRANCH   8   7
ENDBRANCH   9   8
BRANCH  12  13
ATOM     13  C   UNL     1      -7.713  -7.888   8.953  0.00  0.00    +0.148 C 
BRANCH  13  14
ATOM     14  N   UNL     1      -7.918  -7.414   8.309  0.00  0.00    -0.075 NA
BRANCH  14  15
ATOM     15  S   UNL     1      -8.478  -6.816   8.399  0.00  0.00    +0.077 S 
ATOM     16  O   UNL     1      -9.040  -7.376   8.626  0.00  0.00    -0.152 OA
ATOM     17  O   UNL     1      -7.916  -6.256   8.172  0.00  0.00    -0.152 OA
BRANCH  15  18
ATOM     18  C   UNL     1      -9.038  -6.218   8.490  0.00  0.00    +0.124 A 
ATOM     19  C   UNL     1      -8.803  -5.427   8.474  0.00  0.00    +0.020 A 
ATOM     20  C   UNL     1      -9.363  -4.827   8.565  0.00  0.00    -0.003 A 
ATOM     21  C   UNL     1     -10.159  -5.020   8.671  0.00  0.00    -0.022 A 
ATOM     22  C   UNL     1     -10.720  -4.421   8.761  0.00  0.00    +0.031 C 
ATOM     23  C   UNL     1     -10.394  -5.810   8.686  0.00  0.00    -0.003 A 
ATOM     24  C   UNL     1      -9.833  -6.409   8.595  0.00  0.00    +0.020 A 
ENDBRANCH  15  18
ENDBRANCH  14  15
ENDBRANCH  13  14
ENDBRANCH  12  13
TORSDOF 8
ENDMDL
