MODEL 1
REMARK VINA RESULT:     -11.4      0.000      0.000
REMARK  Name = 
REMARK  8 active torsions:
REMARK  status: ('A' for Active; 'I' for Inactive)
REMARK    1  A    between atoms: O_2  and  C_3
REMARK    2  A    between atoms: C_3  and  C_4
REMARK    3  A    between atoms: C_4  and  O_5
REMARK    4  A    between atoms: O_5  and  C_6
REMARK    5  A    between atoms: C_8  and  C_12
REMARK    6  A    between atoms: C_15  and  C_17
REMARK    7  A    between atoms: N_21  and  C_22
REMARK    8  A    between atoms: C_22  and  C_23
REMARK                            x       y       z     vdW  Elec       q    Type
REMARK                         _______ _______ _______ _____ _____    ______ ____
ROOT
ATOM     12  C   UNL     1      -3.137   3.356  24.734  0.00  0.00    +0.204 A 
ATOM     13  N   UNL     1      -3.620   3.538  24.090  0.00  0.00    -0.056 NA
ATOM     14  O   UNL     1      -4.283   3.047  24.122  0.00  0.00    -0.336 OA
ATOM     15  C   UNL     1      -4.208   2.562  24.785  0.00  0.00    +0.251 A 
ATOM     16  N   UNL     1      -3.500   2.753  25.163  0.00  0.00    -0.190 NA
ENDROOT
BRANCH  12   8
ATOM      6  C   UNL     1      -1.005   3.624  25.116  0.00  0.00    +0.225 A 
ATOM      7  C   UNL     1      -1.725   3.265  24.934  0.00  0.00    +0.061 A 
ATOM      8  C   UNL     1      -2.416   3.715  24.915  0.00  0.00    +0.045 A 
ATOM      9  C   UNL     1      -2.388   4.523  25.078  0.00  0.00    +0.024 A 
ATOM     10  C   UNL     1      -1.667   4.882  25.259  0.00  0.00    +0.102 A 
ATOM     11  N   UNL     1      -0.976   4.433  25.278  0.00  0.00    -0.210 NA
BRANCH   6   5
ATOM      5  O   UNL     1      -0.313   3.175  25.135  0.00  0.00    -0.457 OA
BRANCH   5   4
ATOM      4  C   UNL     1      -0.128   2.675  24.506  0.00  0.00    +0.239 C 
BRANCH   4   3
ATOM      3  C   UNL     1       0.401   2.051  24.617  0.00  0.00    +0.189 C 
BRANCH   3   2
ATOM      1  C   UNL     1       0.838   0.991  23.763  0.00  0.00    +0.174 C 
ATOM      2  O   UNL     1       0.863   1.785  23.988  0.00  0.00    -0.347 OA
ENDBRANCH   3   2
ENDBRANCH   4   3
ENDBRANCH   5   4
ENDBRANCH   6   5
ENDBRANCH  12   8
BRANCH  15  17
ATOM     17  C   UNL     1      -4.747   1.986  25.028  0.00  0.00    +0.138 C 
ATOM     18  C   UNL     1      -5.445   2.122  25.446  0.00  0.00    +0.027 C 
ATOM     19  C   UNL     1      -5.812   1.393  25.572  0.00  0.00    +0.019 C 
ATOM     20  C   UNL     1      -5.341   0.808  25.232  0.00  0.00    +0.073 C 
ATOM     21  N   UNL     1      -4.682   1.175  24.896  0.00  0.00    -0.263 NA
BRANCH  21  22
ATOM     22  C   UNL     1      -4.068   0.795  24.497  0.00  0.00    +0.099 C 
BRANCH  22  23
ATOM     23  C   UNL     1      -3.975  -0.021  24.563  0.00  0.00    -0.006 A 
ATOM     24  C   UNL     1      -4.291  -0.520  23.987  0.00  0.00    -0.003 A 
ATOM     25  C   UNL     1      -4.198  -1.337  24.052  0.00  0.00    -0.005 A 
ATOM     26  C   UNL     1      -3.790  -1.656  24.694  0.00  0.00    -0.022 A 
ATOM     27  C   UNL     1      -3.697  -2.473  24.760  0.00  0.00    +0.031 C 
ATOM     28  C   UNL     1      -3.474  -1.157  25.271  0.00  0.00    -0.005 A 
ATOM     29  C   UNL     1      -3.567  -0.340  25.205  0.00  0.00    -0.003 A 
ENDBRANCH  22  23
ENDBRANCH  21  22
ENDBRANCH  15  17
TORSDOF 8
ENDMDL
MODEL 2
REMARK VINA RESULT:     -11.2      1.589      3.699
REMARK  Name = 
REMARK  8 active torsions:
REMARK  status: ('A' for Active; 'I' for Inactive)
REMARK    1  A    between atoms: O_2  and  C_3
REMARK    2  A    between atoms: C_3  and  C_4
REMARK    3  A    between atoms: C_4  and  O_5
REMARK    4  A    between atoms: O_5  and  C_6
REMARK    5  A    between atoms: C_8  and  C_12
REMARK    6  A    between atoms: C_15  and  C_17
REMARK    7  A    between atoms: N_21  and  C_22
REMARK    8  A    between atoms: C_22  and  C_23
REMARK                            x       y       z     vdW  Elec       q    Type
REMARK                         _______ _______ _______ _____ _____    ______ ____
ROOT
ATOM     12  C   UNL     1      -0.897   2.532  25.351  0.00  0.00    +0.204 A 
ATOM     13  N   UNL     1      -0.387   2.229  25.924  0.00  0.00    -0.056 NA
ATOM     14  O   UNL     1      -0.123   1.491  25.666  0.00  0.00    -0.336 OA
ATOM     15  C   UNL     1      -0.469   1.339  24.932  0.00  0.00    +0.251 A 
ATOM     16  N   UNL     1      -0.947   1.983  24.738  0.00  0.00    -0.190 NA
ENDROOT
BRANCH  12   8
ATOM      6  C   UNL     1      -2.457   4.021  25.688  0.00  0.00    +0.225 A 
ATOM      7  C   UNL     1      -2.067   3.295  25.654  0.00  0.00    +0.061 A 
ATOM      8  C   UNL     1      -1.287   3.258  25.384  0.00  0.00    +0.045 A 
ATOM      9  C   UNL     1      -0.899   3.946  25.149  0.00  0.00    +0.024 A 
ATOM     10  C   UNL     1      -1.290   4.672  25.183  0.00  0.00    +0.102 A 
ATOM     11  N   UNL     1      -2.068   4.710  25.452  0.00  0.00    -0.210 NA
BRANCH   6   5
ATOM      5  O   UNL     1      -3.236   4.059  25.957  0.00  0.00    -0.457 OA
BRANCH   5   4
ATOM      4  C   UNL     1      -3.845   3.736  25.505  0.00  0.00    +0.239 C 
BRANCH   4   3
ATOM      3  C   UNL     1      -4.602   3.662  25.826  0.00  0.00    +0.189 C 
BRANCH   3   2
ATOM      1  C   UNL     1      -5.762   2.854  25.614  0.00  0.00    +0.174 C 
ATOM      2  O   UNL     1      -5.231   3.427  25.347  0.00  0.00    -0.347 OA
ENDBRANCH   3   2
ENDBRANCH   4   3
ENDBRANCH   5   4
ENDBRANCH   6   5
ENDBRANCH  12   8
BRANCH  15  17
ATOM     17  C   UNL     1      -0.356   0.663  24.474  0.00  0.00    +0.138 C 
ATOM     18  C   UNL     1       0.191   0.577  23.862  0.00  0.00    +0.027 C 
ATOM     19  C   UNL     1       0.114  -0.186  23.556  0.00  0.00    +0.019 C 
ATOM     20  C   UNL     1      -0.480  -0.571  23.979  0.00  0.00    +0.073 C 
ATOM     21  N   UNL     1      -0.771  -0.047  24.546  0.00  0.00    -0.263 NA
BRANCH  21  22
ATOM     22  C   UNL     1      -1.371  -0.205  25.089  0.00  0.00    +0.099 C 
BRANCH  22  23
ATOM     23  C   UNL     1      -1.919  -0.801  24.937  0.00  0.00    -0.006 A 
ATOM     24  C   UNL     1      -1.727  -1.589  25.092  0.00  0.00    -0.003 A 
ATOM     25  C   UNL     1      -2.276  -2.185  24.940  0.00  0.00    -0.005 A 
ATOM     26  C   UNL     1      -3.017  -1.995  24.631  0.00  0.00    -0.022 A 
ATOM     27  C   UNL     1      -3.566  -2.592  24.479  0.00  0.00    +0.031 C 
ATOM     28  C   UNL     1      -3.210  -1.208  24.476  0.00  0.00    -0.005 A 
ATOM     29  C   UNL     1      -2.660  -0.611  24.629  0.00  0.00    -0.003 A 
ENDBRANCH  22  23
ENDBRANCH  21  22
ENDBRANCH  15  17
TORSDOF 8
ENDMDL
MODEL 3
REMARK VINA RESULT:     -10.7      1.607      4.269
REMARK  Name = 
REMARK  8 active torsions:
REMARK  status: ('A' for Active; 'I' for Inactive)
REMARK    1  A    between atoms: O_2  and  C_3
REMARK    2  A    between atoms: C_3  and  C_4
REMARK    3  A    between atoms: C_4  and  O_5
REMARK    4  A    between atoms: O_5  and  C_6
REMARK    5  A    between atoms: C_8  and  C_12
REMARK    6  A    between atoms: C_15  and  C_17
REMARK    7  A    between atoms: N_21  and  C_22
REMARK    8  A    between atoms: C_22  and  C_23
REMARK                            x       y       z     vdW  Elec       q    Type
REMARK                         _______ _______ _______ _____ _____    ______ ____
ROOT
ATOM     12  C   UNL     1      -4.017  -0.260  24.733  0.00  0.00    +0.204 A 
ATOM     13  N   UNL     1      -4.559  -0.163  24.119  0.00  0.00    -0.056 NA
ATOM     14  O   UNL     1      -4.932   0.567  24.221  0.00  0.00    -0.336 OA
ATOM     15  C   UNL     1      -4.619   0.920  24.898  0.00  0.00    +0.251 A 
ATOM     16  N   UNL     1      -4.054   0.408  25.214  0.00  0.00    -0.190 NA
ENDROOT
BRANCH  12   8
ATOM      6  C   UNL     1      -2.212  -1.463  24.977  0.00  0.00    +0.225 A 
ATOM      7  C   UNL     1      -2.705  -0.811  24.864  0.00  0.00    +0.061 A 
ATOM      8  C   UNL     1      -3.524  -0.912  24.846  0.00  0.00    +0.045 A 
ATOM      9  C   UNL     1      -3.850  -1.663  24.940  0.00  0.00    +0.024 A 
ATOM     10  C   UNL     1      -3.357  -2.315  25.053  0.00  0.00    +0.102 A 
ATOM     11  N   UNL     1      -2.538  -2.216  25.071  0.00  0.00    -0.210 NA
BRANCH   6   5
ATOM      5  O   UNL     1      -1.393  -1.364  24.995  0.00  0.00    -0.457 OA
BRANCH   5   4
ATOM      4  C   UNL     1      -0.978  -1.228  24.295  0.00  0.00    +0.239 C 
BRANCH   4   3
ATOM      3  C   UNL     1      -0.237  -0.866  24.320  0.00  0.00    +0.189 C 
BRANCH   3   2
ATOM      1  C   UNL     1       0.654  -0.122  23.486  0.00  0.00    +0.174 C 
ATOM      2  O   UNL     1       0.215  -0.805  23.632  0.00  0.00    -0.347 OA
ENDBRANCH   3   2
ENDBRANCH   4   3
ENDBRANCH   5   4
ENDBRANCH   6   5
ENDBRANCH  12   8
BRANCH  15  17
ATOM     17  C   UNL     1      -4.834   1.654  25.205  0.00  0.00    +0.138 C 
ATOM     18  C   UNL     1      -5.505   1.813  25.659  0.00  0.00    +0.027 C 
ATOM     19  C   UNL     1      -5.502   2.617  25.847  0.00  0.00    +0.019 C 
ATOM     20  C   UNL     1      -4.830   2.954  25.509  0.00  0.00    +0.073 C 
ATOM     21  N   UNL     1      -4.417   2.360  25.113  0.00  0.00    -0.263 NA
BRANCH  21  22
ATOM     22  C   UNL     1      -3.711   2.455  24.697  0.00  0.00    +0.099 C 
BRANCH  22  23
ATOM     23  C   UNL     1      -3.217   3.094  24.863  0.00  0.00    -0.006 A 
ATOM     24  C   UNL     1      -2.624   3.020  25.433  0.00  0.00    -0.003 A 
ATOM     25  C   UNL     1      -2.130   3.659  25.599  0.00  0.00    -0.005 A 
ATOM     26  C   UNL     1      -2.228   4.372  25.196  0.00  0.00    -0.022 A 
ATOM     27  C   UNL     1      -1.734   5.012  25.362  0.00  0.00    +0.031 C 
ATOM     28  C   UNL     1      -2.820   4.446  24.626  0.00  0.00    -0.005 A 
ATOM     29  C   UNL     1      -3.315   3.807  24.460  0.00  0.00    -0.003 A 
ENDBRANCH  22  23
ENDBRANCH  21  22
ENDBRANCH  15  17
TORSDOF 8
ENDMDL
MODEL 4
REMARK VINA RESULT:     -10.6      1.982      4.583
REMARK  Name = 
REMARK  8 active torsions:
REMARK  status: ('A' for Active; 'I' for Inactive)
REMARK    1  A    between atoms: O_2  and  C_3
REMARK    2  A    between atoms: C_3  and  C_4
REMARK    3  A    between atoms: C_4  and  O_5
REMARK    4  A    between atoms: O_5  and  C_6
REMARK    5  A    between atoms: C_8  and  C_12
REMARK    6  A    between atoms: C_15  and  C_17
REMARK    7  A    between atoms: N_21  and  C_22
REMARK    8  A    between atoms: C_22  and  C_23
REMARK                            x       y       z     vdW  Elec       q    Type
REMARK                         _______ _______ _______ _____ _____    ______ ____
ROOT
ATOM     12  C   UNL     1      -0.217   1.714  24.891  0.00  0.00    +0.204 A 
ATOM     13  N   UNL     1       0.184   1.962  25.568  0.00  0.00    -0.056 NA
ATOM     14  O   UNL     1      -0.064   2.729  25.745  0.00  0.00    -0.336 OA
ATOM     15  C   UNL     1      -0.620   2.954  25.178  0.00  0.00    +0.251 A 
ATOM     16  N   UNL     1      -0.714   2.326  24.650  0.00  0.00    -0.190 NA
ENDROOT
BRANCH  12   8
ATOM      6  C   UNL     1      -0.425  -0.417  24.468  0.00  0.00    +0.225 A 
ATOM      7  C   UNL     1      -0.506   0.315  24.838  0.00  0.00    +0.061 A 
ATOM      8  C   UNL     1      -0.136   0.981  24.520  0.00  0.00    +0.045 A 
ATOM      9  C   UNL     1       0.314   0.915  23.833  0.00  0.00    +0.024 A 
ATOM     10  C   UNL     1       0.395   0.182  23.462  0.00  0.00    +0.102 A 
ATOM     11  N   UNL     1       0.026  -0.484  23.779  0.00  0.00    -0.210 NA
BRANCH   6   5
ATOM      5  O   UNL     1      -0.794  -1.084  24.784  0.00  0.00    -0.457 OA
BRANCH   5   4
ATOM      4  C   UNL     1      -1.456  -1.405  24.413  0.00  0.00    +0.239 C 
BRANCH   4   3
ATOM      3  C   UNL     1      -1.861  -2.033  24.763  0.00  0.00    +0.189 C 
BRANCH   3   2
ATOM      1  C   UNL     1      -3.175  -2.594  24.717  0.00  0.00    +0.174 C 
ATOM      2  O   UNL     1      -2.459  -2.421  24.347  0.00  0.00    -0.347 OA
ENDBRANCH   3   2
ENDBRANCH   4   3
ENDBRANCH   5   4
ENDBRANCH   6   5
ENDBRANCH  12   8
BRANCH  15  17
ATOM     17  C   UNL     1      -1.012   3.679  25.144  0.00  0.00    +0.138 C 
ATOM     18  C   UNL     1      -0.677   4.402  24.931  0.00  0.00    +0.027 C 
ATOM     19  C   UNL     1      -1.266   4.978  24.973  0.00  0.00    +0.019 C 
ATOM     20  C   UNL     1      -1.965   4.611  25.212  0.00  0.00    +0.073 C 
ATOM     21  N   UNL     1      -1.808   3.808  25.318  0.00  0.00    -0.263 NA
BRANCH  21  22
ATOM     22  C   UNL     1      -2.352   3.235  25.555  0.00  0.00    +0.099 C 
BRANCH  22  23
ATOM     23  C   UNL     1      -3.160   3.393  25.518  0.00  0.00    -0.006 A 
ATOM     24  C   UNL     1      -3.591   3.185  24.845  0.00  0.00    -0.003 A 
ATOM     25  C   UNL     1      -4.400   3.343  24.808  0.00  0.00    -0.005 A 
ATOM     26  C   UNL     1      -4.778   3.709  25.442  0.00  0.00    -0.022 A 
ATOM     27  C   UNL     1      -5.587   3.868  25.405  0.00  0.00    +0.031 C 
ATOM     28  C   UNL     1      -4.348   3.918  26.115  0.00  0.00    -0.005 A 
ATOM     29  C   UNL     1      -3.539   3.760  26.152  0.00  0.00    -0.003 A 
ENDBRANCH  22  23
ENDBRANCH  21  22
ENDBRANCH  15  17
TORSDOF 8
ENDMDL
