MODEL 1
REMARK VINA RESULT:     -10.9      0.000      0.000
REMARK  Name = 
REMARK  7 active torsions:
REMARK  status: ('A' for Active; 'I' for Inactive)
REMARK    1  A    between atoms: C_2  and  C_4
REMARK    2  A    between atoms: C_4  and  C_5
REMARK    3  A    between atoms: C_4  and  N_12
REMARK    4  A    between atoms: C_5  and  C_6
REMARK    5  A    between atoms: C_13  and  C_15
REMARK    6  A    between atoms: C_21  and  C_23
REMARK    7  A    between atoms: C_28  and  C_30
REMARK                            x       y       z     vdW  Elec       q    Type
REMARK                         _______ _______ _______ _____ _____    ______ ____
ROOT
ATOM     15  C   UNL     1      -2.073   1.023  24.354  0.00  0.00    +0.174 C 
ATOM     16  C   UNL     1      -2.780   0.653  24.566  0.00  0.00    +0.123 C 
ATOM     17  N   UNL     1      -2.846  -0.167  24.516  0.00  0.00    -0.276 N 
ATOM     18  C   UNL     1      -2.207  -0.618  24.255  0.00  0.00    +0.115 C 
ATOM     19  C   UNL     1      -1.501  -0.249  24.043  0.00  0.00    +0.116 C 
ATOM     20  N   UNL     1      -1.433   0.572  24.093  0.00  0.00    -0.266 N 
ATOM     21  C   UNL     1      -0.728   0.942  23.881  0.00  0.00    +0.255 C 
ATOM     22  O   UNL     1      -0.660   1.763  23.930  0.00  0.00    -0.269 OA
ATOM     28  C   UNL     1      -3.553  -0.537  24.729  0.00  0.00    +0.225 C 
ATOM     29  O   UNL     1      -4.193  -0.086  24.990  0.00  0.00    -0.275 OA
ENDROOT
BRANCH  28  30
ATOM     30  C   UNL     1      -3.620  -1.358  24.679  0.00  0.00    +0.080 C 
ATOM     31  C   UNL     1      -3.958  -1.703  24.010  0.00  0.00    +0.028 C 
ATOM     32  C   UNL     1      -4.025  -2.525  23.960  0.00  0.00    +0.089 C 
ATOM     33  N   UNL     1      -3.753  -2.999  24.578  0.00  0.00    -0.218 NA
ATOM     34  C   UNL     1      -3.415  -2.652  25.246  0.00  0.00    +0.089 C 
ATOM     35  C   UNL     1      -3.349  -1.832  25.297  0.00  0.00    +0.028 C 
ENDBRANCH  28  30
BRANCH  21  23
ATOM     23  C   UNL     1      -0.088   0.491  23.619  0.00  0.00    +0.083 A 
ATOM     24  C   UNL     1       0.018   0.197  22.856  0.00  0.00    +0.012 A 
ATOM     25  C   UNL     1       0.730  -0.221  22.840  0.00  0.00    +0.008 A 
ATOM     26  C   UNL     1       1.063  -0.186  23.594  0.00  0.00    +0.036 A 
ATOM     27  S   UNL     1       0.557   0.254  24.076  0.00  0.00    -0.082 S 
ENDBRANCH  21  23
BRANCH  15  13
ATOM     12  N   UNL     1      -2.269   2.238  25.080  0.00  0.00    -0.196 NA
ATOM     13  C   UNL     1      -2.006   1.844  24.404  0.00  0.00    +0.262 C 
ATOM     14  O   UNL     1      -1.678   2.270  23.779  0.00  0.00    -0.271 OA
BRANCH  12   4
ATOM      4  C   UNL     1      -2.202   3.059  25.130  0.00  0.00    +0.174 C 
BRANCH   4   2
ATOM      1  N   UNL     1      -1.180   4.049  25.249  0.00  0.00    -0.086 NA
ATOM      2  C   UNL     1      -1.582   3.398  25.556  0.00  0.00    +0.281 C 
ATOM      3  O   UNL     1      -1.365   3.085  26.288  0.00  0.00    -0.270 OA
ENDBRANCH   4   2
BRANCH   4   5
ATOM      5  C   UNL     1      -2.757   3.541  24.753  0.00  0.00    +0.031 C 
BRANCH   5   6
ATOM      6  C   UNL     1      -3.517   3.614  25.064  0.00  0.00    +0.002 C 
ATOM      7  C   UNL     1      -4.174   3.464  24.587  0.00  0.00    +0.000 C 
ATOM      8  C   UNL     1      -4.935   3.538  24.898  0.00  0.00    +0.000 C 
ATOM      9  C   UNL     1      -5.039   3.761  25.686  0.00  0.00    +0.000 C 
ATOM     10  C   UNL     1      -4.383   3.910  26.162  0.00  0.00    +0.000 C 
ATOM     11  C   UNL     1      -3.622   3.837  25.852  0.00  0.00    +0.000 C 
ENDBRANCH   5   6
ENDBRANCH   4   5
ENDBRANCH  12   4
ENDBRANCH  15  13
TORSDOF 7
ENDMDL
MODEL 2
REMARK VINA RESULT:     -10.8      1.637      4.415
REMARK  Name = 
REMARK  7 active torsions:
REMARK  status: ('A' for Active; 'I' for Inactive)
REMARK    1  A    between atoms: C_2  and  C_4
REMARK    2  A    between atoms: C_4  and  C_5
REMARK    3  A    between atoms: C_4  and  N_12
REMARK    4  A    between atoms: C_5  and  C_6
REMARK    5  A    between atoms: C_13  and  C_15
REMARK    6  A    between atoms: C_21  and  C_23
REMARK    7  A    between atoms: C_28  and  C_30
REMARK                            x       y       z     vdW  Elec       q    Type
REMARK                         _______ _______ _______ _____ _____    ______ ____
ROOT
ATOM     15  C   UNL     1      -2.505   1.179  24.806  0.00  0.00    +0.174 C 
ATOM     16  C   UNL     1      -3.328   1.159  24.871  0.00  0.00    +0.123 C 
ATOM     17  N   UNL     1      -3.743   1.850  25.043  0.00  0.00    -0.276 N 
ATOM     18  C   UNL     1      -3.338   2.561  25.151  0.00  0.00    +0.115 C 
ATOM     19  C   UNL     1      -2.516   2.580  25.086  0.00  0.00    +0.116 C 
ATOM     20  N   UNL     1      -2.099   1.889  24.913  0.00  0.00    -0.266 N 
ATOM     21  C   UNL     1      -1.277   1.908  24.848  0.00  0.00    +0.255 C 
ATOM     22  O   UNL     1      -0.860   1.217  24.675  0.00  0.00    -0.269 OA
ATOM     28  C   UNL     1      -4.566   1.831  25.108  0.00  0.00    +0.225 C 
ATOM     29  O   UNL     1      -4.972   1.120  25.001  0.00  0.00    -0.275 OA
ENDROOT
BRANCH  28  30
ATOM     30  C   UNL     1      -4.982   2.522  25.281  0.00  0.00    +0.080 C 
ATOM     31  C   UNL     1      -5.341   2.613  26.018  0.00  0.00    +0.028 C 
ATOM     32  C   UNL     1      -5.758   3.304  26.191  0.00  0.00    +0.089 C 
ATOM     33  N   UNL     1      -5.814   3.904  25.627  0.00  0.00    -0.218 NA
ATOM     34  C   UNL     1      -5.455   3.812  24.890  0.00  0.00    +0.089 C 
ATOM     35  C   UNL     1      -5.039   3.122  24.717  0.00  0.00    +0.028 C 
ENDBRANCH  28  30
BRANCH  21  23
ATOM     23  C   UNL     1      -0.872   2.618  24.955  0.00  0.00    +0.083 A 
ATOM     24  C   UNL     1      -0.610   2.923  25.675  0.00  0.00    +0.012 A 
ATOM     25  C   UNL     1      -0.233   3.642  25.526  0.00  0.00    +0.008 A 
ATOM     26  C   UNL     1      -0.262   3.782  24.714  0.00  0.00    +0.036 A 
ATOM     27  S   UNL     1      -0.657   3.149  24.360  0.00  0.00    -0.082 S 
ENDBRANCH  21  23
BRANCH  15  13
ATOM     12  N   UNL     1      -2.235  -0.200  25.066  0.00  0.00    -0.196 NA
ATOM     13  C   UNL     1      -2.089   0.488  24.633  0.00  0.00    +0.262 C 
ATOM     14  O   UNL     1      -1.527   0.483  24.029  0.00  0.00    -0.271 OA
BRANCH  12   4
ATOM      4  C   UNL     1      -1.819  -0.891  24.894  0.00  0.00    +0.174 C 
BRANCH   4   2
ATOM      1  N   UNL     1      -0.484  -1.385  25.012  0.00  0.00    -0.086 NA
ATOM      2  C   UNL     1      -1.180  -1.117  25.364  0.00  0.00    +0.281 C 
ATOM      3  O   UNL     1      -1.237  -1.074  26.186  0.00  0.00    -0.270 OA
ENDBRANCH   4   2
BRANCH   4   5
ATOM      5  C   UNL     1      -2.043  -1.358  24.250  0.00  0.00    +0.031 C 
BRANCH   5   6
ATOM      6  C   UNL     1      -2.691  -1.864  24.315  0.00  0.00    +0.002 C 
ATOM      7  C   UNL     1      -3.374  -1.719  23.873  0.00  0.00    +0.000 C 
ATOM      8  C   UNL     1      -4.021  -2.226  23.938  0.00  0.00    +0.000 C 
ATOM      9  C   UNL     1      -3.987  -2.877  24.443  0.00  0.00    +0.000 C 
ATOM     10  C   UNL     1      -3.306  -3.022  24.883  0.00  0.00    +0.000 C 
ATOM     11  C   UNL     1      -2.657  -2.516  24.820  0.00  0.00    +0.000 C 
ENDBRANCH   5   6
ENDBRANCH   4   5
ENDBRANCH  12   4
ENDBRANCH  15  13
TORSDOF 7
ENDMDL
MODEL 3
REMARK VINA RESULT:     -10.5      1.827      4.436
REMARK  Name = 
REMARK  7 active torsions:
REMARK  status: ('A' for Active; 'I' for Inactive)
REMARK    1  A    between atoms: C_2  and  C_4
REMARK    2  A    between atoms: C_4  and  C_5
REMARK    3  A    between atoms: C_4  and  N_12
REMARK    4  A    between atoms: C_5  and  C_6
REMARK    5  A    between atoms: C_13  and  C_15
REMARK    6  A    between atoms: C_21  and  C_23
REMARK    7  A    between atoms: C_28  and  C_30
REMARK                            x       y       z     vdW  Elec       q    Type
REMARK                         _______ _______ _______ _____ _____    ______ ____
ROOT
ATOM     15  C   UNL     1      -1.388   0.740  24.556  0.00  0.00    +0.174 C 
ATOM     16  C   UNL     1      -0.980   0.128  24.180  0.00  0.00    +0.123 C 
ATOM     17  N   UNL     1      -0.242   0.272  23.842  0.00  0.00    -0.276 N 
ATOM     18  C   UNL     1       0.089   1.027  23.878  0.00  0.00    +0.115 C 
ATOM     19  C   UNL     1      -0.318   1.638  24.254  0.00  0.00    +0.116 C 
ATOM     20  N   UNL     1      -1.057   1.495  24.593  0.00  0.00    -0.266 N 
ATOM     21  C   UNL     1      -1.464   2.105  24.968  0.00  0.00    +0.255 C 
ATOM     22  O   UNL     1      -2.203   1.962  25.307  0.00  0.00    -0.269 OA
ATOM     28  C   UNL     1       0.166  -0.340  23.466  0.00  0.00    +0.225 C 
ATOM     29  O   UNL     1      -0.165  -1.094  23.429  0.00  0.00    -0.275 OA
ENDROOT
BRANCH  28  30
ATOM     30  C   UNL     1       0.904  -0.195  23.127  0.00  0.00    +0.080 C 
ATOM     31  C   UNL     1       0.978  -0.148  22.307  0.00  0.00    +0.028 C 
ATOM     32  C   UNL     1       1.717  -0.004  21.968  0.00  0.00    +0.089 C 
ATOM     33  N   UNL     1       2.380   0.093  22.449  0.00  0.00    -0.218 NA
ATOM     34  C   UNL     1       2.305   0.046  23.270  0.00  0.00    +0.089 C 
ATOM     35  C   UNL     1       1.567  -0.098  23.609  0.00  0.00    +0.028 C 
ENDBRANCH  28  30
BRANCH  21  23
ATOM     23  C   UNL     1      -1.133   2.860  25.005  0.00  0.00    +0.083 A 
ATOM     24  C   UNL     1      -0.576   3.119  25.555  0.00  0.00    +0.012 A 
ATOM     25  C   UNL     1      -0.400   3.908  25.388  0.00  0.00    +0.008 A 
ATOM     26  C   UNL     1      -0.849   4.136  24.734  0.00  0.00    +0.036 A 
ATOM     27  S   UNL     1      -1.302   3.489  24.497  0.00  0.00    -0.082 S 
ENDBRANCH  21  23
BRANCH  15  13
ATOM     12  N   UNL     1      -2.726   0.252  24.443  0.00  0.00    -0.196 NA
ATOM     13  C   UNL     1      -2.126   0.596  24.894  0.00  0.00    +0.262 C 
ATOM     14  O   UNL     1      -2.265   0.794  25.683  0.00  0.00    -0.271 OA
BRANCH  12   4
ATOM      4  C   UNL     1      -3.465   0.108  24.781  0.00  0.00    +0.174 C 
BRANCH   4   2
ATOM      1  N   UNL     1      -4.596   0.832  25.267  0.00  0.00    -0.086 NA
ATOM      2  C   UNL     1      -4.089   0.631  24.649  0.00  0.00    +0.281 C 
ATOM      3  O   UNL     1      -4.206   0.951  23.898  0.00  0.00    -0.270 OA
ENDBRANCH   4   2
BRANCH   4   5
ATOM      5  C   UNL     1      -3.578  -0.561  25.253  0.00  0.00    +0.031 C 
BRANCH   5   6
ATOM      6  C   UNL     1      -3.679  -1.300  24.901  0.00  0.00    +0.002 C 
ATOM      7  C   UNL     1      -3.323  -1.966  25.234  0.00  0.00    +0.000 C 
ATOM      8  C   UNL     1      -3.424  -2.706  24.883  0.00  0.00    +0.000 C 
ATOM      9  C   UNL     1      -3.880  -2.780  24.199  0.00  0.00    +0.000 C 
ATOM     10  C   UNL     1      -4.235  -2.114  23.867  0.00  0.00    +0.000 C 
ATOM     11  C   UNL     1      -4.135  -1.374  24.218  0.00  0.00    +0.000 C 
ENDBRANCH   5   6
ENDBRANCH   4   5
ENDBRANCH  12   4
ENDBRANCH  15  13
TORSDOF 7
ENDMDL
MODEL 4
REMARK VINA RESULT:     -10.3      1.820      3.750
REMARK  Name = 
REMARK  7 active torsions:
REMARK  status: ('A' for Active; 'I' for Inactive)
REMARK    1  A    between atoms: C_2  and  C_4
REMARK    2  A    between atoms: C_4  and  C_5
REMARK    3  A    between atoms: C_4  and  N_12
REMARK    4  A    between atoms: C_5  and  C_6
REMARK    5  A    between atoms: C_13  and  C_15
REMARK    6  A    between atoms: C_21  and  C_23
REMARK    7  A    between atoms: C_28  and  C_30
REMARK                            x       y       z     vdW  Elec       q    Type
REMARK                         _______ _______ _______ _____ _____    ______ ____
ROOT
ATOM     15  C   UNL     1      -2.751   0.573  24.905  0.00  0.00    +0.174 C 
ATOM     16  C   UNL     1      -3.178   1.270  25.021  0.00  0.00    +0.123 C 
ATOM     17  N   UNL     1      -4.000   1.244  25.084  0.00  0.00    -0.276 N 
ATOM     18  C   UNL     1      -4.395   0.522  25.031  0.00  0.00    +0.115 C 
ATOM     19  C   UNL     1      -3.969  -0.174  24.915  0.00  0.00    +0.116 C 
ATOM     20  N   UNL     1      -3.147  -0.149  24.852  0.00  0.00    -0.266 N 
ATOM     21  C   UNL     1      -2.720  -0.845  24.736  0.00  0.00    +0.255 C 
ATOM     22  O   UNL     1      -1.898  -0.821  24.673  0.00  0.00    -0.269 OA
ATOM     28  C   UNL     1      -4.426   1.941  25.199  0.00  0.00    +0.225 C 
ATOM     29  O   UNL     1      -4.031   2.663  25.252  0.00  0.00    -0.275 OA
ENDROOT
BRANCH  28  30
ATOM     30  C   UNL     1      -5.248   1.915  25.262  0.00  0.00    +0.080 C 
ATOM     31  C   UNL     1      -5.604   1.909  26.007  0.00  0.00    +0.028 C 
ATOM     32  C   UNL     1      -6.427   1.883  26.070  0.00  0.00    +0.089 C 
ATOM     33  N   UNL     1      -6.893   1.863  25.390  0.00  0.00    -0.218 NA
ATOM     34  C   UNL     1      -6.536   1.869  24.646  0.00  0.00    +0.089 C 
ATOM     35  C   UNL     1      -5.714   1.895  24.582  0.00  0.00    +0.028 C 
ENDBRANCH  28  30
BRANCH  21  23
ATOM     23  C   UNL     1      -3.116  -1.567  24.684  0.00  0.00    +0.083 A 
ATOM     24  C   UNL     1      -3.540  -1.841  24.032  0.00  0.00    +0.012 A 
ATOM     25  C   UNL     1      -3.843  -2.586  24.219  0.00  0.00    +0.008 A 
ATOM     26  C   UNL     1      -3.606  -2.772  24.987  0.00  0.00    +0.036 A 
ATOM     27  S   UNL     1      -3.157  -2.142  25.274  0.00  0.00    -0.082 S 
ENDBRANCH  21  23
BRANCH  15  13
ATOM     12  N   UNL     1      -1.570   1.165  24.360  0.00  0.00    -0.196 NA
ATOM     13  C   UNL     1      -1.929   0.599  24.842  0.00  0.00    +0.262 C 
ATOM     14  O   UNL     1      -1.465   0.059  25.260  0.00  0.00    -0.271 OA
BRANCH  12   4
ATOM      4  C   UNL     1      -0.748   1.191  24.297  0.00  0.00    +0.174 C 
BRANCH   4   2
ATOM      1  N   UNL     1       0.303   0.361  23.800  0.00  0.00    -0.086 NA
ATOM      2  C   UNL     1      -0.370   0.817  23.666  0.00  0.00    +0.281 C 
ATOM      3  O   UNL     1      -0.666   0.901  22.900  0.00  0.00    -0.270 OA
ENDBRANCH   4   2
BRANCH   4   5
ATOM      5  C   UNL     1      -0.304   1.591  24.866  0.00  0.00    +0.031 C 
BRANCH   5   6
ATOM      6  C   UNL     1      -0.346   2.413  24.917  0.00  0.00    +0.002 C 
ATOM      7  C   UNL     1      -0.436   2.776  25.654  0.00  0.00    +0.000 C 
ATOM      8  C   UNL     1      -0.478   3.598  25.705  0.00  0.00    +0.000 C 
ATOM      9  C   UNL     1      -0.430   4.058  25.022  0.00  0.00    +0.000 C 
ATOM     10  C   UNL     1      -0.340   3.696  24.287  0.00  0.00    +0.000 C 
ATOM     11  C   UNL     1      -0.298   2.873  24.234  0.00  0.00    +0.000 C 
ENDBRANCH   5   6
ENDBRANCH   4   5
ENDBRANCH  12   4
ENDBRANCH  15  13
TORSDOF 7
ENDMDL
MODEL 5
REMARK VINA RESULT:     -10.1      1.881      3.666
REMARK  Name = 
REMARK  7 active torsions:
REMARK  status: ('A' for Active; 'I' for Inactive)
REMARK    1  A    between atoms: C_2  and  C_4
REMARK    2  A    between atoms: C_4  and  C_5
REMARK    3  A    between atoms: C_4  and  N_12
REMARK    4  A    between atoms: C_5  and  C_6
REMARK    5  A    between atoms: C_13  and  C_15
REMARK    6  A    between atoms: C_21  and  C_23
REMARK    7  A    between atoms: C_28  and  C_30
REMARK                            x       y       z     vdW  Elec       q    Type
REMARK                         _______ _______ _______ _____ _____    ______ ____
ROOT
ATOM     15  C   UNL     1      -3.374   1.534  24.796  0.00  0.00    +0.174 C 
ATOM     16  C   UNL     1      -2.916   0.857  24.679  0.00  0.00    +0.123 C 
ATOM     17  N   UNL     1      -3.271   0.112  24.700  0.00  0.00    -0.276 N 
ATOM     18  C   UNL     1      -4.081   0.044  24.838  0.00  0.00    +0.115 C 
ATOM     19  C   UNL     1      -4.537   0.721  24.955  0.00  0.00    +0.116 C 
ATOM     20  N   UNL     1      -4.184   1.466  24.934  0.00  0.00    -0.266 N 
ATOM     21  C   UNL     1      -4.641   2.143  25.051  0.00  0.00    +0.255 C 
ATOM     22  O   UNL     1      -4.287   2.888  25.030  0.00  0.00    -0.269 OA
ATOM     28  C   UNL     1      -2.813  -0.565  24.583  0.00  0.00    +0.225 C 
ATOM     29  O   UNL     1      -2.003  -0.497  24.444  0.00  0.00    -0.275 OA
ENDROOT
BRANCH  28  30
ATOM     30  C   UNL     1      -3.168  -1.310  24.604  0.00  0.00    +0.080 C 
ATOM     31  C   UNL     1      -3.122  -1.768  25.288  0.00  0.00    +0.028 C 
ATOM     32  C   UNL     1      -3.476  -2.513  25.310  0.00  0.00    +0.089 C 
ATOM     33  N   UNL     1      -3.876  -2.799  24.647  0.00  0.00    -0.218 NA
ATOM     34  C   UNL     1      -3.921  -2.340  23.963  0.00  0.00    +0.089 C 
ATOM     35  C   UNL     1      -3.567  -1.596  23.941  0.00  0.00    +0.028 C 
ENDBRANCH  28  30
BRANCH  21  23
ATOM     23  C   UNL     1      -5.451   2.075  25.189  0.00  0.00    +0.083 A 
ATOM     24  C   UNL     1      -6.027   1.907  24.623  0.00  0.00    +0.012 A 
ATOM     25  C   UNL     1      -6.760   1.891  25.002  0.00  0.00    +0.008 A 
ATOM     26  C   UNL     1      -6.637   2.049  25.802  0.00  0.00    +0.036 A 
ATOM     27  S   UNL     1      -5.828   2.163  25.918  0.00  0.00    -0.082 S 
ENDBRANCH  21  23
BRANCH  15  13
ATOM     12  N   UNL     1      -2.425   2.468  25.315  0.00  0.00    -0.196 NA
ATOM     13  C   UNL     1      -3.020   2.279  24.775  0.00  0.00    +0.262 C 
ATOM     14  O   UNL     1      -3.259   2.835  24.214  0.00  0.00    -0.271 OA
BRANCH  12   4
ATOM      4  C   UNL     1      -2.071   3.213  25.294  0.00  0.00    +0.174 C 
BRANCH   4   2
ATOM      1  N   UNL     1      -2.471   4.572  25.475  0.00  0.00    -0.086 NA
ATOM      2  C   UNL     1      -2.349   3.817  25.782  0.00  0.00    +0.281 C 
ATOM      3  O   UNL     1      -2.505   3.664  26.578  0.00  0.00    -0.270 OA
ENDBRANCH   4   2
BRANCH   4   5
ATOM      5  C   UNL     1      -1.437   3.353  24.784  0.00  0.00    +0.031 C 
BRANCH   5   6
ATOM      6  C   UNL     1      -0.715   2.976  24.911  0.00  0.00    +0.002 C 
ATOM      7  C   UNL     1      -0.302   2.650  24.274  0.00  0.00    +0.000 C 
ATOM      8  C   UNL     1       0.420   2.273  24.401  0.00  0.00    +0.000 C 
ATOM      9  C   UNL     1       0.731   2.222  25.164  0.00  0.00    +0.000 C 
ATOM     10  C   UNL     1       0.319   2.547  25.799  0.00  0.00    +0.000 C 
ATOM     11  C   UNL     1      -0.404   2.925  25.674  0.00  0.00    +0.000 C 
ENDBRANCH   5   6
ENDBRANCH   4   5
ENDBRANCH  12   4
ENDBRANCH  15  13
TORSDOF 7
ENDMDL
MODEL 6
REMARK VINA RESULT:      -9.6      1.878      5.529
REMARK  Name = 
REMARK  7 active torsions:
REMARK  status: ('A' for Active; 'I' for Inactive)
REMARK    1  A    between atoms: C_2  and  C_4
REMARK    2  A    between atoms: C_4  and  C_5
REMARK    3  A    between atoms: C_4  and  N_12
REMARK    4  A    between atoms: C_5  and  C_6
REMARK    5  A    between atoms: C_13  and  C_15
REMARK    6  A    between atoms: C_21  and  C_23
REMARK    7  A    between atoms: C_28  and  C_30
REMARK                            x       y       z     vdW  Elec       q    Type
REMARK                         _______ _______ _______ _____ _____    ______ ____
ROOT
ATOM     15  C   UNL     1      -3.223   1.120  24.977  0.00  0.00    +0.174 C 
ATOM     16  C   UNL     1      -2.420   1.292  24.892  0.00  0.00    +0.123 C 
ATOM     17  N   UNL     1      -2.165   2.077  24.895  0.00  0.00    -0.276 N 
ATOM     18  C   UNL     1      -2.711   2.689  24.982  0.00  0.00    +0.115 C 
ATOM     19  C   UNL     1      -3.512   2.517  25.068  0.00  0.00    +0.116 C 
ATOM     20  N   UNL     1      -3.769   1.733  25.065  0.00  0.00    -0.266 N 
ATOM     21  C   UNL     1      -4.571   1.560  25.150  0.00  0.00    +0.255 C 
ATOM     22  O   UNL     1      -4.828   0.776  25.148  0.00  0.00    -0.269 OA
ATOM     28  C   UNL     1      -1.362   2.249  24.809  0.00  0.00    +0.225 C 
ATOM     29  O   UNL     1      -0.816   1.637  24.721  0.00  0.00    -0.275 OA
ENDROOT
BRANCH  28  30
ATOM     30  C   UNL     1      -1.106   3.033  24.812  0.00  0.00    +0.080 C 
ATOM     31  C   UNL     1      -1.031   3.439  25.526  0.00  0.00    +0.028 C 
ATOM     32  C   UNL     1      -0.775   4.224  25.529  0.00  0.00    +0.089 C 
ATOM     33  N   UNL     1      -0.595   4.602  24.818  0.00  0.00    -0.218 NA
ATOM     34  C   UNL     1      -0.670   4.195  24.104  0.00  0.00    +0.089 C 
ATOM     35  C   UNL     1      -0.926   3.411  24.101  0.00  0.00    +0.028 C 
ENDBRANCH  28  30
BRANCH  21  23
ATOM     23  C   UNL     1      -5.117   2.173  25.238  0.00  0.00    +0.083 A 
ATOM     24  C   UNL     1      -5.446   2.621  24.629  0.00  0.00    +0.012 A 
ATOM     25  C   UNL     1      -5.962   3.169  24.965  0.00  0.00    +0.008 A 
ATOM     26  C   UNL     1      -5.953   3.060  25.783  0.00  0.00    +0.036 A 
ATOM     27  S   UNL     1      -5.431   2.444  25.952  0.00  0.00    -0.082 S 
ENDBRANCH  21  23
BRANCH  15  13
ATOM     12  N   UNL     1      -3.164  -0.198  24.430  0.00  0.00    -0.196 NA
ATOM     13  C   UNL     1      -3.479   0.336  24.975  0.00  0.00    +0.262 C 
ATOM     14  O   UNL     1      -4.048   0.086  25.516  0.00  0.00    -0.271 OA
BRANCH  12   4
ATOM      4  C   UNL     1      -3.420  -0.982  24.427  0.00  0.00    +0.174 C 
BRANCH   4   2
ATOM      1  N   UNL     1      -4.569  -1.751  24.070  0.00  0.00    -0.086 NA
ATOM      2  C   UNL     1      -3.959  -1.239  23.858  0.00  0.00    +0.281 C 
ATOM      3  O   UNL     1      -3.887  -0.983  23.077  0.00  0.00    -0.270 OA
ENDBRANCH   4   2
BRANCH   4   5
ATOM      5  C   UNL     1      -3.135  -1.510  24.995  0.00  0.00    +0.031 C 
BRANCH   5   6
ATOM      6  C   UNL     1      -2.396  -1.862  24.896  0.00  0.00    +0.002 C 
ATOM      7  C   UNL     1      -1.752  -1.601  25.342  0.00  0.00    +0.000 C 
ATOM      8  C   UNL     1      -1.013  -1.953  25.243  0.00  0.00    +0.000 C 
ATOM      9  C   UNL     1      -0.917  -2.566  24.699  0.00  0.00    +0.000 C 
ATOM     10  C   UNL     1      -1.560  -2.827  24.254  0.00  0.00    +0.000 C 
ATOM     11  C   UNL     1      -2.300  -2.475  24.352  0.00  0.00    +0.000 C 
ENDBRANCH   5   6
ENDBRANCH   4   5
ENDBRANCH  12   4
ENDBRANCH  15  13
TORSDOF 7
ENDMDL
