MODEL 1
REMARK VINA RESULT:     -14.6      0.000      0.000
REMARK  Name = 
REMARK  7 active torsions:
REMARK  status: ('A' for Active; 'I' for Inactive)
REMARK    1  A    between atoms: C_2  and  C_3
REMARK    2  A    between atoms: C_8  and  C_9
REMARK    3  A    between atoms: C_9  and  C_10
REMARK    4  A    between atoms: N_12  and  C_13
REMARK    5  A    between atoms: C_13  and  C_14
REMARK    6  A    between atoms: N_26  and  C_27
REMARK    7  A    between atoms: C_29  and  C_33
REMARK                            x       y       z     vdW  Elec       q    Type
REMARK                         _______ _______ _______ _____ _____    ______ ____
ROOT
ATOM      3  C   UNL     1      -4.068   1.942  23.971  0.00  0.00    +0.020 C 
ATOM      4  C   UNL     1      -3.996   1.121  23.996  0.00  0.00    +0.095 C 
ATOM      5  N   UNL     1      -4.228   0.706  24.671  0.00  0.00    -0.263 N 
ATOM      6  C   UNL     1      -4.532   1.115  25.320  0.00  0.00    +0.095 C 
ATOM      7  C   UNL     1      -4.604   1.936  25.295  0.00  0.00    +0.022 C 
ATOM      8  C   UNL     1      -4.372   2.349  24.620  0.00  0.00    +0.012 C 
ATOM     24  C   UNL     1      -4.156  -0.115  24.696  0.00  0.00    +0.327 C 
ATOM     25  O   UNL     1      -4.388  -0.529  25.371  0.00  0.00    -0.250 OA
ATOM     26  N   UNL     1      -3.852  -0.523  24.047  0.00  0.00    -0.162 NA
ENDROOT
BRANCH  26  27
ATOM     27  C   UNL     1      -3.779  -1.345  24.073  0.00  0.00    +0.075 A 
ATOM     28  C   UNL     1      -3.075  -1.689  24.332  0.00  0.00    +0.021 A 
ATOM     29  C   UNL     1      -3.003  -2.510  24.357  0.00  0.00    +0.073 A 
ATOM     30  C   UNL     1      -3.635  -2.987  24.123  0.00  0.00    +0.004 A 
ATOM     31  C   UNL     1      -4.338  -2.643  23.865  0.00  0.00    +0.001 A 
ATOM     32  C   UNL     1      -4.410  -1.821  23.839  0.00  0.00    +0.017 A 
BRANCH  29  33
ATOM     33  C   UNL     1      -2.300  -2.854  24.616  0.00  0.00    +0.419 C 
ATOM     34  F   UNL     1      -1.596  -3.199  24.875  0.00  0.00    -0.166 F 
ATOM     35  F   UNL     1      -1.966  -2.732  23.871  0.00  0.00    -0.166 F 
ATOM     36  F   UNL     1      -2.633  -2.977  25.360  0.00  0.00    -0.166 F 
ENDBRANCH  29  33
ENDBRANCH  26  27
BRANCH   3   2
ATOM      1  C   UNL     1      -3.285   2.023  22.778  0.00  0.00    +0.000 C 
ATOM      2  C   UNL     1      -3.836   2.355  23.296  0.00  0.00    +0.002 C 
ENDBRANCH   3   2
BRANCH   8   9
ATOM      9  C   UNL     1      -4.444   3.171  24.595  0.00  0.00    +0.087 C 
BRANCH   9  10
ATOM     10  C   UNL     1      -4.016   3.639  25.121  0.00  0.00    +0.242 C 
ATOM     11  O   UNL     1      -4.393   3.976  25.774  0.00  0.00    -0.273 OA
ATOM     12  N   UNL     1      -3.212   3.772  24.996  0.00  0.00    -0.201 NA
BRANCH  12  13
ATOM     13  C   UNL     1      -2.784   4.241  25.523  0.00  0.00    +0.141 C 
BRANCH  13  14
ATOM     14  C   UNL     1      -2.019   4.484  25.332  0.00  0.00    -0.001 A 
ATOM     15  C   UNL     1      -1.898   5.212  24.963  0.00  0.00    -0.003 A 
ATOM     16  C   UNL     1      -1.132   5.455  24.772  0.00  0.00    -0.000 A 
ATOM     17  C   UNL     1      -0.489   4.970  24.949  0.00  0.00    -0.000 A 
ATOM     18  C   UNL     1      -0.610   4.241  25.318  0.00  0.00    -0.000 A 
ATOM     19  C   UNL     1      -1.376   3.998  25.510  0.00  0.00    -0.002 A 
ATOM     20  C   UNL     1      -1.497   3.271  25.878  0.00  0.00    -0.000 A 
ATOM     21  C   UNL     1      -0.854   2.786  26.055  0.00  0.00    -0.000 A 
ATOM     22  C   UNL     1      -0.089   3.029  25.864  0.00  0.00    -0.000 A 
ATOM     23  C   UNL     1       0.033   3.757  25.495  0.00  0.00    -0.000 A 
ENDBRANCH  13  14
ENDBRANCH  12  13
ENDBRANCH   9  10
ENDBRANCH   8   9
TORSDOF 7
ENDMDL
MODEL 2
REMARK VINA RESULT:     -13.9      2.161      2.924
REMARK  Name = 
REMARK  7 active torsions:
REMARK  status: ('A' for Active; 'I' for Inactive)
REMARK    1  A    between atoms: C_2  and  C_3
REMARK    2  A    between atoms: C_8  and  C_9
REMARK    3  A    between atoms: C_9  and  C_10
REMARK    4  A    between atoms: N_12  and  C_13
REMARK    5  A    between atoms: C_13  and  C_14
REMARK    6  A    between atoms: N_26  and  C_27
REMARK    7  A    between atoms: C_29  and  C_33
REMARK                            x       y       z     vdW  Elec       q    Type
REMARK                         _______ _______ _______ _____ _____    ______ ____
ROOT
ATOM      3  C   UNL     1      -0.379   0.565  24.337  0.00  0.00    +0.020 C 
ATOM      4  C   UNL     1      -0.919  -0.058  24.360  0.00  0.00    +0.095 C 
ATOM      5  N   UNL     1      -1.339  -0.215  25.052  0.00  0.00    -0.263 N 
ATOM      6  C   UNL     1      -1.218   0.251  25.721  0.00  0.00    +0.095 C 
ATOM      7  C   UNL     1      -0.677   0.874  25.699  0.00  0.00    +0.022 C 
ATOM      8  C   UNL     1      -0.258   1.031  25.006  0.00  0.00    +0.012 C 
ATOM     24  C   UNL     1      -1.879  -0.838  25.075  0.00  0.00    +0.327 C 
ATOM     25  O   UNL     1      -2.299  -0.995  25.767  0.00  0.00    -0.250 OA
ATOM     26  N   UNL     1      -2.001  -1.304  24.405  0.00  0.00    -0.162 NA
ENDROOT
BRANCH  26  27
ATOM     27  C   UNL     1      -2.541  -1.927  24.428  0.00  0.00    +0.075 A 
ATOM     28  C   UNL     1      -3.295  -1.831  24.107  0.00  0.00    +0.021 A 
ATOM     29  C   UNL     1      -3.836  -2.454  24.130  0.00  0.00    +0.073 A 
ATOM     30  C   UNL     1      -3.621  -3.173  24.474  0.00  0.00    +0.004 A 
ATOM     31  C   UNL     1      -2.868  -3.269  24.795  0.00  0.00    +0.001 A 
ATOM     32  C   UNL     1      -2.328  -2.646  24.772  0.00  0.00    +0.017 A 
BRANCH  29  33
ATOM     33  C   UNL     1      -4.589  -2.357  23.810  0.00  0.00    +0.419 C 
ATOM     34  F   UNL     1      -5.344  -2.261  23.489  0.00  0.00    -0.166 F 
ATOM     35  F   UNL     1      -4.696  -1.677  24.264  0.00  0.00    -0.166 F 
ATOM     36  F   UNL     1      -4.483  -3.038  23.355  0.00  0.00    -0.166 F 
ENDBRANCH  29  33
ENDBRANCH  26  27
BRANCH   3   2
ATOM      1  C   UNL     1       0.388   0.102  23.223  0.00  0.00    +0.000 C 
ATOM      2  C   UNL     1       0.041   0.721  23.643  0.00  0.00    +0.002 C 
ENDBRANCH   3   2
BRANCH   8   9
ATOM      9  C   UNL     1       0.282   1.654  24.983  0.00  0.00    +0.087 C 
BRANCH   9  10
ATOM     10  C   UNL     1       0.159   2.324  25.447  0.00  0.00    +0.242 C 
ATOM     11  O   UNL     1       0.539   2.396  26.177  0.00  0.00    -0.273 OA
ATOM     12  N   UNL     1      -0.342   2.923  25.183  0.00  0.00    -0.201 NA
BRANCH  12  13
ATOM     13  C   UNL     1      -0.465   3.594  25.648  0.00  0.00    +0.141 C 
BRANCH  13  14
ATOM     14  C   UNL     1      -0.877   4.239  25.341  0.00  0.00    -0.001 A 
ATOM     15  C   UNL     1      -0.503   4.758  24.820  0.00  0.00    -0.003 A 
ATOM     16  C   UNL     1      -0.916   5.403  24.513  0.00  0.00    -0.000 A 
ATOM     17  C   UNL     1      -1.703   5.529  24.727  0.00  0.00    -0.000 A 
ATOM     18  C   UNL     1      -2.078   5.009  25.247  0.00  0.00    -0.000 A 
ATOM     19  C   UNL     1      -1.665   4.364  25.555  0.00  0.00    -0.002 A 
ATOM     20  C   UNL     1      -2.039   3.845  26.075  0.00  0.00    -0.000 A 
ATOM     21  C   UNL     1      -2.825   3.970  26.288  0.00  0.00    -0.000 A 
ATOM     22  C   UNL     1      -3.238   4.616  25.980  0.00  0.00    -0.000 A 
ATOM     23  C   UNL     1      -2.864   5.135  25.460  0.00  0.00    -0.000 A 
ENDBRANCH  13  14
ENDBRANCH  12  13
ENDBRANCH   9  10
ENDBRANCH   8   9
TORSDOF 7
ENDMDL
MODEL 3
REMARK VINA RESULT:     -13.8      4.229      6.484
REMARK  Name = 
REMARK  7 active torsions:
REMARK  status: ('A' for Active; 'I' for Inactive)
REMARK    1  A    between atoms: C_2  and  C_3
REMARK    2  A    between atoms: C_8  and  C_9
REMARK    3  A    between atoms: C_9  and  C_10
REMARK    4  A    between atoms: N_12  and  C_13
REMARK    5  A    between atoms: C_13  and  C_14
REMARK    6  A    between atoms: N_26  and  C_27
REMARK    7  A    between atoms: C_29  and  C_33
REMARK                            x       y       z     vdW  Elec       q    Type
REMARK                         _______ _______ _______ _____ _____    ______ ____
ROOT
ATOM      3  C   UNL     1       0.292   1.505  24.288  0.00  0.00    +0.020 C 
ATOM      4  C   UNL     1       1.030   1.324  23.968  0.00  0.00    +0.095 C 
ATOM      5  N   UNL     1       1.148   0.604  23.583  0.00  0.00    -0.263 N 
ATOM      6  C   UNL     1       0.526   0.065  23.520  0.00  0.00    +0.095 C 
ATOM      7  C   UNL     1      -0.212   0.246  23.840  0.00  0.00    +0.022 C 
ATOM      8  C   UNL     1      -0.329   0.966  24.224  0.00  0.00    +0.012 C 
ATOM     24  C   UNL     1       1.886   0.422  23.263  0.00  0.00    +0.327 C 
ATOM     25  O   UNL     1       2.004  -0.298  22.878  0.00  0.00    -0.250 OA
ATOM     26  N   UNL     1       2.507   0.961  23.327  0.00  0.00    -0.162 NA
ENDROOT
BRANCH  26  27
ATOM     27  C   UNL     1       3.246   0.780  23.006  0.00  0.00    +0.075 A 
ATOM     28  C   UNL     1       3.870   0.570  23.503  0.00  0.00    +0.021 A 
ATOM     29  C   UNL     1       4.608   0.388  23.183  0.00  0.00    +0.073 A 
ATOM     30  C   UNL     1       4.721   0.417  22.366  0.00  0.00    +0.004 A 
ATOM     31  C   UNL     1       4.097   0.627  21.870  0.00  0.00    +0.001 A 
ATOM     32  C   UNL     1       3.359   0.808  22.190  0.00  0.00    +0.017 A 
BRANCH  29  33
ATOM     33  C   UNL     1       5.233   0.179  23.679  0.00  0.00    +0.419 C 
ATOM     34  F   UNL     1       5.858  -0.031  24.176  0.00  0.00    -0.166 F 
ATOM     35  F   UNL     1       5.398   0.977  23.809  0.00  0.00    -0.166 F 
ATOM     36  F   UNL     1       5.069  -0.619  23.550  0.00  0.00    -0.166 F 
ENDBRANCH  29  33
ENDBRANCH  26  27
BRANCH   3   2
ATOM      1  C   UNL     1       0.337   2.933  24.280  0.00  0.00    +0.000 C 
ATOM      2  C   UNL     1       0.175   2.226  24.672  0.00  0.00    +0.002 C 
ENDBRANCH   3   2
BRANCH   8   9
ATOM      9  C   UNL     1      -1.067   1.148  24.544  0.00  0.00    +0.087 C 
BRANCH   9  10
ATOM     10  C   UNL     1      -1.501   0.566  24.937  0.00  0.00    +0.242 C 
ATOM     11  O   UNL     1      -1.253   0.295  25.676  0.00  0.00    -0.273 OA
ATOM     12  N   UNL     1      -2.183   0.257  24.592  0.00  0.00    -0.201 NA
BRANCH  12  13
ATOM     13  C   UNL     1      -2.617  -0.325  24.985  0.00  0.00    +0.141 C 
BRANCH  13  14
ATOM     14  C   UNL     1      -3.299  -0.635  24.639  0.00  0.00    -0.001 A 
ATOM     15  C   UNL     1      -3.890  -0.128  24.367  0.00  0.00    -0.003 A 
ATOM     16  C   UNL     1      -4.573  -0.438  24.021  0.00  0.00    -0.000 A 
ATOM     17  C   UNL     1      -4.663  -1.255  23.948  0.00  0.00    -0.000 A 
ATOM     18  C   UNL     1      -4.072  -1.763  24.221  0.00  0.00    -0.000 A 
ATOM     19  C   UNL     1      -3.389  -1.452  24.567  0.00  0.00    -0.002 A 
ATOM     20  C   UNL     1      -2.798  -1.959  24.839  0.00  0.00    -0.000 A 
ATOM     21  C   UNL     1      -2.889  -2.775  24.766  0.00  0.00    -0.000 A 
ATOM     22  C   UNL     1      -3.572  -3.085  24.420  0.00  0.00    -0.000 A 
ATOM     23  C   UNL     1      -4.162  -2.579  24.148  0.00  0.00    -0.000 A 
ENDBRANCH  13  14
ENDBRANCH  12  13
ENDBRANCH   9  10
ENDBRANCH   8   9
TORSDOF 7
ENDMDL
MODEL 4
REMARK VINA RESULT:     -13.4      4.201      5.873
REMARK  Name = 
REMARK  7 active torsions:
REMARK  status: ('A' for Active; 'I' for Inactive)
REMARK    1  A    between atoms: C_2  and  C_3
REMARK    2  A    between atoms: C_8  and  C_9
REMARK    3  A    between atoms: C_9  and  C_10
REMARK    4  A    between atoms: N_12  and  C_13
REMARK    5  A    between atoms: C_13  and  C_14
REMARK    6  A    between atoms: N_26  and  C_27
REMARK    7  A    between atoms: C_29  and  C_33
REMARK                            x       y       z     vdW  Elec       q    Type
REMARK                         _______ _______ _______ _____ _____    ______ ____
ROOT
ATOM      3  C   UNL     1      -0.126  -0.113  23.847  0.00  0.00    +0.020 C 
ATOM      4  C   UNL     1       0.664  -0.012  23.633  0.00  0.00    +0.095 C 
ATOM      5  N   UNL     1       0.996   0.743  23.621  0.00  0.00    -0.263 N 
ATOM      6  C   UNL     1       0.537   1.397  23.824  0.00  0.00    +0.095 C 
ATOM      7  C   UNL     1      -0.253   1.297  24.038  0.00  0.00    +0.022 C 
ATOM      8  C   UNL     1      -0.585   0.542  24.050  0.00  0.00    +0.012 C 
ATOM     24  C   UNL     1       1.787   0.843  23.407  0.00  0.00    +0.327 C 
ATOM     25  O   UNL     1       2.119   1.598  23.395  0.00  0.00    -0.250 OA
ATOM     26  N   UNL     1       2.246   0.188  23.204  0.00  0.00    -0.162 NA
ENDROOT
BRANCH  26  27
ATOM     27  C   UNL     1       3.036   0.288  22.990  0.00  0.00    +0.075 A 
ATOM     28  C   UNL     1       3.636   0.060  23.508  0.00  0.00    +0.021 A 
ATOM     29  C   UNL     1       4.426   0.160  23.294  0.00  0.00    +0.073 A 
ATOM     30  C   UNL     1       4.616   0.489  22.561  0.00  0.00    +0.004 A 
ATOM     31  C   UNL     1       4.016   0.717  22.044  0.00  0.00    +0.001 A 
ATOM     32  C   UNL     1       3.226   0.617  22.258  0.00  0.00    +0.017 A 
BRANCH  29  33
ATOM     33  C   UNL     1       5.025  -0.069  23.812  0.00  0.00    +0.419 C 
ATOM     34  F   UNL     1       5.626  -0.297  24.331  0.00  0.00    -0.166 F 
ATOM     35  F   UNL     1       5.201   0.724  23.959  0.00  0.00    -0.166 F 
ATOM     36  F   UNL     1       4.851  -0.861  23.666  0.00  0.00    -0.166 F 
ENDBRANCH  29  33
ENDBRANCH  26  27
BRANCH   3   2
ATOM      1  C   UNL     1      -0.136  -1.452  24.345  0.00  0.00    +0.000 C 
ATOM      2  C   UNL     1      -0.458  -0.868  23.859  0.00  0.00    +0.002 C 
ENDBRANCH   3   2
BRANCH   8   9
ATOM      9  C   UNL     1      -1.375   0.442  24.264  0.00  0.00    +0.087 C 
BRANCH   9  10
ATOM     10  C   UNL     1      -1.927   1.030  24.092  0.00  0.00    +0.242 C 
ATOM     11  O   UNL     1      -1.796   1.547  23.462  0.00  0.00    -0.273 OA
ATOM     12  N   UNL     1      -2.609   1.101  24.549  0.00  0.00    -0.201 NA
BRANCH  12  13
ATOM     13  C   UNL     1      -3.162   1.690  24.376  0.00  0.00    +0.141 C 
BRANCH  13  14
ATOM     14  C   UNL     1      -3.920   1.652  24.698  0.00  0.00    -0.001 A 
ATOM     15  C   UNL     1      -4.292   0.921  24.790  0.00  0.00    -0.003 A 
ATOM     16  C   UNL     1      -5.052   0.882  25.113  0.00  0.00    -0.000 A 
ATOM     17  C   UNL     1      -5.437   1.574  25.343  0.00  0.00    -0.000 A 
ATOM     18  C   UNL     1      -5.065   2.305  25.251  0.00  0.00    -0.000 A 
ATOM     19  C   UNL     1      -4.306   2.344  24.929  0.00  0.00    -0.002 A 
ATOM     20  C   UNL     1      -3.934   3.074  24.837  0.00  0.00    -0.000 A 
ATOM     21  C   UNL     1      -4.320   3.765  25.067  0.00  0.00    -0.000 A 
ATOM     22  C   UNL     1      -5.079   3.726  25.390  0.00  0.00    -0.000 A 
ATOM     23  C   UNL     1      -5.451   2.996  25.482  0.00  0.00    -0.000 A 
ENDBRANCH  13  14
ENDBRANCH  12  13
ENDBRANCH   9  10
ENDBRANCH   8   9
TORSDOF 7
ENDMDL
MODEL 5
REMARK VINA RESULT:     -12.5      4.402      5.436
REMARK  Name = 
REMARK  7 active torsions:
REMARK  status: ('A' for Active; 'I' for Inactive)
REMARK    1  A    between atoms: C_2  and  C_3
REMARK    2  A    between atoms: C_8  and  C_9
REMARK    3  A    between atoms: C_9  and  C_10
REMARK    4  A    between atoms: N_12  and  C_13
REMARK    5  A    between atoms: C_13  and  C_14
REMARK    6  A    between atoms: N_26  and  C_27
REMARK    7  A    between atoms: C_29  and  C_33
REMARK                            x       y       z     vdW  Elec       q    Type
REMARK                         _______ _______ _______ _____ _____    ______ ____
ROOT
ATOM      3  C   UNL     1      -0.113   0.778  23.700  0.00  0.00    +0.020 C 
ATOM      4  C   UNL     1      -0.751   0.346  23.995  0.00  0.00    +0.095 C 
ATOM      5  N   UNL     1      -0.699  -0.475  24.057  0.00  0.00    -0.263 N 
ATOM      6  C   UNL     1      -0.009  -0.863  23.826  0.00  0.00    +0.095 C 
ATOM      7  C   UNL     1       0.629  -0.431  23.531  0.00  0.00    +0.022 C 
ATOM      8  C   UNL     1       0.577   0.390  23.469  0.00  0.00    +0.012 C 
ATOM     24  C   UNL     1      -1.337  -0.908  24.352  0.00  0.00    +0.327 C 
ATOM     25  O   UNL     1      -1.286  -1.729  24.415  0.00  0.00    -0.250 OA
ATOM     26  N   UNL     1      -2.027  -0.520  24.584  0.00  0.00    -0.162 NA
ENDROOT
BRANCH  26  27
ATOM     27  C   UNL     1      -2.665  -0.952  24.878  0.00  0.00    +0.075 A 
ATOM     28  C   UNL     1      -3.170  -1.348  24.358  0.00  0.00    +0.021 A 
ATOM     29  C   UNL     1      -3.808  -1.780  24.652  0.00  0.00    +0.073 A 
ATOM     30  C   UNL     1      -3.941  -1.817  25.466  0.00  0.00    +0.004 A 
ATOM     31  C   UNL     1      -3.436  -1.421  25.985  0.00  0.00    +0.001 A 
ATOM     32  C   UNL     1      -2.798  -0.989  25.691  0.00  0.00    +0.017 A 
BRANCH  29  33
ATOM     33  C   UNL     1      -4.312  -2.175  24.134  0.00  0.00    +0.419 C 
ATOM     34  F   UNL     1      -4.817  -2.571  23.614  0.00  0.00    -0.166 F 
ATOM     35  F   UNL     1      -3.960  -2.893  24.337  0.00  0.00    -0.166 F 
ATOM     36  F   UNL     1      -4.665  -1.458  23.929  0.00  0.00    -0.166 F 
ENDBRANCH  29  33
ENDBRANCH  26  27
BRANCH   3   2
ATOM      1  C   UNL     1      -0.587   2.029  24.202  0.00  0.00    +0.000 C 
ATOM      2  C   UNL     1      -0.165   1.599  23.638  0.00  0.00    +0.002 C 
ENDBRANCH   3   2
BRANCH   8   9
ATOM      9  C   UNL     1       1.215   0.822  23.175  0.00  0.00    +0.087 C 
BRANCH   9  10
ATOM     10  C   UNL     1       1.858   0.431  22.837  0.00  0.00    +0.242 C 
ATOM     11  O   UNL     1       1.748  -0.041  22.169  0.00  0.00    -0.273 OA
ATOM     12  N   UNL     1       2.609   0.512  23.166  0.00  0.00    -0.201 NA
BRANCH  12  13
ATOM     13  C   UNL     1       3.252   0.121  22.828  0.00  0.00    +0.141 C 
BRANCH  13  14
ATOM     14  C   UNL     1       4.018   0.288  23.084  0.00  0.00    -0.001 A 
ATOM     15  C   UNL     1       4.330   1.046  22.986  0.00  0.00    -0.003 A 
ATOM     16  C   UNL     1       5.097   1.213  23.243  0.00  0.00    -0.000 A 
ATOM     17  C   UNL     1       5.550   0.622  23.598  0.00  0.00    -0.000 A 
ATOM     18  C   UNL     1       5.239  -0.136  23.696  0.00  0.00    -0.000 A 
ATOM     19  C   UNL     1       4.472  -0.303  23.439  0.00  0.00    -0.002 A 
ATOM     20  C   UNL     1       4.160  -1.060  23.537  0.00  0.00    -0.000 A 
ATOM     21  C   UNL     1       4.614  -1.650  23.892  0.00  0.00    -0.000 A 
ATOM     22  C   UNL     1       5.381  -1.483  24.149  0.00  0.00    -0.000 A 
ATOM     23  C   UNL     1       5.692  -0.726  24.051  0.00  0.00    -0.000 A 
ENDBRANCH  13  14
ENDBRANCH  12  13
ENDBRANCH   9  10
ENDBRANCH   8   9
TORSDOF 7
ENDMDL
MODEL 6
REMARK VINA RESULT:     -11.3     14.208     16.151
REMARK  Name = 
REMARK  7 active torsions:
REMARK  status: ('A' for Active; 'I' for Inactive)
REMARK    1  A    between atoms: C_2  and  C_3
REMARK    2  A    between atoms: C_8  and  C_9
REMARK    3  A    between atoms: C_9  and  C_10
REMARK    4  A    between atoms: N_12  and  C_13
REMARK    5  A    between atoms: C_13  and  C_14
REMARK    6  A    between atoms: N_26  and  C_27
REMARK    7  A    between atoms: C_29  and  C_33
REMARK                            x       y       z     vdW  Elec       q    Type
REMARK                         _______ _______ _______ _____ _____    ______ ____
ROOT
ATOM      3  C   UNL     1      -5.745 -10.002  15.713  0.00  0.00    +0.020 C 
ATOM      4  C   UNL     1      -6.475  -9.844  16.064  0.00  0.00    +0.095 C 
ATOM      5  N   UNL     1      -7.173 -10.032  15.666  0.00  0.00    -0.263 N 
ATOM      6  C   UNL     1      -7.141 -10.378  14.918  0.00  0.00    +0.095 C 
ATOM      7  C   UNL     1      -6.411 -10.536  14.568  0.00  0.00    +0.022 C 
ATOM      8  C   UNL     1      -5.713 -10.348  14.965  0.00  0.00    +0.012 C 
ATOM     24  C   UNL     1      -7.903  -9.875  16.017  0.00  0.00    +0.327 C 
ATOM     25  O   UNL     1      -8.601 -10.062  15.620  0.00  0.00    -0.250 OA
ATOM     26  N   UNL     1      -7.936  -9.529  16.765  0.00  0.00    -0.162 NA
ENDROOT
BRANCH  26  27
ATOM     27  C   UNL     1      -8.666  -9.371  17.115  0.00  0.00    +0.075 A 
ATOM     28  C   UNL     1      -9.027  -8.638  17.003  0.00  0.00    +0.021 A 
ATOM     29  C   UNL     1      -9.757  -8.480  17.353  0.00  0.00    +0.073 A 
ATOM     30  C   UNL     1     -10.125  -9.056  17.816  0.00  0.00    +0.004 A 
ATOM     31  C   UNL     1      -9.764  -9.788  17.928  0.00  0.00    +0.001 A 
ATOM     32  C   UNL     1      -9.034  -9.946  17.578  0.00  0.00    +0.017 A 
BRANCH  29  33
ATOM     33  C   UNL     1     -10.119  -7.747  17.241  0.00  0.00    +0.419 C 
ATOM     34  F   UNL     1     -10.481  -7.014  17.129  0.00  0.00    -0.166 F 
ATOM     35  F   UNL     1     -10.637  -8.086  16.696  0.00  0.00    -0.166 F 
ATOM     36  F   UNL     1      -9.601  -7.408  17.786  0.00  0.00    -0.166 F 
ENDBRANCH  29  33
ENDBRANCH  26  27
BRANCH   3   2
ATOM      1  C   UNL     1      -4.952 -10.034  16.901  0.00  0.00    +0.000 C 
ATOM      2  C   UNL     1      -5.048  -9.814  16.112  0.00  0.00    +0.002 C 
ENDBRANCH   3   2
BRANCH   8   9
ATOM      9  C   UNL     1      -4.983 -10.506  14.615  0.00  0.00    +0.087 C 
BRANCH   9  10
ATOM     10  C   UNL     1      -4.923 -10.561  13.794  0.00  0.00    +0.242 C 
ATOM     11  O   UNL     1      -5.580 -10.781  13.346  0.00  0.00    -0.273 OA
ATOM     12  N   UNL     1      -4.206 -10.396  13.422  0.00  0.00    -0.201 NA
BRANCH  12  13
ATOM     13  C   UNL     1      -4.146 -10.452  12.600  0.00  0.00    +0.141 C 
BRANCH  13  14
ATOM     14  C   UNL     1      -3.422 -10.315  12.229  0.00  0.00    -0.001 A 
ATOM     15  C   UNL     1      -2.720 -10.540  12.600  0.00  0.00    -0.003 A 
ATOM     16  C   UNL     1      -1.995 -10.404  12.229  0.00  0.00    -0.000 A 
ATOM     17  C   UNL     1      -1.973 -10.042  11.488  0.00  0.00    -0.000 A 
ATOM     18  C   UNL     1      -2.675  -9.817  11.117  0.00  0.00    -0.000 A 
ATOM     19  C   UNL     1      -3.400  -9.953  11.488  0.00  0.00    -0.002 A 
ATOM     20  C   UNL     1      -4.101  -9.728  11.117  0.00  0.00    -0.000 A 
ATOM     21  C   UNL     1      -4.079  -9.367  10.377  0.00  0.00    -0.000 A 
ATOM     22  C   UNL     1      -3.354  -9.231  10.006  0.00  0.00    -0.000 A 
ATOM     23  C   UNL     1      -2.653  -9.455  10.376  0.00  0.00    -0.000 A 
ENDBRANCH  13  14
ENDBRANCH  12  13
ENDBRANCH   9  10
ENDBRANCH   8   9
TORSDOF 7
ENDMDL
MODEL 7
REMARK VINA RESULT:     -10.8     18.552     20.273
REMARK  Name = 
REMARK  7 active torsions:
REMARK  status: ('A' for Active; 'I' for Inactive)
REMARK    1  A    between atoms: C_2  and  C_3
REMARK    2  A    between atoms: C_8  and  C_9
REMARK    3  A    between atoms: C_9  and  C_10
REMARK    4  A    between atoms: N_12  and  C_13
REMARK    5  A    between atoms: C_13  and  C_14
REMARK    6  A    between atoms: N_26  and  C_27
REMARK    7  A    between atoms: C_29  and  C_33
REMARK                            x       y       z     vdW  Elec       q    Type
REMARK                         _______ _______ _______ _____ _____    ______ ____
ROOT
ATOM      3  C   UNL     1      15.801  -6.911  27.215  0.00  0.00    +0.020 C 
ATOM      4  C   UNL     1      15.354  -6.982  27.905  0.00  0.00    +0.095 C 
ATOM      5  N   UNL     1      15.526  -6.511  28.559  0.00  0.00    -0.263 N 
ATOM      6  C   UNL     1      16.146  -5.967  28.523  0.00  0.00    +0.095 C 
ATOM      7  C   UNL     1      16.593  -5.896  27.834  0.00  0.00    +0.022 C 
ATOM      8  C   UNL     1      16.420  -6.367  27.180  0.00  0.00    +0.012 C 
ATOM     24  C   UNL     1      15.079  -6.582  29.249  0.00  0.00    +0.327 C 
ATOM     25  O   UNL     1      15.251  -6.111  29.903  0.00  0.00    -0.250 OA
ATOM     26  N   UNL     1      14.459  -7.126  29.285  0.00  0.00    -0.162 NA
ENDROOT
BRANCH  26  27
ATOM     27  C   UNL     1      14.012  -7.198  29.974  0.00  0.00    +0.075 A 
ATOM     28  C   UNL     1      13.317  -6.762  30.062  0.00  0.00    +0.021 A 
ATOM     29  C   UNL     1      12.870  -6.834  30.751  0.00  0.00    +0.073 A 
ATOM     30  C   UNL     1      13.118  -7.341  31.353  0.00  0.00    +0.004 A 
ATOM     31  C   UNL     1      13.813  -7.776  31.265  0.00  0.00    +0.001 A 
ATOM     32  C   UNL     1      14.261  -7.704  30.576  0.00  0.00    +0.017 A 
BRANCH  29  33
ATOM     33  C   UNL     1      12.175  -6.399  30.839  0.00  0.00    +0.419 C 
ATOM     34  F   UNL     1      11.479  -5.964  30.926  0.00  0.00    -0.166 F 
ATOM     35  F   UNL     1      11.764  -6.966  30.401  0.00  0.00    -0.166 F 
ATOM     36  F   UNL     1      12.584  -5.832  31.276  0.00  0.00    -0.166 F 
ENDBRANCH  29  33
ENDBRANCH  26  27
BRANCH   3   2
ATOM      1  C   UNL     1      15.464  -8.185  26.664  0.00  0.00    +0.000 C 
ATOM      2  C   UNL     1      15.629  -7.383  26.561  0.00  0.00    +0.002 C 
ENDBRANCH   3   2
BRANCH   8   9
ATOM      9  C   UNL     1      16.868  -6.296  26.491  0.00  0.00    +0.087 C 
BRANCH   9  10
ATOM     10  C   UNL     1      17.063  -5.549  26.201  0.00  0.00    +0.242 C 
ATOM     11  O   UNL     1      17.405  -4.989  26.702  0.00  0.00    -0.273 OA
ATOM     12  N   UNL     1      16.918  -5.361  25.412  0.00  0.00    -0.201 NA
BRANCH  12  13
ATOM     13  C   UNL     1      17.113  -4.613  25.122  0.00  0.00    +0.141 C 
BRANCH  13  14
ATOM     14  C   UNL     1      17.081  -4.463  24.312  0.00  0.00    -0.001 A 
ATOM     15  C   UNL     1      17.349  -5.031  23.777  0.00  0.00    -0.003 A 
ATOM     16  C   UNL     1      17.316  -4.880  22.965  0.00  0.00    -0.000 A 
ATOM     17  C   UNL     1      17.016  -4.162  22.691  0.00  0.00    -0.000 A 
ATOM     18  C   UNL     1      16.749  -3.594  23.226  0.00  0.00    -0.000 A 
ATOM     19  C   UNL     1      16.781  -3.744  24.038  0.00  0.00    -0.002 A 
ATOM     20  C   UNL     1      16.514  -3.177  24.573  0.00  0.00    -0.000 A 
ATOM     21  C   UNL     1      16.215  -2.460  24.299  0.00  0.00    -0.000 A 
ATOM     22  C   UNL     1      16.182  -2.309  23.487  0.00  0.00    -0.000 A 
ATOM     23  C   UNL     1      16.450  -2.876  22.952  0.00  0.00    -0.000 A 
ENDBRANCH  13  14
ENDBRANCH  12  13
ENDBRANCH   9  10
ENDBRANCH   8   9
TORSDOF 7
ENDMDL
MODEL 8
REMARK VINA RESULT:     -10.6     19.383     20.683
REMARK  Name = 
REMARK  7 active torsions:
REMARK  status: ('A' for Active; 'I' for Inactive)
REMARK    1  A    between atoms: C_2  and  C_3
REMARK    2  A    between atoms: C_8  and  C_9
REMARK    3  A    between atoms: C_9  and  C_10
REMARK    4  A    between atoms: N_12  and  C_13
REMARK    5  A    between atoms: C_13  and  C_14
REMARK    6  A    between atoms: N_26  and  C_27
REMARK    7  A    between atoms: C_29  and  C_33
REMARK                            x       y       z     vdW  Elec       q    Type
REMARK                         _______ _______ _______ _____ _____    ______ ____
ROOT
ATOM      3  C   UNL     1      16.378  -6.214  26.543  0.00  0.00    +0.020 C 
ATOM      4  C   UNL     1      16.476  -5.702  25.903  0.00  0.00    +0.095 C 
ATOM      5  N   UNL     1      16.891  -4.996  25.999  0.00  0.00    -0.263 N 
ATOM      6  C   UNL     1      17.208  -4.801  26.735  0.00  0.00    +0.095 C 
ATOM      7  C   UNL     1      17.109  -5.313  27.375  0.00  0.00    +0.022 C 
ATOM      8  C   UNL     1      16.695  -6.019  27.279  0.00  0.00    +0.012 C 
ATOM     24  C   UNL     1      16.989  -4.485  25.359  0.00  0.00    +0.327 C 
ATOM     25  O   UNL     1      17.404  -3.778  25.455  0.00  0.00    -0.250 OA
ATOM     26  N   UNL     1      16.672  -4.679  24.623  0.00  0.00    -0.162 NA
ENDROOT
BRANCH  26  27
ATOM     27  C   UNL     1      16.770  -4.168  23.983  0.00  0.00    +0.075 A 
ATOM     28  C   UNL     1      16.341  -3.464  23.948  0.00  0.00    +0.021 A 
ATOM     29  C   UNL     1      16.439  -2.952  23.308  0.00  0.00    +0.073 A 
ATOM     30  C   UNL     1      16.966  -3.146  22.703  0.00  0.00    +0.004 A 
ATOM     31  C   UNL     1      17.395  -3.849  22.738  0.00  0.00    +0.001 A 
ATOM     32  C   UNL     1      17.297  -4.361  23.378  0.00  0.00    +0.017 A 
BRANCH  29  33
ATOM     33  C   UNL     1      16.011  -2.249  23.274  0.00  0.00    +0.419 C 
ATOM     34  F   UNL     1      15.582  -1.544  23.239  0.00  0.00    -0.166 F 
ATOM     35  F   UNL     1      16.706  -1.819  23.393  0.00  0.00    -0.166 F 
ATOM     36  F   UNL     1      15.316  -2.677  23.154  0.00  0.00    -0.166 F 
ENDBRANCH  29  33
ENDBRANCH  26  27
BRANCH   3   2
ATOM      1  C   UNL     1      16.138  -7.417  25.812  0.00  0.00    +0.000 C 
ATOM      2  C   UNL     1      15.962  -6.920  26.446  0.00  0.00    +0.002 C 
ENDBRANCH   3   2
BRANCH   8   9
ATOM      9  C   UNL     1      16.596  -6.530  27.919  0.00  0.00    +0.087 C 
BRANCH   9  10
ATOM     10  C   UNL     1      16.461  -6.226  28.673  0.00  0.00    +0.242 C 
ATOM     11  O   UNL     1      17.074  -5.858  29.086  0.00  0.00    -0.273 OA
ATOM     12  N   UNL     1      15.714  -6.288  29.015  0.00  0.00    -0.201 NA
BRANCH  12  13
ATOM     13  C   UNL     1      15.578  -5.984  29.771  0.00  0.00    +0.141 C 
BRANCH  13  14
ATOM     14  C   UNL     1      14.830  -6.047  30.113  0.00  0.00    -0.001 A 
ATOM     15  C   UNL     1      14.328  -6.663  29.894  0.00  0.00    -0.003 A 
ATOM     16  C   UNL     1      13.579  -6.726  30.237  0.00  0.00    -0.000 A 
ATOM     17  C   UNL     1      13.335  -6.173  30.798  0.00  0.00    -0.000 A 
ATOM     18  C   UNL     1      13.837  -5.556  31.017  0.00  0.00    -0.000 A 
ATOM     19  C   UNL     1      14.586  -5.493  30.674  0.00  0.00    -0.002 A 
ATOM     20  C   UNL     1      15.088  -4.877  30.892  0.00  0.00    -0.000 A 
ATOM     21  C   UNL     1      14.844  -4.324  31.452  0.00  0.00    -0.000 A 
ATOM     22  C   UNL     1      14.095  -4.387  31.795  0.00  0.00    -0.000 A 
ATOM     23  C   UNL     1      13.593  -5.003  31.577  0.00  0.00    -0.000 A 
ENDBRANCH  13  14
ENDBRANCH  12  13
ENDBRANCH   9  10
ENDBRANCH   8   9
TORSDOF 7
ENDMDL
