MODEL 1
REMARK VINA RESULT:      -9.0      0.000      0.000
REMARK  Name = 
REMARK  8 active torsions:
REMARK  status: ('A' for Active; 'I' for Inactive)
REMARK    1  A    between atoms: C_2  and  C_4
REMARK    2  A    between atoms: C_6  and  C_7
REMARK    3  A    between atoms: C_7  and  C_8
REMARK    4  A    between atoms: N_10  and  C_11
REMARK    5  A    between atoms: C_19  and  C_20
REMARK    6  A    between atoms: C_20  and  N_21
REMARK    7  A    between atoms: C_22  and  C_24
REMARK    8  A    between atoms: C_27  and  N_28
REMARK                            x       y       z     vdW  Elec       q    Type
REMARK                         _______ _______ _______ _____ _____    ______ ____
ROOT
ATOM      4  C   UNL     1      -2.480   0.372  24.308  0.00  0.00    +0.006 C 
ATOM      5  C   UNL     1      -3.138   0.866  24.243  0.00  0.00    +0.005 C 
ATOM      6  C   UNL     1      -3.100   1.544  23.776  0.00  0.00    +0.027 C 
ATOM     16  C   UNL     1      -2.404   1.730  23.374  0.00  0.00    -0.048 C 
ATOM     17  C   UNL     1      -2.366   2.409  22.907  0.00  0.00    +0.026 C 
ATOM     18  C   UNL     1      -1.745   1.236  23.440  0.00  0.00    -0.033 C 
ATOM     19  C   UNL     1      -1.784   0.558  23.906  0.00  0.00    +0.043 C 
ENDROOT
BRANCH   4   2
ATOM      1  C   UNL     1      -2.838  -1.002  24.467  0.00  0.00    +0.000 C 
ATOM      2  C   UNL     1      -2.519  -0.307  24.776  0.00  0.00    +0.000 C 
ATOM      3  C   UNL     1      -2.238  -0.290  25.551  0.00  0.00    +0.000 C 
ENDBRANCH   4   2
BRANCH   6   7
ATOM      7  C   UNL     1      -3.758   2.038  23.710  0.00  0.00    +0.091 C 
BRANCH   7   8
ATOM      8  C   UNL     1      -4.187   2.246  24.384  0.00  0.00    +0.242 C 
ATOM      9  O   UNL     1      -3.810   2.631  25.009  0.00  0.00    -0.273 OA
ATOM     10  N   UNL     1      -4.990   2.070  24.432  0.00  0.00    -0.207 NA
BRANCH  10  11
ATOM     11  C   UNL     1      -5.419   2.278  25.107  0.00  0.00    +0.095 C 
ATOM     12  C   UNL     1      -5.814   1.757  25.610  0.00  0.00    +0.022 C 
ATOM     13  C   UNL     1      -6.167   2.201  26.209  0.00  0.00    +0.002 C 
ATOM     14  C   UNL     1      -5.990   2.995  26.076  0.00  0.00    +0.002 C 
ATOM     15  C   UNL     1      -5.527   3.043  25.394  0.00  0.00    +0.022 C 
ENDBRANCH  10  11
ENDBRANCH   7   8
ENDBRANCH   6   7
BRANCH  19  20
ATOM     20  C   UNL     1      -1.126   0.064  23.972  0.00  0.00    +0.120 C 
BRANCH  20  21
ATOM     21  N   UNL     1      -0.393   0.312  23.685  0.00  0.00    -0.201 NA
ATOM     22  C   UNL     1       0.229  -0.226  23.626  0.00  0.00    +0.265 C 
ATOM     23  O   UNL     1       0.120  -1.011  23.855  0.00  0.00    -0.268 OA
BRANCH  22  24
ATOM     24  C   UNL     1       0.962   0.022  23.338  0.00  0.00    +0.055 A 
ATOM     25  C   UNL     1       1.366   0.637  23.713  0.00  0.00    +0.006 A 
ATOM     26  C   UNL     1       2.099   0.884  23.425  0.00  0.00    +0.017 A 
ATOM     27  C   UNL     1       2.428   0.517  22.763  0.00  0.00    +0.073 A 
ATOM     32  C   UNL     1       2.023  -0.098  22.390  0.00  0.00    +0.017 A 
ATOM     33  C   UNL     1       1.291  -0.345  22.677  0.00  0.00    +0.006 A 
BRANCH  27  28
ATOM     28  N   UNL     1       3.160   0.764  22.476  0.00  0.00    -0.179 NA
ATOM     29  C   UNL     1       3.852   0.407  22.748  0.00  0.00    +0.246 C 
ATOM     30  C   UNL     1       4.584   0.654  22.461  0.00  0.00    +0.097 C 
ATOM     31  O   UNL     1       3.810  -0.197  23.308  0.00  0.00    -0.273 OA
ENDBRANCH  27  28
ENDBRANCH  22  24
ENDBRANCH  20  21
ENDBRANCH  19  20
TORSDOF 8
ENDMDL
MODEL 2
REMARK VINA RESULT:      -8.7      1.180      1.437
REMARK  Name = 
REMARK  8 active torsions:
REMARK  status: ('A' for Active; 'I' for Inactive)
REMARK    1  A    between atoms: C_2  and  C_4
REMARK    2  A    between atoms: C_6  and  C_7
REMARK    3  A    between atoms: C_7  and  C_8
REMARK    4  A    between atoms: N_10  and  C_11
REMARK    5  A    between atoms: C_19  and  C_20
REMARK    6  A    between atoms: C_20  and  N_21
REMARK    7  A    between atoms: C_22  and  C_24
REMARK    8  A    between atoms: C_27  and  N_28
REMARK                            x       y       z     vdW  Elec       q    Type
REMARK                         _______ _______ _______ _____ _____    ______ ____
ROOT
ATOM      4  C   UNL     1      -1.484   1.039  24.662  0.00  0.00    +0.006 C 
ATOM      5  C   UNL     1      -1.924   1.649  24.999  0.00  0.00    +0.005 C 
ATOM      6  C   UNL     1      -1.716   2.434  24.860  0.00  0.00    +0.027 C 
ATOM     16  C   UNL     1      -1.067   2.611  24.383  0.00  0.00    -0.048 C 
ATOM     17  C   UNL     1      -0.859   3.397  24.243  0.00  0.00    +0.026 C 
ATOM     18  C   UNL     1      -0.626   2.000  24.044  0.00  0.00    -0.033 C 
ATOM     19  C   UNL     1      -0.834   1.215  24.184  0.00  0.00    +0.043 C 
ENDROOT
BRANCH   4   2
ATOM      1  C   UNL     1      -2.212  -0.133  24.290  0.00  0.00    +0.000 C 
ATOM      2  C   UNL     1      -1.692   0.253  24.801  0.00  0.00    +0.000 C 
ATOM      3  C   UNL     1      -1.380  -0.147  25.451  0.00  0.00    +0.000 C 
ENDBRANCH   4   2
BRANCH   6   7
ATOM      7  C   UNL     1      -2.158   3.044  25.199  0.00  0.00    +0.091 C 
BRANCH   7   8
ATOM      8  C   UNL     1      -2.972   3.085  25.070  0.00  0.00    +0.242 C 
ATOM      9  O   UNL     1      -3.265   3.147  24.301  0.00  0.00    -0.273 OA
ATOM     10  N   UNL     1      -3.491   3.064  25.710  0.00  0.00    -0.207 NA
BRANCH  10  11
ATOM     11  C   UNL     1      -4.306   3.105  25.582  0.00  0.00    +0.095 C 
ATOM     12  C   UNL     1      -4.755   3.795  25.537  0.00  0.00    +0.022 C 
ATOM     13  C   UNL     1      -5.540   3.580  25.403  0.00  0.00    +0.002 C 
ATOM     14  C   UNL     1      -5.576   2.756  25.366  0.00  0.00    +0.002 C 
ATOM     15  C   UNL     1      -4.812   2.463  25.476  0.00  0.00    +0.022 C 
ENDBRANCH  10  11
ENDBRANCH   7   8
ENDBRANCH   6   7
BRANCH  19  20
ATOM     20  C   UNL     1      -0.393   0.605  23.846  0.00  0.00    +0.120 C 
BRANCH  20  21
ATOM     21  N   UNL     1       0.413   0.707  23.705  0.00  0.00    -0.201 NA
ATOM     22  C   UNL     1       0.804   0.215  23.171  0.00  0.00    +0.265 C 
ATOM     23  O   UNL     1       0.388  -0.380  22.778  0.00  0.00    -0.268 OA
BRANCH  22  24
ATOM     24  C   UNL     1       1.611   0.317  23.030  0.00  0.00    +0.055 A 
ATOM     25  C   UNL     1       2.001  -0.174  22.493  0.00  0.00    +0.006 A 
ATOM     26  C   UNL     1       2.807  -0.072  22.352  0.00  0.00    +0.017 A 
ATOM     27  C   UNL     1       3.224   0.521  22.748  0.00  0.00    +0.073 A 
ATOM     32  C   UNL     1       2.833   1.011  23.284  0.00  0.00    +0.017 A 
ATOM     33  C   UNL     1       2.027   0.909  23.425  0.00  0.00    +0.006 A 
BRANCH  27  28
ATOM     28  N   UNL     1       4.029   0.623  22.607  0.00  0.00    -0.179 NA
ATOM     29  C   UNL     1       4.583   0.214  23.061  0.00  0.00    +0.246 C 
ATOM     30  C   UNL     1       5.389   0.316  22.920  0.00  0.00    +0.097 C 
ATOM     31  O   UNL     1       4.329  -0.297  23.657  0.00  0.00    -0.273 OA
ENDBRANCH  27  28
ENDBRANCH  22  24
ENDBRANCH  20  21
ENDBRANCH  19  20
TORSDOF 8
ENDMDL
MODEL 3
REMARK VINA RESULT:      -8.2      2.963      4.892
REMARK  Name = 
REMARK  8 active torsions:
REMARK  status: ('A' for Active; 'I' for Inactive)
REMARK    1  A    between atoms: C_2  and  C_4
REMARK    2  A    between atoms: C_6  and  C_7
REMARK    3  A    between atoms: C_7  and  C_8
REMARK    4  A    between atoms: N_10  and  C_11
REMARK    5  A    between atoms: C_19  and  C_20
REMARK    6  A    between atoms: C_20  and  N_21
REMARK    7  A    between atoms: C_22  and  C_24
REMARK    8  A    between atoms: C_27  and  N_28
REMARK                            x       y       z     vdW  Elec       q    Type
REMARK                         _______ _______ _______ _____ _____    ______ ____
ROOT
ATOM      4  C   UNL     1      -0.286  -0.505  24.113  0.00  0.00    +0.006 C 
ATOM      5  C   UNL     1      -0.678  -1.206  24.301  0.00  0.00    +0.005 C 
ATOM      6  C   UNL     1      -1.085  -1.272  25.015  0.00  0.00    +0.027 C 
ATOM     16  C   UNL     1      -1.101  -0.638  25.542  0.00  0.00    -0.048 C 
ATOM     17  C   UNL     1      -1.508  -0.704  26.256  0.00  0.00    +0.026 C 
ATOM     18  C   UNL     1      -0.709   0.064  25.353  0.00  0.00    -0.033 C 
ATOM     19  C   UNL     1      -0.302   0.130  24.640  0.00  0.00    +0.043 C 
ENDROOT
BRANCH   4   2
ATOM      1  C   UNL     1       0.921  -0.638  23.360  0.00  0.00    +0.000 C 
ATOM      2  C   UNL     1       0.121  -0.439  23.398  0.00  0.00    +0.000 C 
ATOM      3  C   UNL     1      -0.271  -0.174  22.724  0.00  0.00    +0.000 C 
ENDBRANCH   4   2
BRANCH   6   7
ATOM      7  C   UNL     1      -1.477  -1.974  25.203  0.00  0.00    +0.091 C 
BRANCH   7   8
ATOM      8  C   UNL     1      -2.098  -2.240  24.728  0.00  0.00    +0.242 C 
ATOM      9  O   UNL     1      -1.940  -2.713  24.071  0.00  0.00    -0.273 OA
ATOM     10  N   UNL     1      -2.874  -2.033  24.912  0.00  0.00    -0.207 NA
BRANCH  10  11
ATOM     11  C   UNL     1      -3.495  -2.299  24.437  0.00  0.00    +0.095 C 
ATOM     12  C   UNL     1      -4.005  -1.824  23.995  0.00  0.00    +0.022 C 
ATOM     13  C   UNL     1      -4.540  -2.318  23.606  0.00  0.00    +0.002 C 
ATOM     14  C   UNL     1      -4.360  -3.098  23.808  0.00  0.00    +0.002 C 
ATOM     15  C   UNL     1      -3.714  -3.086  24.322  0.00  0.00    +0.022 C 
ENDBRANCH  10  11
ENDBRANCH   7   8
ENDBRANCH   6   7
BRANCH  19  20
ATOM     20  C   UNL     1       0.090   0.831  24.452  0.00  0.00    +0.120 C 
BRANCH  20  21
ATOM     21  N   UNL     1      -0.273   1.558  24.593  0.00  0.00    -0.201 NA
ATOM     22  C   UNL     1       0.179   2.248  24.607  0.00  0.00    +0.265 C 
ATOM     23  O   UNL     1       0.993   2.212  24.480  0.00  0.00    -0.268 OA
BRANCH  22  24
ATOM     24  C   UNL     1      -0.185   2.976  24.750  0.00  0.00    +0.055 A 
ATOM     25  C   UNL     1      -0.280   3.516  24.133  0.00  0.00    +0.006 A 
ATOM     26  C   UNL     1      -0.643   4.243  24.275  0.00  0.00    +0.017 A 
ATOM     27  C   UNL     1      -0.910   4.431  25.033  0.00  0.00    +0.073 A 
ATOM     32  C   UNL     1      -0.814   3.890  25.649  0.00  0.00    +0.017 A 
ATOM     33  C   UNL     1      -0.451   3.163  25.507  0.00  0.00    +0.006 A 
BRANCH  27  28
ATOM     28  N   UNL     1      -1.273   5.157  25.175  0.00  0.00    -0.179 NA
ATOM     29  C   UNL     1      -2.095   5.209  25.208  0.00  0.00    +0.246 C 
ATOM     30  C   UNL     1      -2.458   5.936  25.349  0.00  0.00    +0.097 C 
ATOM     31  O   UNL     1      -2.555   4.532  25.098  0.00  0.00    -0.273 OA
ENDBRANCH  27  28
ENDBRANCH  22  24
ENDBRANCH  20  21
ENDBRANCH  19  20
TORSDOF 8
ENDMDL
MODEL 4
REMARK VINA RESULT:      -7.2      2.506      3.327
REMARK  Name = 
REMARK  8 active torsions:
REMARK  status: ('A' for Active; 'I' for Inactive)
REMARK    1  A    between atoms: C_2  and  C_4
REMARK    2  A    between atoms: C_6  and  C_7
REMARK    3  A    between atoms: C_7  and  C_8
REMARK    4  A    between atoms: N_10  and  C_11
REMARK    5  A    between atoms: C_19  and  C_20
REMARK    6  A    between atoms: C_20  and  N_21
REMARK    7  A    between atoms: C_22  and  C_24
REMARK    8  A    between atoms: C_27  and  N_28
REMARK                            x       y       z     vdW  Elec       q    Type
REMARK                         _______ _______ _______ _____ _____    ______ ____
ROOT
ATOM      4  C   UNL     1      -0.636   0.429  24.021  0.00  0.00    +0.006 C 
ATOM      5  C   UNL     1      -1.150   0.066  24.555  0.00  0.00    +0.005 C 
ATOM      6  C   UNL     1      -0.972  -0.680  24.856  0.00  0.00    +0.027 C 
ATOM     16  C   UNL     1      -0.280  -1.065  24.624  0.00  0.00    -0.048 C 
ATOM     17  C   UNL     1      -0.102  -1.812  24.926  0.00  0.00    +0.026 C 
ATOM     18  C   UNL     1       0.234  -0.702  24.090  0.00  0.00    -0.033 C 
ATOM     19  C   UNL     1       0.056   0.044  23.789  0.00  0.00    +0.043 C 
ENDROOT
BRANCH   4   2
ATOM      1  C   UNL     1      -1.273   1.246  23.037  0.00  0.00    +0.000 C 
ATOM      2  C   UNL     1      -0.814   1.176  23.720  0.00  0.00    +0.000 C 
ATOM      3  C   UNL     1      -0.533   1.851  24.100  0.00  0.00    +0.000 C 
ENDBRANCH   4   2
BRANCH   6   7
ATOM      7  C   UNL     1      -1.486  -1.043  25.390  0.00  0.00    +0.091 C 
BRANCH   7   8
ATOM      8  C   UNL     1      -2.267  -1.195  25.173  0.00  0.00    +0.242 C 
ATOM      9  O   UNL     1      -2.877  -0.725  25.470  0.00  0.00    -0.273 OA
ATOM     10  N   UNL     1      -2.438  -1.817  24.659  0.00  0.00    -0.207 NA
BRANCH  10  11
ATOM     11  C   UNL     1      -3.220  -1.969  24.441  0.00  0.00    +0.095 C 
ATOM     12  C   UNL     1      -3.724  -1.447  24.047  0.00  0.00    +0.022 C 
ATOM     13  C   UNL     1      -4.450  -1.825  23.942  0.00  0.00    +0.002 C 
ATOM     14  C   UNL     1      -4.394  -2.580  24.270  0.00  0.00    +0.002 C 
ATOM     15  C   UNL     1      -3.634  -2.669  24.579  0.00  0.00    +0.022 C 
ENDBRANCH  10  11
ENDBRANCH   7   8
ENDBRANCH   6   7
BRANCH  19  20
ATOM     20  C   UNL     1       0.570   0.407  23.255  0.00  0.00    +0.120 C 
BRANCH  20  21
ATOM     21  N   UNL     1       1.386   0.346  23.360  0.00  0.00    -0.201 NA
ATOM     22  C   UNL     1       1.882   0.274  22.706  0.00  0.00    +0.265 C 
ATOM     23  O   UNL     1       1.563   0.263  21.945  0.00  0.00    -0.268 OA
BRANCH  22  24
ATOM     24  C   UNL     1       2.699   0.214  22.812  0.00  0.00    +0.055 A 
ATOM     25  C   UNL     1       3.033  -0.506  23.038  0.00  0.00    +0.006 A 
ATOM     26  C   UNL     1       3.849  -0.566  23.143  0.00  0.00    +0.017 A 
ATOM     27  C   UNL     1       4.331   0.093  23.023  0.00  0.00    +0.073 A 
ATOM     32  C   UNL     1       3.996   0.812  22.797  0.00  0.00    +0.017 A 
ATOM     33  C   UNL     1       3.180   0.873  22.691  0.00  0.00    +0.006 A 
BRANCH  27  28
ATOM     28  N   UNL     1       5.146   0.033  23.128  0.00  0.00    -0.179 NA
ATOM     29  C   UNL     1       5.484   0.233  23.853  0.00  0.00    +0.246 C 
ATOM     30  C   UNL     1       6.300   0.173  23.959  0.00  0.00    +0.097 C 
ATOM     31  O   UNL     1       5.006   0.494  24.472  0.00  0.00    -0.273 OA
ENDBRANCH  27  28
ENDBRANCH  22  24
ENDBRANCH  20  21
ENDBRANCH  19  20
TORSDOF 8
ENDMDL
MODEL 5
REMARK VINA RESULT:      -7.1      1.628      6.492
REMARK  Name = 
REMARK  8 active torsions:
REMARK  status: ('A' for Active; 'I' for Inactive)
REMARK    1  A    between atoms: C_2  and  C_4
REMARK    2  A    between atoms: C_6  and  C_7
REMARK    3  A    between atoms: C_7  and  C_8
REMARK    4  A    between atoms: N_10  and  C_11
REMARK    5  A    between atoms: C_19  and  C_20
REMARK    6  A    between atoms: C_20  and  N_21
REMARK    7  A    between atoms: C_22  and  C_24
REMARK    8  A    between atoms: C_27  and  N_28
REMARK                            x       y       z     vdW  Elec       q    Type
REMARK                         _______ _______ _______ _____ _____    ______ ____
ROOT
ATOM      4  C   UNL     1      -2.406  -1.145  24.771  0.00  0.00    +0.006 C 
ATOM      5  C   UNL     1      -1.585  -1.228  24.760  0.00  0.00    +0.005 C 
ATOM      6  C   UNL     1      -1.104  -0.603  24.996  0.00  0.00    +0.027 C 
ATOM     16  C   UNL     1      -1.442   0.108  25.245  0.00  0.00    -0.048 C 
ATOM     17  C   UNL     1      -0.960   0.734  25.482  0.00  0.00    +0.026 C 
ATOM     18  C   UNL     1      -2.263   0.191  25.257  0.00  0.00    -0.033 C 
ATOM     19  C   UNL     1      -2.745  -0.434  25.020  0.00  0.00    +0.043 C 
ENDROOT
BRANCH   4   2
ATOM      1  C   UNL     1      -3.105  -2.353  25.079  0.00  0.00    +0.000 C 
ATOM      2  C   UNL     1      -2.888  -1.771  24.535  0.00  0.00    +0.000 C 
ATOM      3  C   UNL     1      -3.152  -1.816  23.755  0.00  0.00    +0.000 C 
ENDBRANCH   4   2
BRANCH   6   7
ATOM      7  C   UNL     1      -0.282  -0.686  24.984  0.00  0.00    +0.091 C 
BRANCH   7   8
ATOM      8  C   UNL     1       0.116  -0.743  24.264  0.00  0.00    +0.242 C 
ATOM      9  O   UNL     1       0.118  -1.457  23.850  0.00  0.00    -0.273 OA
ATOM     10  N   UNL     1       0.512  -0.088  23.959  0.00  0.00    -0.207 NA
BRANCH  10  11
ATOM     11  C   UNL     1       0.911  -0.145  23.238  0.00  0.00    +0.095 C 
ATOM     12  C   UNL     1       1.729  -0.125  23.135  0.00  0.00    +0.022 C 
ATOM     13  C   UNL     1       1.885  -0.200  22.328  0.00  0.00    +0.002 C 
ATOM     14  C   UNL     1       1.164  -0.266  21.934  0.00  0.00    +0.002 C 
ATOM     15  C   UNL     1       0.561  -0.233  22.497  0.00  0.00    +0.022 C 
ENDBRANCH  10  11
ENDBRANCH   7   8
ENDBRANCH   6   7
BRANCH  19  20
ATOM     20  C   UNL     1      -3.565  -0.351  25.032  0.00  0.00    +0.120 C 
BRANCH  20  21
ATOM     21  N   UNL     1      -3.903   0.393  25.144  0.00  0.00    -0.201 NA
ATOM     22  C   UNL     1      -4.709   0.504  25.008  0.00  0.00    +0.265 C 
ATOM     23  O   UNL     1      -5.177  -0.128  24.760  0.00  0.00    -0.268 OA
BRANCH  22  24
ATOM     24  C   UNL     1      -5.047   1.249  25.120  0.00  0.00    +0.055 A 
ATOM     25  C   UNL     1      -5.484   1.405  25.803  0.00  0.00    +0.006 A 
ATOM     26  C   UNL     1      -5.822   2.149  25.915  0.00  0.00    +0.017 A 
ATOM     27  C   UNL     1      -5.724   2.737  25.344  0.00  0.00    +0.073 A 
ATOM     32  C   UNL     1      -5.288   2.580  24.661  0.00  0.00    +0.017 A 
ATOM     33  C   UNL     1      -4.949   1.836  24.550  0.00  0.00    +0.006 A 
BRANCH  27  28
ATOM     28  N   UNL     1      -6.062   3.480  25.455  0.00  0.00    -0.179 NA
ATOM     29  C   UNL     1      -5.580   4.141  25.563  0.00  0.00    +0.246 C 
ATOM     30  C   UNL     1      -5.918   4.885  25.675  0.00  0.00    +0.097 C 
ATOM     31  O   UNL     1      -4.759   4.057  25.559  0.00  0.00    -0.273 OA
ENDBRANCH  27  28
ENDBRANCH  22  24
ENDBRANCH  20  21
ENDBRANCH  19  20
TORSDOF 8
ENDMDL
