MODEL 1
REMARK VINA RESULT:     -10.8      0.000      0.000
REMARK  Name = 
REMARK  2 active torsions:
REMARK  status: ('A' for Active; 'I' for Inactive)
REMARK    1  A    between atoms: C_2  and  N_4
REMARK    2  A    between atoms: N_10  and  C_11
REMARK                            x       y       z     vdW  Elec       q    Type
REMARK                         _______ _______ _______ _____ _____    ______ ____
ROOT
ATOM      4  N   UNL     1      -4.580   2.374  25.055  0.00  0.00    -0.271 NA
ATOM      5  C   UNL     1      -3.877   2.477  24.635  0.00  0.00    +0.094 C 
ATOM      6  C   UNL     1      -3.455   1.820  24.372  0.00  0.00    +0.112 C 
ATOM      7  N   UNL     1      -3.734   1.059  24.528  0.00  0.00    -0.261 N 
ATOM      8  C   UNL     1      -4.437   0.957  24.948  0.00  0.00    +0.113 C 
ATOM      9  C   UNL     1      -4.575   0.147  25.019  0.00  0.00    +0.116 C 
ATOM     10  N   UNL     1      -3.958  -0.251  24.643  0.00  0.00    -0.264 N 
ATOM     17  C   UNL     1      -3.439   0.313  24.340  0.00  0.00    +0.307 C 
ATOM     18  O   UNL     1      -2.745   0.158  23.922  0.00  0.00    -0.252 OA
ATOM     19  C   UNL     1      -4.860   1.615  25.211  0.00  0.00    +0.094 C 
ENDROOT
BRANCH  10  11
ATOM     11  C   UNL     1      -3.876  -1.070  24.582  0.00  0.00    +0.077 C 
ATOM     12  C   UNL     1      -4.188  -1.468  23.930  0.00  0.00    +0.020 C 
ATOM     13  C   UNL     1      -4.105  -2.287  23.868  0.00  0.00    +0.002 C 
ATOM     14  C   UNL     1      -3.710  -2.707  24.458  0.00  0.00    +0.000 C 
ATOM     15  C   UNL     1      -3.398  -2.309  25.109  0.00  0.00    +0.002 C 
ATOM     16  C   UNL     1      -3.481  -1.490  25.171  0.00  0.00    +0.020 C 
ENDBRANCH  10  11
BRANCH   4   2
ATOM      1  C   UNL     1      -4.650   3.778  25.315  0.00  0.00    +0.017 C 
ATOM      2  C   UNL     1      -5.004   3.032  25.318  0.00  0.00    +0.058 C 
ATOM      3  C   UNL     1      -5.779   2.944  25.585  0.00  0.00    +0.017 C 
ENDBRANCH   4   2
TORSDOF 2
ENDMDL
