MODEL 1
REMARK VINA RESULT:     -10.8      0.000      0.000
REMARK  Name = 
REMARK  8 active torsions:
REMARK  status: ('A' for Active; 'I' for Inactive)
REMARK    1  A    between atoms: C_2  and  N_3
REMARK    2  A    between atoms: N_3  and  C_4
REMARK    3  A    between atoms: N_3  and  C_6
REMARK    4  A    between atoms: C_6  and  C_7
REMARK    5  A    between atoms: C_7  and  C_8
REMARK    6  A    between atoms: C_13  and  C_14
REMARK    7  A    between atoms: C_14  and  C_15
REMARK    8  A    between atoms: C_18  and  C_20
REMARK                            x       y       z     vdW  Elec       q    Type
REMARK                         _______ _______ _______ _____ _____    ______ ____
ROOT
ATOM      8  C   UNL     1      -3.558   1.751  24.938  0.00  0.00    +0.022 C 
ATOM      9  C   UNL     1      -3.076   1.100  24.782  0.00  0.00    +0.094 C 
ATOM     10  N   UNL     1      -3.408   0.349  24.709  0.00  0.00    -0.276 N 
ATOM     11  C   UNL     1      -4.223   0.248  24.792  0.00  0.00    +0.094 C 
ATOM     12  C   UNL     1      -4.705   0.898  24.949  0.00  0.00    +0.022 C 
ATOM     13  C   UNL     1      -4.373   1.650  25.022  0.00  0.00    +0.015 C 
ATOM     18  C   UNL     1      -2.926  -0.303  24.552  0.00  0.00    +0.249 C 
ATOM     19  O   UNL     1      -2.112  -0.202  24.469  0.00  0.00    -0.270 OA
ENDROOT
BRANCH  18  20
ATOM     20  C   UNL     1      -3.258  -1.054  24.479  0.00  0.00    +0.054 A 
ATOM     21  C   UNL     1      -3.680  -1.255  23.799  0.00  0.00    +0.007 A 
ATOM     22  C   UNL     1      -4.012  -2.006  23.726  0.00  0.00    +0.030 A 
ATOM     23  C   UNL     1      -3.922  -2.558  24.335  0.00  0.00    +0.140 A 
ATOM     24  F   UNL     1      -4.255  -3.309  24.261  0.00  0.00    -0.204 F 
ATOM     25  C   UNL     1      -3.501  -2.357  25.014  0.00  0.00    +0.030 A 
ATOM     26  C   UNL     1      -3.169  -1.605  25.088  0.00  0.00    +0.007 A 
ENDBRANCH  18  20
BRANCH   8   7
ATOM      7  C   UNL     1      -3.226   2.502  25.011  0.00  0.00    +0.019 C 
BRANCH   7   6
ATOM      6  C   UNL     1      -2.406   2.596  24.992  0.00  0.00    +0.072 C 
BRANCH   6   3
ATOM      3  N   UNL     1      -2.065   3.306  25.234  0.00  0.00    -0.273 NA
BRANCH   3   2
ATOM      1  C   UNL     1      -2.016   4.733  25.167  0.00  0.00    +0.019 C 
ATOM      2  C   UNL     1      -2.270   4.012  24.858  0.00  0.00    +0.072 C 
ENDBRANCH   3   2
BRANCH   3   4
ATOM      4  C   UNL     1      -1.519   3.312  25.852  0.00  0.00    +0.072 C 
ATOM      5  C   UNL     1      -0.735   3.097  25.712  0.00  0.00    +0.019 C 
ENDBRANCH   3   4
ENDBRANCH   6   3
ENDBRANCH   7   6
ENDBRANCH   8   7
BRANCH  13  14
ATOM     14  C   UNL     1      -4.855   2.301  25.178  0.00  0.00    +0.114 C 
BRANCH  14  15
ATOM     15  C   UNL     1      -5.645   2.188  25.387  0.00  0.00    +0.365 C 
ATOM     16  O   UNL     1      -5.861   2.155  26.183  0.00  0.00    -0.246 OA
ATOM     17  O   UNL     1      -6.220   2.109  24.800  0.00  0.00    -0.246 OA
ENDBRANCH  14  15
ENDBRANCH  13  14
TORSDOF 8
ENDMDL
MODEL 2
REMARK VINA RESULT:     -10.4      1.285      2.737
REMARK  Name = 
REMARK  8 active torsions:
REMARK  status: ('A' for Active; 'I' for Inactive)
REMARK    1  A    between atoms: C_2  and  N_3
REMARK    2  A    between atoms: N_3  and  C_4
REMARK    3  A    between atoms: N_3  and  C_6
REMARK    4  A    between atoms: C_6  and  C_7
REMARK    5  A    between atoms: C_7  and  C_8
REMARK    6  A    between atoms: C_13  and  C_14
REMARK    7  A    between atoms: C_14  and  C_15
REMARK    8  A    between atoms: C_18  and  C_20
REMARK                            x       y       z     vdW  Elec       q    Type
REMARK                         _______ _______ _______ _____ _____    ______ ____
ROOT
ATOM      8  C   UNL     1      -2.386   1.435  24.670  0.00  0.00    +0.022 C 
ATOM      9  C   UNL     1      -3.061   0.995  24.850  0.00  0.00    +0.094 C 
ATOM     10  N   UNL     1      -3.071   0.181  24.716  0.00  0.00    -0.276 N 
ATOM     11  C   UNL     1      -2.406  -0.194  24.401  0.00  0.00    +0.094 C 
ATOM     12  C   UNL     1      -1.732   0.245  24.222  0.00  0.00    +0.022 C 
ATOM     13  C   UNL     1      -1.721   1.059  24.355  0.00  0.00    +0.015 C 
ATOM     18  C   UNL     1      -3.746  -0.259  24.896  0.00  0.00    +0.249 C 
ATOM     19  O   UNL     1      -4.410   0.116  25.210  0.00  0.00    -0.270 OA
ENDROOT
BRANCH  18  20
ATOM     20  C   UNL     1      -3.756  -1.072  24.762  0.00  0.00    +0.054 A 
ATOM     21  C   UNL     1      -3.451  -1.588  25.329  0.00  0.00    +0.007 A 
ATOM     22  C   UNL     1      -3.462  -2.401  25.196  0.00  0.00    +0.030 A 
ATOM     23  C   UNL     1      -3.777  -2.700  24.493  0.00  0.00    +0.140 A 
ATOM     24  F   UNL     1      -3.788  -3.515  24.360  0.00  0.00    -0.204 F 
ATOM     25  C   UNL     1      -4.082  -2.185  23.926  0.00  0.00    +0.030 A 
ATOM     26  C   UNL     1      -4.072  -1.371  24.060  0.00  0.00    +0.007 A 
ENDBRANCH  18  20
BRANCH   8   7
ATOM      7  C   UNL     1      -2.376   2.248  24.803  0.00  0.00    +0.019 C 
BRANCH   7   6
ATOM      6  C   UNL     1      -3.038   2.623  25.121  0.00  0.00    +0.072 C 
BRANCH   6   3
ATOM      3  N   UNL     1      -3.046   3.443  25.209  0.00  0.00    -0.273 NA
BRANCH   3   2
ATOM      1  C   UNL     1      -2.282   4.594  25.573  0.00  0.00    +0.019 C 
ATOM      2  C   UNL     1      -2.498   3.810  25.705  0.00  0.00    +0.072 C 
ENDBRANCH   3   2
BRANCH   3   4
ATOM      4  C   UNL     1      -3.602   3.896  24.802  0.00  0.00    +0.072 C 
ATOM      5  C   UNL     1      -4.386   3.916  25.058  0.00  0.00    +0.019 C 
ENDBRANCH   3   4
ENDBRANCH   6   3
ENDBRANCH   7   6
ENDBRANCH   8   7
BRANCH  13  14
ATOM     14  C   UNL     1      -1.047   1.498  24.175  0.00  0.00    +0.114 C 
BRANCH  14  15
ATOM     15  C   UNL     1      -0.311   1.127  24.138  0.00  0.00    +0.365 C 
ATOM     16  O   UNL     1      -0.051   0.795  23.429  0.00  0.00    -0.246 OA
ATOM     17  O   UNL     1       0.167   1.089  24.811  0.00  0.00    -0.246 OA
ENDBRANCH  14  15
ENDBRANCH  13  14
TORSDOF 8
ENDMDL
MODEL 3
REMARK VINA RESULT:     -10.4      1.970      4.524
REMARK  Name = 
REMARK  8 active torsions:
REMARK  status: ('A' for Active; 'I' for Inactive)
REMARK    1  A    between atoms: C_2  and  N_3
REMARK    2  A    between atoms: N_3  and  C_4
REMARK    3  A    between atoms: N_3  and  C_6
REMARK    4  A    between atoms: C_6  and  C_7
REMARK    5  A    between atoms: C_7  and  C_8
REMARK    6  A    between atoms: C_13  and  C_14
REMARK    7  A    between atoms: C_14  and  C_15
REMARK    8  A    between atoms: C_18  and  C_20
REMARK                            x       y       z     vdW  Elec       q    Type
REMARK                         _______ _______ _______ _____ _____    ______ ____
ROOT
ATOM      8  C   UNL     1      -3.804   0.898  24.859  0.00  0.00    +0.022 C 
ATOM      9  C   UNL     1      -3.004   1.101  24.860  0.00  0.00    +0.094 C 
ATOM     10  N   UNL     1      -2.779   1.890  24.936  0.00  0.00    -0.276 N 
ATOM     11  C   UNL     1      -3.353   2.478  25.011  0.00  0.00    +0.094 C 
ATOM     12  C   UNL     1      -4.153   2.276  25.010  0.00  0.00    +0.022 C 
ATOM     13  C   UNL     1      -4.379   1.486  24.934  0.00  0.00    +0.015 C 
ATOM     18  C   UNL     1      -1.979   2.093  24.937  0.00  0.00    +0.249 C 
ATOM     19  O   UNL     1      -1.404   1.506  24.862  0.00  0.00    -0.270 OA
ENDROOT
BRANCH  18  20
ATOM     20  C   UNL     1      -1.753   2.882  25.012  0.00  0.00    +0.054 A 
ATOM     21  C   UNL     1      -1.743   3.240  25.756  0.00  0.00    +0.007 A 
ATOM     22  C   UNL     1      -1.518   4.029  25.831  0.00  0.00    +0.030 A 
ATOM     23  C   UNL     1      -1.301   4.463  25.163  0.00  0.00    +0.140 A 
ATOM     24  F   UNL     1      -1.075   5.253  25.239  0.00  0.00    -0.204 F 
ATOM     25  C   UNL     1      -1.311   4.106  24.419  0.00  0.00    +0.030 A 
ATOM     26  C   UNL     1      -1.536   3.316  24.343  0.00  0.00    +0.007 A 
ENDBRANCH  18  20
BRANCH   8   7
ATOM      7  C   UNL     1      -4.030   0.109  24.784  0.00  0.00    +0.019 C 
BRANCH   7   6
ATOM      6  C   UNL     1      -3.463  -0.470  24.627  0.00  0.00    +0.072 C 
BRANCH   6   3
ATOM      3  N   UNL     1      -3.690  -1.257  24.535  0.00  0.00    -0.273 NA
BRANCH   3   2
ATOM      1  C   UNL     1      -4.370  -2.254  23.769  0.00  0.00    +0.019 C 
ATOM      2  C   UNL     1      -4.007  -1.515  23.818  0.00  0.00    +0.072 C 
ENDBRANCH   3   2
BRANCH   3   4
ATOM      4  C   UNL     1      -3.602  -1.787  25.161  0.00  0.00    +0.072 C 
ATOM      5  C   UNL     1      -2.911  -2.232  25.232  0.00  0.00    +0.019 C 
ENDBRANCH   3   4
ENDBRANCH   6   3
ENDBRANCH   7   6
ENDBRANCH   8   7
BRANCH  13  14
ATOM     14  C   UNL     1      -5.178   1.284  24.934  0.00  0.00    +0.114 C 
BRANCH  14  15
ATOM     15  C   UNL     1      -5.744   1.837  25.169  0.00  0.00    +0.365 C 
ATOM     16  O   UNL     1      -6.143   2.285  24.603  0.00  0.00    -0.246 OA
ATOM     17  O   UNL     1      -5.910   1.941  25.970  0.00  0.00    -0.246 OA
ENDBRANCH  14  15
ENDBRANCH  13  14
TORSDOF 8
ENDMDL
MODEL 4
REMARK VINA RESULT:      -9.2      1.853      2.169
REMARK  Name = 
REMARK  8 active torsions:
REMARK  status: ('A' for Active; 'I' for Inactive)
REMARK    1  A    between atoms: C_2  and  N_3
REMARK    2  A    between atoms: N_3  and  C_4
REMARK    3  A    between atoms: N_3  and  C_6
REMARK    4  A    between atoms: C_6  and  C_7
REMARK    5  A    between atoms: C_7  and  C_8
REMARK    6  A    between atoms: C_13  and  C_14
REMARK    7  A    between atoms: C_14  and  C_15
REMARK    8  A    between atoms: C_18  and  C_20
REMARK                            x       y       z     vdW  Elec       q    Type
REMARK                         _______ _______ _______ _____ _____    ______ ____
ROOT
ATOM      8  C   UNL     1      -1.856   1.418  24.495  0.00  0.00    +0.022 C 
ATOM      9  C   UNL     1      -1.822   0.754  24.983  0.00  0.00    +0.094 C 
ATOM     10  N   UNL     1      -2.239   0.072  24.782  0.00  0.00    -0.276 N 
ATOM     11  C   UNL     1      -2.692   0.054  24.091  0.00  0.00    +0.094 C 
ATOM     12  C   UNL     1      -2.726   0.717  23.603  0.00  0.00    +0.022 C 
ATOM     13  C   UNL     1      -2.308   1.400  23.804  0.00  0.00    +0.015 C 
ATOM     18  C   UNL     1      -2.206  -0.593  25.270  0.00  0.00    +0.249 C 
ATOM     19  O   UNL     1      -1.754  -0.574  25.960  0.00  0.00    -0.270 OA
ENDROOT
BRANCH  18  20
ATOM     20  C   UNL     1      -2.623  -1.274  25.069  0.00  0.00    +0.054 A 
ATOM     21  C   UNL     1      -3.405  -1.368  25.315  0.00  0.00    +0.007 A 
ATOM     22  C   UNL     1      -3.822  -2.050  25.114  0.00  0.00    +0.030 A 
ATOM     23  C   UNL     1      -3.457  -2.640  24.666  0.00  0.00    +0.140 A 
ATOM     24  F   UNL     1      -3.876  -3.323  24.464  0.00  0.00    -0.204 F 
ATOM     25  C   UNL     1      -2.676  -2.547  24.420  0.00  0.00    +0.030 A 
ATOM     26  C   UNL     1      -2.258  -1.865  24.621  0.00  0.00    +0.007 A 
ENDBRANCH  18  20
BRANCH   8   7
ATOM      7  C   UNL     1      -1.439   2.100  24.696  0.00  0.00    +0.019 C 
BRANCH   7   6
ATOM      6  C   UNL     1      -1.232   2.242  25.483  0.00  0.00    +0.072 C 
BRANCH   6   3
ATOM      3  N   UNL     1      -0.805   2.918  25.682  0.00  0.00    -0.273 NA
BRANCH   3   2
ATOM      1  C   UNL     1       0.238   2.610  26.609  0.00  0.00    +0.019 C 
ATOM      2  C   UNL     1      -0.001   2.861  25.861  0.00  0.00    +0.072 C 
ENDBRANCH   3   2
BRANCH   3   4
ATOM      4  C   UNL     1      -1.181   3.652  25.703  0.00  0.00    +0.072 C 
ATOM      5  C   UNL     1      -0.818   4.311  25.364  0.00  0.00    +0.019 C 
ENDBRANCH   3   4
ENDBRANCH   6   3
ENDBRANCH   7   6
ENDBRANCH   8   7
BRANCH  13  14
ATOM     14  C   UNL     1      -2.343   2.063  23.317  0.00  0.00    +0.114 C 
BRANCH  14  15
ATOM     15  C   UNL     1      -2.883   2.090  22.693  0.00  0.00    +0.365 C 
ATOM     16  O   UNL     1      -3.658   2.337  22.829  0.00  0.00    -0.246 OA
ATOM     17  O   UNL     1      -2.648   1.868  21.934  0.00  0.00    -0.246 OA
ENDBRANCH  14  15
ENDBRANCH  13  14
TORSDOF 8
ENDMDL
