MODEL 1
REMARK VINA RESULT:     -11.2      0.000      0.000
REMARK  Name = 
REMARK  7 active torsions:
REMARK  status: ('A' for Active; 'I' for Inactive)
REMARK    1  A    between atoms: N_2  and  C_3
REMARK    2  A    between atoms: N_2  and  C_22
REMARK    3  A    between atoms: C_3  and  C_4
REMARK    4  A    between atoms: C_11  and  C_12
REMARK    5  A    between atoms: C_12  and  N_13
REMARK    6  A    between atoms: N_16  and  C_17
REMARK    7  A    between atoms: C_22  and  C_23
REMARK                            x       y       z     vdW  Elec       q    Type
REMARK                         _______ _______ _______ _____ _____    ______ ____
ROOT
ATOM      4  C   UNL     1      -4.275   2.709  25.113  0.00  0.00    +0.032 C 
ATOM      5  C   UNL     1      -3.750   2.285  24.726  0.00  0.00    +0.073 C 
ATOM      6  N   UNL     1      -4.476   2.017  25.013  0.00  0.00    -0.272 NA
ATOM      7  C   UNL     1      -4.942   2.830  25.484  0.00  0.00    +0.072 C 
ATOM      8  C   UNL     1      -5.447   3.083  25.812  0.00  0.00    +0.017 C 
ATOM      9  C   UNL     1      -4.986   2.438  25.392  0.00  0.00    +0.005 C 
ATOM     10  C   UNL     1      -5.371   1.650  25.355  0.00  0.00    +0.018 C 
ATOM     11  C   UNL     1      -4.882   1.201  24.979  0.00  0.00    +0.079 C 
ENDROOT
BRANCH   4   3
ATOM      3  C   UNL     1      -4.093   3.502  25.253  0.00  0.00    +0.074 C 
BRANCH   3   2
ATOM      1  C   UNL     1      -3.198   3.918  24.220  0.00  0.00    +0.090 C 
ATOM      2  N   UNL     1      -3.361   3.804  25.020  0.00  0.00    -0.268 NA
BRANCH   2  22
ATOM     22  C   UNL     1      -2.792   3.991  25.588  0.00  0.00    +0.099 C 
BRANCH  22  23
ATOM     23  C   UNL     1      -2.099   4.380  25.365  0.00  0.00    -0.006 A 
ATOM     24  C   UNL     1      -2.104   5.196  25.246  0.00  0.00    -0.003 A 
ATOM     25  C   UNL     1      -1.411   5.584  25.024  0.00  0.00    -0.000 A 
ATOM     26  C   UNL     1      -0.714   5.156  24.920  0.00  0.00    -0.000 A 
ATOM     27  C   UNL     1      -0.709   4.340  25.040  0.00  0.00    -0.000 A 
ATOM     28  C   UNL     1      -1.402   3.951  25.262  0.00  0.00    -0.003 A 
ENDBRANCH  22  23
ENDBRANCH   2  22
ENDBRANCH   3   2
ENDBRANCH   4   3
BRANCH  11  12
ATOM     12  C   UNL     1      -4.781   0.430  24.703  0.00  0.00    +0.133 C 
BRANCH  12  13
ATOM     13  N   UNL     1      -4.387  -0.126  25.167  0.00  0.00    -0.185 NA
ATOM     14  C   UNL     1      -4.042  -0.787  24.814  0.00  0.00    +0.344 C 
ATOM     15  O   UNL     1      -4.089  -0.891  23.997  0.00  0.00    -0.249 OA
ATOM     16  N   UNL     1      -3.648  -1.343  25.279  0.00  0.00    -0.160 NA
BRANCH  16  17
ATOM     17  C   UNL     1      -3.302  -2.004  24.926  0.00  0.00    +0.082 A 
ATOM     18  C   UNL     1      -2.508  -2.083  24.717  0.00  0.00    +0.052 A 
ATOM     19  S   UNL     1      -2.404  -2.829  24.383  0.00  0.00    -0.085 S 
ATOM     20  C   UNL     1      -3.134  -3.213  24.385  0.00  0.00    +0.037 A 
ATOM     21  C   UNL     1      -3.689  -2.703  24.721  0.00  0.00    +0.024 A 
ENDBRANCH  16  17
ENDBRANCH  12  13
ENDBRANCH  11  12
TORSDOF 7
ENDMDL
MODEL 2
REMARK VINA RESULT:     -10.7      1.903      5.470
REMARK  Name = 
REMARK  7 active torsions:
REMARK  status: ('A' for Active; 'I' for Inactive)
REMARK    1  A    between atoms: N_2  and  C_3
REMARK    2  A    between atoms: N_2  and  C_22
REMARK    3  A    between atoms: C_3  and  C_4
REMARK    4  A    between atoms: C_11  and  C_12
REMARK    5  A    between atoms: C_12  and  N_13
REMARK    6  A    between atoms: N_16  and  C_17
REMARK    7  A    between atoms: C_22  and  C_23
REMARK                            x       y       z     vdW  Elec       q    Type
REMARK                         _______ _______ _______ _____ _____    ______ ____
ROOT
ATOM      4  C   UNL     1      -4.683   1.140  24.920  0.00  0.00    +0.032 C 
ATOM      5  C   UNL     1      -3.957   1.367  24.754  0.00  0.00    +0.073 C 
ATOM      6  N   UNL     1      -4.600   1.862  24.909  0.00  0.00    -0.272 NA
ATOM      7  C   UNL     1      -5.428   1.246  25.095  0.00  0.00    +0.072 C 
ATOM      8  C   UNL     1      -6.060   1.174  25.241  0.00  0.00    +0.017 C 
ATOM      9  C   UNL     1      -5.308   1.632  25.071  0.00  0.00    +0.005 C 
ATOM     10  C   UNL     1      -5.376   2.507  25.096  0.00  0.00    +0.018 C 
ATOM     11  C   UNL     1      -4.678   2.771  24.936  0.00  0.00    +0.079 C 
ENDROOT
BRANCH   4   3
ATOM      3  C   UNL     1      -4.828   0.327  24.946  0.00  0.00    +0.074 C 
BRANCH   3   2
ATOM      1  C   UNL     1      -3.774  -0.346  25.636  0.00  0.00    +0.090 C 
ATOM      2  N   UNL     1      -4.197  -0.205  24.942  0.00  0.00    -0.268 NA
BRANCH   2  22
ATOM     22  C   UNL     1      -3.990  -0.594  24.245  0.00  0.00    +0.099 C 
BRANCH  22  23
ATOM     23  C   UNL     1      -3.860  -1.409  24.251  0.00  0.00    -0.006 A 
ATOM     24  C   UNL     1      -4.400  -1.914  23.885  0.00  0.00    -0.003 A 
ATOM     25  C   UNL     1      -4.270  -2.729  23.891  0.00  0.00    -0.000 A 
ATOM     26  C   UNL     1      -3.600  -3.038  24.262  0.00  0.00    -0.000 A 
ATOM     27  C   UNL     1      -3.061  -2.532  24.627  0.00  0.00    -0.000 A 
ATOM     28  C   UNL     1      -3.191  -1.717  24.622  0.00  0.00    -0.003 A 
ENDBRANCH  22  23
ENDBRANCH   2  22
ENDBRANCH   3   2
ENDBRANCH   4   3
BRANCH  11  12
ATOM     12  C   UNL     1      -4.247   3.468  24.843  0.00  0.00    +0.133 C 
BRANCH  12  13
ATOM     13  N   UNL     1      -3.613   3.632  25.344  0.00  0.00    -0.185 NA
ATOM     14  C   UNL     1      -2.947   4.020  25.052  0.00  0.00    +0.344 C 
ATOM     15  O   UNL     1      -2.914   4.245  24.259  0.00  0.00    -0.249 OA
ATOM     16  N   UNL     1      -2.312   4.184  25.553  0.00  0.00    -0.160 NA
BRANCH  16  17
ATOM     17  C   UNL     1      -1.645   4.573  25.261  0.00  0.00    +0.082 A 
ATOM     18  C   UNL     1      -0.938   4.216  25.030  0.00  0.00    +0.052 A 
ATOM     19  S   UNL     1      -0.425   4.810  24.776  0.00  0.00    -0.085 S 
ATOM     20  C   UNL     1      -0.814   5.532  24.849  0.00  0.00    +0.037 A 
ATOM     21  C   UNL     1      -1.569   5.387  25.149  0.00  0.00    +0.024 A 
ENDBRANCH  16  17
ENDBRANCH  12  13
ENDBRANCH  11  12
TORSDOF 7
ENDMDL
MODEL 3
REMARK VINA RESULT:      -9.8      3.973      5.344
REMARK  Name = 
REMARK  7 active torsions:
REMARK  status: ('A' for Active; 'I' for Inactive)
REMARK    1  A    between atoms: N_2  and  C_3
REMARK    2  A    between atoms: N_2  and  C_22
REMARK    3  A    between atoms: C_3  and  C_4
REMARK    4  A    between atoms: C_11  and  C_12
REMARK    5  A    between atoms: C_12  and  N_13
REMARK    6  A    between atoms: N_16  and  C_17
REMARK    7  A    between atoms: C_22  and  C_23
REMARK                            x       y       z     vdW  Elec       q    Type
REMARK                         _______ _______ _______ _____ _____    ______ ____
ROOT
ATOM      4  C   UNL     1      -1.789   0.786  24.363  0.00  0.00    +0.032 C 
ATOM      5  C   UNL     1      -1.493   1.462  24.117  0.00  0.00    +0.073 C 
ATOM      6  N   UNL     1      -1.096   0.739  24.148  0.00  0.00    -0.272 NA
ATOM      7  C   UNL     1      -1.772   0.031  24.523  0.00  0.00    +0.072 C 
ATOM      8  C   UNL     1      -1.911  -0.582  24.703  0.00  0.00    +0.017 C 
ATOM      9  C   UNL     1      -1.393   0.080  24.390  0.00  0.00    +0.005 C 
ATOM     10  C   UNL     1      -0.572  -0.143  24.172  0.00  0.00    +0.018 C 
ATOM     11  C   UNL     1      -0.244   0.501  23.924  0.00  0.00    +0.079 C 
ENDROOT
BRANCH   4   3
ATOM      3  C   UNL     1      -2.575   0.787  24.617  0.00  0.00    +0.074 C 
BRANCH   3   2
ATOM      1  C   UNL     1      -2.713   2.125  25.099  0.00  0.00    +0.090 C 
ATOM      2  N   UNL     1      -2.997   1.495  24.648  0.00  0.00    -0.268 NA
BRANCH   2  22
ATOM     22  C   UNL     1      -3.703   1.573  24.229  0.00  0.00    +0.099 C 
BRANCH  22  23
ATOM     23  C   UNL     1      -4.390   1.814  24.618  0.00  0.00    -0.006 A 
ATOM     24  C   UNL     1      -4.900   1.252  24.940  0.00  0.00    -0.003 A 
ATOM     25  C   UNL     1      -5.586   1.493  25.330  0.00  0.00    -0.000 A 
ATOM     26  C   UNL     1      -5.762   2.297  25.396  0.00  0.00    -0.000 A 
ATOM     27  C   UNL     1      -5.252   2.859  25.074  0.00  0.00    -0.000 A 
ATOM     28  C   UNL     1      -4.565   2.618  24.685  0.00  0.00    -0.003 A 
ENDBRANCH  22  23
ENDBRANCH   2  22
ENDBRANCH   3   2
ENDBRANCH   4   3
BRANCH  11  12
ATOM     12  C   UNL     1       0.464   0.802  23.628  0.00  0.00    +0.133 C 
BRANCH  12  13
ATOM     13  N   UNL     1       1.009   0.298  23.269  0.00  0.00    -0.185 NA
ATOM     14  C   UNL     1       1.802   0.518  23.218  0.00  0.00    +0.344 C 
ATOM     15  O   UNL     1       2.050   1.242  23.526  0.00  0.00    -0.249 OA
ATOM     16  N   UNL     1       2.347   0.014  22.859  0.00  0.00    -0.160 NA
BRANCH  16  17
ATOM     17  C   UNL     1       3.141   0.233  22.807  0.00  0.00    +0.082 A 
ATOM     18  C   UNL     1       3.769  -0.118  23.210  0.00  0.00    +0.052 A 
ATOM     19  S   UNL     1       4.462   0.274  22.996  0.00  0.00    -0.085 S 
ATOM     20  C   UNL     1       4.263   0.869  22.461  0.00  0.00    +0.037 A 
ATOM     21  C   UNL     1       3.447   0.844  22.343  0.00  0.00    +0.024 A 
ENDBRANCH  16  17
ENDBRANCH  12  13
ENDBRANCH  11  12
TORSDOF 7
ENDMDL
MODEL 4
REMARK VINA RESULT:      -9.0      3.687      5.122
REMARK  Name = 
REMARK  7 active torsions:
REMARK  status: ('A' for Active; 'I' for Inactive)
REMARK    1  A    between atoms: N_2  and  C_3
REMARK    2  A    between atoms: N_2  and  C_22
REMARK    3  A    between atoms: C_3  and  C_4
REMARK    4  A    between atoms: C_11  and  C_12
REMARK    5  A    between atoms: C_12  and  N_13
REMARK    6  A    between atoms: N_16  and  C_17
REMARK    7  A    between atoms: C_22  and  C_23
REMARK                            x       y       z     vdW  Elec       q    Type
REMARK                         _______ _______ _______ _____ _____    ______ ____
ROOT
ATOM      4  C   UNL     1      -1.652   2.083  24.849  0.00  0.00    +0.032 C 
ATOM      5  C   UNL     1      -1.655   1.496  24.338  0.00  0.00    +0.073 C 
ATOM      6  N   UNL     1      -0.987   1.869  24.648  0.00  0.00    -0.272 NA
ATOM      7  C   UNL     1      -1.325   2.614  25.303  0.00  0.00    +0.072 C 
ATOM      8  C   UNL     1      -1.202   3.100  25.723  0.00  0.00    +0.017 C 
ATOM      9  C   UNL     1      -0.992   2.444  25.148  0.00  0.00    +0.005 C 
ATOM     10  C   UNL     1      -0.135   2.310  25.012  0.00  0.00    +0.018 C 
ATOM     11  C   UNL     1      -0.094   1.735  24.511  0.00  0.00    +0.079 C 
ENDROOT
BRANCH   4   3
ATOM      3  C   UNL     1      -2.385   2.362  25.108  0.00  0.00    +0.074 C 
BRANCH   3   2
ATOM      1  C   UNL     1      -3.182   1.182  24.988  0.00  0.00    +0.090 C 
ATOM      2  N   UNL     1      -3.079   1.991  24.859  0.00  0.00    -0.268 NA
BRANCH   2  22
ATOM     22  C   UNL     1      -3.668   2.428  24.483  0.00  0.00    +0.099 C 
BRANCH  22  23
ATOM     23  C   UNL     1      -4.430   2.453  24.799  0.00  0.00    -0.006 A 
ATOM     24  C   UNL     1      -4.661   3.091  25.267  0.00  0.00    -0.003 A 
ATOM     25  C   UNL     1      -5.423   3.116  25.584  0.00  0.00    -0.000 A 
ATOM     26  C   UNL     1      -5.952   2.501  25.433  0.00  0.00    -0.000 A 
ATOM     27  C   UNL     1      -5.720   1.862  24.965  0.00  0.00    -0.000 A 
ATOM     28  C   UNL     1      -4.959   1.838  24.648  0.00  0.00    -0.003 A 
ENDBRANCH  22  23
ENDBRANCH   2  22
ENDBRANCH   3   2
ENDBRANCH   4   3
BRANCH  11  12
ATOM     12  C   UNL     1       0.441   1.269  24.093  0.00  0.00    +0.133 C 
BRANCH  12  13
ATOM     13  N   UNL     1       1.184   1.568  23.896  0.00  0.00    -0.185 NA
ATOM     14  C   UNL     1       1.729   1.092  23.502  0.00  0.00    +0.344 C 
ATOM     15  O   UNL     1       1.532   0.315  23.304  0.00  0.00    -0.249 OA
ATOM     16  N   UNL     1       2.472   1.391  23.305  0.00  0.00    -0.160 NA
BRANCH  16  17
ATOM     17  C   UNL     1       3.018   0.915  22.910  0.00  0.00    +0.082 A 
ATOM     18  C   UNL     1       3.816   0.830  23.102  0.00  0.00    +0.052 A 
ATOM     19  S   UNL     1       4.152   0.303  22.564  0.00  0.00    -0.085 S 
ATOM     20  C   UNL     1       3.564   0.061  22.041  0.00  0.00    +0.037 A 
ATOM     21  C   UNL     1       2.862   0.440  22.253  0.00  0.00    +0.024 A 
ENDBRANCH  16  17
ENDBRANCH  12  13
ENDBRANCH  11  12
TORSDOF 7
ENDMDL
MODEL 5
REMARK VINA RESULT:      -8.8      2.891      6.379
REMARK  Name = 
REMARK  7 active torsions:
REMARK  status: ('A' for Active; 'I' for Inactive)
REMARK    1  A    between atoms: N_2  and  C_3
REMARK    2  A    between atoms: N_2  and  C_22
REMARK    3  A    between atoms: C_3  and  C_4
REMARK    4  A    between atoms: C_11  and  C_12
REMARK    5  A    between atoms: C_12  and  N_13
REMARK    6  A    between atoms: N_16  and  C_17
REMARK    7  A    between atoms: C_22  and  C_23
REMARK                            x       y       z     vdW  Elec       q    Type
REMARK                         _______ _______ _______ _____ _____    ______ ____
ROOT
ATOM      4  C   UNL     1      -1.062  -0.282  24.751  0.00  0.00    +0.032 C 
ATOM      5  C   UNL     1      -1.423   0.247  25.192  0.00  0.00    +0.073 C 
ATOM      6  N   UNL     1      -0.711   0.354  24.788  0.00  0.00    -0.272 NA
ATOM      7  C   UNL     1      -0.500  -0.545  24.291  0.00  0.00    +0.072 C 
ATOM      8  C   UNL     1      -0.114  -0.902  23.904  0.00  0.00    +0.017 C 
ATOM      9  C   UNL     1      -0.363  -0.170  24.357  0.00  0.00    +0.005 C 
ATOM     10  C   UNL     1       0.175   0.521  24.300  0.00  0.00    +0.018 C 
ATOM     11  C   UNL     1      -0.147   1.068  24.724  0.00  0.00    +0.079 C 
ENDROOT
BRANCH   4   3
ATOM      3  C   UNL     1      -1.421  -1.022  24.677  0.00  0.00    +0.074 C 
BRANCH   3   2
ATOM      1  C   UNL     1      -2.054  -1.471  25.877  0.00  0.00    +0.090 C 
ATOM      2  N   UNL     1      -2.108  -1.191  25.102  0.00  0.00    -0.268 NA
BRANCH   2  22
ATOM     22  C   UNL     1      -2.847  -1.080  24.754  0.00  0.00    +0.099 C 
BRANCH  22  23
ATOM     23  C   UNL     1      -3.295  -1.732  24.520  0.00  0.00    -0.006 A 
ATOM     24  C   UNL     1      -3.179  -2.463  24.883  0.00  0.00    -0.003 A 
ATOM     25  C   UNL     1      -3.627  -3.116  24.649  0.00  0.00    -0.000 A 
ATOM     26  C   UNL     1      -4.191  -3.035  24.052  0.00  0.00    -0.000 A 
ATOM     27  C   UNL     1      -4.307  -2.304  23.689  0.00  0.00    -0.000 A 
ATOM     28  C   UNL     1      -3.859  -1.652  23.923  0.00  0.00    -0.003 A 
ENDBRANCH  22  23
ENDBRANCH   2  22
ENDBRANCH   3   2
ENDBRANCH   4   3
BRANCH  11  12
ATOM     12  C   UNL     1      -0.045   1.847  24.975  0.00  0.00    +0.133 C 
BRANCH  12  13
ATOM     13  N   UNL     1      -0.291   2.471  24.495  0.00  0.00    -0.185 NA
ATOM     14  C   UNL     1      -0.598   3.157  24.836  0.00  0.00    +0.344 C 
ATOM     15  O   UNL     1      -0.659   3.218  25.657  0.00  0.00    -0.249 OA
ATOM     16  N   UNL     1      -0.843   3.781  24.357  0.00  0.00    -0.160 NA
BRANCH  16  17
ATOM     17  C   UNL     1      -1.150   4.467  24.697  0.00  0.00    +0.082 A 
ATOM     18  C   UNL     1      -1.892   4.543  25.050  0.00  0.00    +0.052 A 
ATOM     19  S   UNL     1      -1.969   5.320  25.315  0.00  0.00    -0.085 S 
ATOM     20  C   UNL     1      -1.277   5.725  25.127  0.00  0.00    +0.037 A 
ATOM     21  C   UNL     1      -0.770   5.198  24.744  0.00  0.00    +0.024 A 
ENDBRANCH  16  17
ENDBRANCH  12  13
ENDBRANCH  11  12
TORSDOF 7
ENDMDL
MODEL 6
REMARK VINA RESULT:      -8.7      2.238      3.297
REMARK  Name = 
REMARK  7 active torsions:
REMARK  status: ('A' for Active; 'I' for Inactive)
REMARK    1  A    between atoms: N_2  and  C_3
REMARK    2  A    between atoms: N_2  and  C_22
REMARK    3  A    between atoms: C_3  and  C_4
REMARK    4  A    between atoms: C_11  and  C_12
REMARK    5  A    between atoms: C_12  and  N_13
REMARK    6  A    between atoms: N_16  and  C_17
REMARK    7  A    between atoms: C_22  and  C_23
REMARK                            x       y       z     vdW  Elec       q    Type
REMARK                         _______ _______ _______ _____ _____    ______ ____
ROOT
ATOM      4  C   UNL     1      -0.264   1.511  24.722  0.00  0.00    +0.032 C 
ATOM      5  C   UNL     1      -0.860   1.252  25.150  0.00  0.00    +0.073 C 
ATOM      6  N   UNL     1      -0.384   0.798  24.652  0.00  0.00    -0.272 NA
ATOM      7  C   UNL     1       0.322   1.444  24.224  0.00  0.00    +0.072 C 
ATOM      8  C   UNL     1       0.832   1.547  23.830  0.00  0.00    +0.017 C 
ATOM      9  C   UNL     1       0.199   1.059  24.235  0.00  0.00    +0.005 C 
ATOM     10  C   UNL     1       0.188   0.203  24.043  0.00  0.00    +0.018 C 
ATOM     11  C   UNL     1      -0.389  -0.091  24.447  0.00  0.00    +0.079 C 
ENDROOT
BRANCH   4   3
ATOM      3  C   UNL     1      -0.089   2.317  24.767  0.00  0.00    +0.074 C 
BRANCH   3   2
ATOM      1  C   UNL     1      -0.511   2.933  25.986  0.00  0.00    +0.090 C 
ATOM      2  N   UNL     1      -0.596   2.828  25.172  0.00  0.00    -0.268 NA
BRANCH   2  22
ATOM     22  C   UNL     1      -1.187   3.232  24.763  0.00  0.00    +0.099 C 
BRANCH  22  23
ATOM     23  C   UNL     1      -1.322   4.031  24.916  0.00  0.00    -0.006 A 
ATOM     24  C   UNL     1      -0.771   4.596  24.674  0.00  0.00    -0.003 A 
ATOM     25  C   UNL     1      -0.906   5.395  24.827  0.00  0.00    -0.000 A 
ATOM     26  C   UNL     1      -1.592   5.630  25.222  0.00  0.00    -0.000 A 
ATOM     27  C   UNL     1      -2.142   5.065  25.463  0.00  0.00    -0.000 A 
ATOM     28  C   UNL     1      -2.007   4.265  25.310  0.00  0.00    -0.003 A 
ENDBRANCH  22  23
ENDBRANCH   2  22
ENDBRANCH   3   2
ENDBRANCH   4   3
BRANCH  11  12
ATOM     12  C   UNL     1      -0.783  -0.798  24.605  0.00  0.00    +0.133 C 
BRANCH  12  13
ATOM     13  N   UNL     1      -1.589  -0.790  24.784  0.00  0.00    -0.185 NA
ATOM     14  C   UNL     1      -2.066  -1.424  24.562  0.00  0.00    +0.344 C 
ATOM     15  O   UNL     1      -1.739  -2.067  24.160  0.00  0.00    -0.249 OA
ATOM     16  N   UNL     1      -2.871  -1.417  24.740  0.00  0.00    -0.160 NA
BRANCH  16  17
ATOM     17  C   UNL     1      -3.350  -2.051  24.518  0.00  0.00    +0.082 A 
ATOM     18  C   UNL     1      -3.930  -2.039  23.932  0.00  0.00    +0.052 A 
ATOM     19  S   UNL     1      -4.270  -2.789  23.895  0.00  0.00    -0.085 S 
ATOM     20  C   UNL     1      -3.901  -3.265  24.457  0.00  0.00    +0.037 A 
ATOM     21  C   UNL     1      -3.332  -2.810  24.843  0.00  0.00    +0.024 A 
ENDBRANCH  16  17
ENDBRANCH  12  13
ENDBRANCH  11  12
TORSDOF 7
ENDMDL
MODEL 7
REMARK VINA RESULT:      -8.7      4.580      6.667
REMARK  Name = 
REMARK  7 active torsions:
REMARK  status: ('A' for Active; 'I' for Inactive)
REMARK    1  A    between atoms: N_2  and  C_3
REMARK    2  A    between atoms: N_2  and  C_22
REMARK    3  A    between atoms: C_3  and  C_4
REMARK    4  A    between atoms: C_11  and  C_12
REMARK    5  A    between atoms: C_12  and  N_13
REMARK    6  A    between atoms: N_16  and  C_17
REMARK    7  A    between atoms: C_22  and  C_23
REMARK                            x       y       z     vdW  Elec       q    Type
REMARK                         _______ _______ _______ _____ _____    ______ ____
ROOT
ATOM      4  C   UNL     1      -0.720  -0.083  24.124  0.00  0.00    +0.032 C 
ATOM      5  C   UNL     1      -0.304  -0.731  24.013  0.00  0.00    +0.073 C 
ATOM      6  N   UNL     1      -0.077   0.036  23.808  0.00  0.00    -0.272 NA
ATOM      7  C   UNL     1      -0.857   0.676  24.090  0.00  0.00    +0.072 C 
ATOM      8  C   UNL     1      -1.113   1.276  24.132  0.00  0.00    +0.017 C 
ATOM      9  C   UNL     1      -0.491   0.666  23.920  0.00  0.00    +0.005 C 
ATOM     10  C   UNL     1       0.238   0.975  23.540  0.00  0.00    +0.018 C 
ATOM     11  C   UNL     1       0.678   0.364  23.413  0.00  0.00    +0.079 C 
ENDROOT
BRANCH   4   3
ATOM      3  C   UNL     1      -1.461  -0.166  24.480  0.00  0.00    +0.074 C 
BRANCH   3   2
ATOM      1  C   UNL     1      -1.309  -1.587  24.464  0.00  0.00    +0.090 C 
ATOM      2  N   UNL     1      -1.748  -0.918  24.663  0.00  0.00    -0.268 NA
BRANCH   2  22
ATOM     22  C   UNL     1      -2.475  -1.000  25.046  0.00  0.00    +0.099 C 
BRANCH  22  23
ATOM     23  C   UNL     1      -3.061  -1.481  24.719  0.00  0.00    -0.006 A 
ATOM     24  C   UNL     1      -3.672  -1.144  24.279  0.00  0.00    -0.003 A 
ATOM     25  C   UNL     1      -4.258  -1.625  23.953  0.00  0.00    -0.000 A 
ATOM     26  C   UNL     1      -4.232  -2.442  24.067  0.00  0.00    -0.000 A 
ATOM     27  C   UNL     1      -3.620  -2.778  24.506  0.00  0.00    -0.000 A 
ATOM     28  C   UNL     1      -3.034  -2.297  24.833  0.00  0.00    -0.003 A 
ENDBRANCH  22  23
ENDBRANCH   2  22
ENDBRANCH   3   2
ENDBRANCH   4   3
BRANCH  11  12
ATOM     12  C   UNL     1       1.406   0.135  23.102  0.00  0.00    +0.133 C 
BRANCH  12  13
ATOM     13  N   UNL     1       2.051   0.648  23.141  0.00  0.00    -0.185 NA
ATOM     14  C   UNL     1       2.819   0.348  23.119  0.00  0.00    +0.344 C 
ATOM     15  O   UNL     1       2.942  -0.466  23.059  0.00  0.00    -0.249 OA
ATOM     16  N   UNL     1       3.464   0.861  23.158  0.00  0.00    -0.160 NA
BRANCH  16  17
ATOM     17  C   UNL     1       4.232   0.561  23.136  0.00  0.00    +0.082 A 
ATOM     18  C   UNL     1       4.706   0.393  23.790  0.00  0.00    +0.052 A 
ATOM     19  S   UNL     1       5.428   0.104  23.514  0.00  0.00    -0.085 S 
ATOM     20  C   UNL     1       5.400   0.093  22.691  0.00  0.00    +0.037 A 
ATOM     21  C   UNL     1       4.661   0.375  22.456  0.00  0.00    +0.024 A 
ENDBRANCH  16  17
ENDBRANCH  12  13
ENDBRANCH  11  12
TORSDOF 7
ENDMDL
MODEL 8
REMARK VINA RESULT:      -8.3      4.046      5.470
REMARK  Name = 
REMARK  7 active torsions:
REMARK  status: ('A' for Active; 'I' for Inactive)
REMARK    1  A    between atoms: N_2  and  C_3
REMARK    2  A    between atoms: N_2  and  C_22
REMARK    3  A    between atoms: C_3  and  C_4
REMARK    4  A    between atoms: C_11  and  C_12
REMARK    5  A    between atoms: C_12  and  N_13
REMARK    6  A    between atoms: N_16  and  C_17
REMARK    7  A    between atoms: C_22  and  C_23
REMARK                            x       y       z     vdW  Elec       q    Type
REMARK                         _______ _______ _______ _____ _____    ______ ____
ROOT
ATOM      4  C   UNL     1       0.026   0.168  23.773  0.00  0.00    +0.032 C 
ATOM      5  C   UNL     1      -0.145   0.887  23.530  0.00  0.00    +0.073 C 
ATOM      6  N   UNL     1      -0.656   0.370  23.921  0.00  0.00    -0.272 NA
ATOM      7  C   UNL     1      -0.122  -0.512  24.107  0.00  0.00    +0.072 C 
ATOM      8  C   UNL     1      -0.093  -1.118  24.350  0.00  0.00    +0.017 C 
ATOM      9  C   UNL     1      -0.482  -0.334  24.155  0.00  0.00    +0.005 C 
ATOM     10  C   UNL     1      -1.319  -0.246  24.404  0.00  0.00    +0.018 C 
ATOM     11  C   UNL     1      -1.526   0.455  24.182  0.00  0.00    +0.079 C 
ENDROOT
BRANCH   4   3
ATOM      3  C   UNL     1       0.790  -0.109  23.627  0.00  0.00    +0.074 C 
BRANCH   3   2
ATOM      1  C   UNL     1       1.442   1.163  23.637  0.00  0.00    +0.090 C 
ATOM      2  N   UNL     1       1.364   0.403  23.326  0.00  0.00    -0.268 NA
BRANCH   2  22
ATOM     22  C   UNL     1       1.858   0.154  22.714  0.00  0.00    +0.099 C 
BRANCH  22  23
ATOM     23  C   UNL     1       2.677   0.216  22.795  0.00  0.00    -0.006 A 
ATOM     24  C   UNL     1       3.058   0.921  22.599  0.00  0.00    -0.003 A 
ATOM     25  C   UNL     1       3.877   0.983  22.679  0.00  0.00    -0.000 A 
ATOM     26  C   UNL     1       4.314   0.340  22.956  0.00  0.00    -0.000 A 
ATOM     27  C   UNL     1       3.933  -0.365  23.152  0.00  0.00    -0.000 A 
ATOM     28  C   UNL     1       3.114  -0.427  23.071  0.00  0.00    -0.003 A 
ENDBRANCH  22  23
ENDBRANCH   2  22
ENDBRANCH   3   2
ENDBRANCH   4   3
BRANCH  11  12
ATOM     12  C   UNL     1      -2.163   0.979  24.181  0.00  0.00    +0.133 C 
BRANCH  12  13
ATOM     13  N   UNL     1      -2.745   0.924  24.763  0.00  0.00    -0.185 NA
ATOM     14  C   UNL     1      -3.426   1.386  24.709  0.00  0.00    +0.344 C 
ATOM     15  O   UNL     1      -3.525   1.904  24.075  0.00  0.00    -0.249 OA
ATOM     16  N   UNL     1      -4.008   1.331  25.291  0.00  0.00    -0.160 NA
BRANCH  16  17
ATOM     17  C   UNL     1      -4.690   1.793  25.239  0.00  0.00    +0.082 A 
ATOM     18  C   UNL     1      -5.433   1.536  24.990  0.00  0.00    +0.052 A 
ATOM     19  S   UNL     1      -5.949   2.177  25.023  0.00  0.00    -0.085 S 
ATOM     20  C   UNL     1      -5.527   2.831  25.292  0.00  0.00    +0.037 A 
ATOM     21  C   UNL     1      -4.748   2.595  25.426  0.00  0.00    +0.024 A 
ENDBRANCH  16  17
ENDBRANCH  12  13
ENDBRANCH  11  12
TORSDOF 7
ENDMDL
MODEL 9
REMARK VINA RESULT:      -7.7     14.678     16.718
REMARK  Name = 
REMARK  7 active torsions:
REMARK  status: ('A' for Active; 'I' for Inactive)
REMARK    1  A    between atoms: N_2  and  C_3
REMARK    2  A    between atoms: N_2  and  C_22
REMARK    3  A    between atoms: C_3  and  C_4
REMARK    4  A    between atoms: C_11  and  C_12
REMARK    5  A    between atoms: C_12  and  N_13
REMARK    6  A    between atoms: N_16  and  C_17
REMARK    7  A    between atoms: C_22  and  C_23
REMARK                            x       y       z     vdW  Elec       q    Type
REMARK                         _______ _______ _______ _____ _____    ______ ____
ROOT
ATOM      4  C   UNL     1      -4.801 -10.468  15.210  0.00  0.00    +0.032 C 
ATOM      5  C   UNL     1      -5.442 -10.311  14.797  0.00  0.00    +0.073 C 
ATOM      6  N   UNL     1      -4.693 -10.474  14.491  0.00  0.00    -0.272 NA
ATOM      7  C   UNL     1      -4.055 -10.640  15.307  0.00  0.00    +0.072 C 
ATOM      8  C   UNL     1      -3.463 -10.780  15.546  0.00  0.00    +0.017 C 
ATOM      9  C   UNL     1      -4.069 -10.626  14.903  0.00  0.00    +0.005 C 
ATOM     10  C   UNL     1      -3.775 -10.672  14.077  0.00  0.00    +0.018 C 
ATOM     11  C   UNL     1      -4.380 -10.523  13.635  0.00  0.00    +0.079 C 
ENDROOT
BRANCH   4   3
ATOM      3  C   UNL     1      -4.874 -10.472  16.033  0.00  0.00    +0.074 C 
BRANCH   3   2
ATOM      1  C   UNL     1      -5.815  -9.441  16.340  0.00  0.00    +0.090 C 
ATOM      2  N   UNL     1      -5.580 -10.231  16.385  0.00  0.00    -0.268 NA
BRANCH   2  22
ATOM     22  C   UNL     1      -6.050 -10.779  16.784  0.00  0.00    +0.099 C 
BRANCH  22  23
ATOM     23  C   UNL     1      -6.199 -10.686  17.590  0.00  0.00    -0.006 A 
ATOM     24  C   UNL     1      -6.970 -10.564  17.855  0.00  0.00    -0.003 A 
ATOM     25  C   UNL     1      -7.119 -10.471  18.662  0.00  0.00    -0.000 A 
ATOM     26  C   UNL     1      -6.496 -10.500  19.202  0.00  0.00    -0.000 A 
ATOM     27  C   UNL     1      -5.725 -10.622  18.937  0.00  0.00    -0.000 A 
ATOM     28  C   UNL     1      -5.576 -10.715  18.130  0.00  0.00    -0.003 A 
ENDBRANCH  22  23
ENDBRANCH   2  22
ENDBRANCH   3   2
ENDBRANCH   4   3
BRANCH  11  12
ATOM     12  C   UNL     1      -4.613 -10.450  12.848  0.00  0.00    +0.133 C 
BRANCH  12  13
ATOM     13  N   UNL     1      -4.195  -9.953  12.338  0.00  0.00    -0.185 NA
ATOM     14  C   UNL     1      -4.449  -9.855  11.559  0.00  0.00    +0.344 C 
ATOM     15  O   UNL     1      -5.120 -10.253  11.290  0.00  0.00    -0.249 OA
ATOM     16  N   UNL     1      -4.032  -9.358  11.049  0.00  0.00    -0.160 NA
BRANCH  16  17
ATOM     17  C   UNL     1      -4.285  -9.260  10.270  0.00  0.00    +0.082 A 
ATOM     18  C   UNL     1      -3.990  -9.657   9.610  0.00  0.00    +0.052 A 
ATOM     19  S   UNL     1      -4.401  -9.389   8.947  0.00  0.00    -0.085 S 
ATOM     20  C   UNL     1      -4.949  -8.827   9.196  0.00  0.00    +0.037 A 
ATOM     21  C   UNL     1      -4.879  -8.746  10.014  0.00  0.00    +0.024 A 
ENDBRANCH  16  17
ENDBRANCH  12  13
ENDBRANCH  11  12
TORSDOF 7
ENDMDL
