MODEL 1
REMARK VINA RESULT:     -10.9      0.000      0.000
REMARK  Name = 
REMARK  5 active torsions:
REMARK  status: ('A' for Active; 'I' for Inactive)
REMARK    1  A    between atoms: O_2  and  C_3
REMARK    2  A    between atoms: C_6  and  C_9
REMARK    3  A    between atoms: N_11  and  C_12
REMARK    4  A    between atoms: C_19  and  C_20
REMARK    5  A    between atoms: C_20  and  C_22
REMARK                            x       y       z     vdW  Elec       q    Type
REMARK                         _______ _______ _______ _____ _____    ______ ____
ROOT
ATOM     12  C   UNL     1      -0.339   0.576  24.007  0.00  0.00    +0.096 C 
ATOM     13  C   UNL     1      -0.507  -0.134  24.395  0.00  0.00    +0.022 C 
ATOM     14  C   UNL     1      -1.264  -0.272  24.690  0.00  0.00    +0.002 C 
ATOM     15  C   UNL     1      -1.853   0.297  24.598  0.00  0.00    +0.002 C 
ATOM     16  C   UNL     1      -2.022  -0.411  24.985  0.00  0.00    +0.000 C 
ATOM     17  C   UNL     1      -2.612   0.159  24.893  0.00  0.00    +0.000 C 
ATOM     18  C   UNL     1      -3.201   0.728  24.801  0.00  0.00    +0.003 C 
ATOM     19  C   UNL     1      -3.032   1.437  24.413  0.00  0.00    +0.039 C 
ATOM     30  C   UNL     1      -2.275   1.576  24.118  0.00  0.00    +0.152 C 
ATOM     31  O   UNL     1      -2.107   2.285  23.731  0.00  0.00    -0.223 OA
ATOM     32  C   UNL     1      -1.685   1.007  24.210  0.00  0.00    +0.032 C 
ATOM     33  C   UNL     1      -0.928   1.145  23.915  0.00  0.00    +0.022 C 
ATOM     34  C   UNL     1      -0.759   1.854  23.528  0.00  0.00    +0.002 C 
ENDROOT
BRANCH  12  11
ATOM      9  C   UNL     1       0.844   0.102  23.358  0.00  0.00    +0.265 C 
ATOM     10  O   UNL     1       0.509  -0.651  23.298  0.00  0.00    -0.268 OA
ATOM     11  N   UNL     1       0.420   0.714  23.712  0.00  0.00    -0.203 NA
BRANCH   9   6
ATOM      3  C   UNL     1       3.117   0.518  22.474  0.00  0.00    +0.139 A 
ATOM      4  C   UNL     1       2.853   0.924  23.141  0.00  0.00    +0.037 A 
ATOM      5  C   UNL     1       2.095   0.785  23.436  0.00  0.00    +0.008 A 
ATOM      6  C   UNL     1       1.601   0.240  23.063  0.00  0.00    +0.055 A 
ATOM      7  C   UNL     1       1.865  -0.166  22.396  0.00  0.00    +0.008 A 
ATOM      8  C   UNL     1       2.623  -0.028  22.100  0.00  0.00    +0.037 A 
BRANCH   3   2
ATOM      1  C   UNL     1       4.530   0.578  22.672  0.00  0.00    +0.252 C 
ATOM      2  O   UNL     1       3.875   0.656  22.178  0.00  0.00    -0.471 OA
ENDBRANCH   3   2
ENDBRANCH   9   6
ENDBRANCH  12  11
BRANCH  19  20
ATOM     20  C   UNL     1      -3.622   2.007  24.321  0.00  0.00    +0.079 C 
ATOM     21  C   UNL     1      -3.929   2.165  23.572  0.00  0.00    +0.010 C 
BRANCH  20  22
ATOM     22  C   UNL     1      -3.905   2.418  24.977  0.00  0.00    +0.225 C 
ATOM     23  O   UNL     1      -3.384   2.855  25.447  0.00  0.00    -0.275 OA
ATOM     24  N   UNL     1      -4.708   2.395  25.166  0.00  0.00    -0.280 N 
ATOM     25  C   UNL     1      -4.991   2.806  25.822  0.00  0.00    +0.093 C 
ATOM     26  C   UNL     1      -5.794   2.783  26.010  0.00  0.00    +0.022 C 
ATOM     27  C   UNL     1      -6.314   2.347  25.541  0.00  0.00    +0.004 C 
ATOM     28  C   UNL     1      -6.031   1.935  24.884  0.00  0.00    +0.022 C 
ATOM     29  C   UNL     1      -5.228   1.959  24.697  0.00  0.00    +0.093 C 
ENDBRANCH  20  22
ENDBRANCH  19  20
TORSDOF 5
ENDMDL
MODEL 2
REMARK VINA RESULT:     -10.3      1.409      2.046
REMARK  Name = 
REMARK  5 active torsions:
REMARK  status: ('A' for Active; 'I' for Inactive)
REMARK    1  A    between atoms: O_2  and  C_3
REMARK    2  A    between atoms: C_6  and  C_9
REMARK    3  A    between atoms: N_11  and  C_12
REMARK    4  A    between atoms: C_19  and  C_20
REMARK    5  A    between atoms: C_20  and  C_22
REMARK                            x       y       z     vdW  Elec       q    Type
REMARK                         _______ _______ _______ _____ _____    ______ ____
ROOT
ATOM     12  C   UNL     1      -0.694   2.481  24.414  0.00  0.00    +0.096 C 
ATOM     13  C   UNL     1      -0.420   2.852  25.099  0.00  0.00    +0.022 C 
ATOM     14  C   UNL     1      -0.942   3.276  25.576  0.00  0.00    +0.002 C 
ATOM     15  C   UNL     1      -1.738   3.330  25.369  0.00  0.00    +0.002 C 
ATOM     16  C   UNL     1      -1.464   3.700  26.052  0.00  0.00    +0.000 C 
ATOM     17  C   UNL     1      -2.262   3.754  25.846  0.00  0.00    +0.000 C 
ATOM     18  C   UNL     1      -3.058   3.807  25.639  0.00  0.00    +0.003 C 
ATOM     19  C   UNL     1      -3.332   3.436  24.954  0.00  0.00    +0.039 C 
ATOM     30  C   UNL     1      -2.810   3.013  24.477  0.00  0.00    +0.152 C 
ATOM     31  O   UNL     1      -3.084   2.642  23.793  0.00  0.00    -0.223 OA
ATOM     32  C   UNL     1      -2.013   2.959  24.684  0.00  0.00    +0.032 C 
ATOM     33  C   UNL     1      -1.491   2.535  24.207  0.00  0.00    +0.022 C 
ATOM     34  C   UNL     1      -1.765   2.164  23.523  0.00  0.00    +0.002 C 
ENDROOT
BRANCH  12  11
ATOM      9  C   UNL     1       0.255   1.425  24.251  0.00  0.00    +0.265 C 
ATOM     10  O   UNL     1       0.158   1.215  25.045  0.00  0.00    -0.268 OA
ATOM     11  N   UNL     1      -0.171   2.057  23.937  0.00  0.00    -0.203 NA
BRANCH   9   6
ATOM      3  C   UNL     1       1.824   0.154  22.821  0.00  0.00    +0.139 A 
ATOM      4  C   UNL     1       1.060  -0.129  22.947  0.00  0.00    +0.037 A 
ATOM      5  C   UNL     1       0.537   0.295  23.425  0.00  0.00    +0.008 A 
ATOM      6  C   UNL     1       0.778   1.001  23.775  0.00  0.00    +0.055 A 
ATOM      7  C   UNL     1       1.542   1.285  23.648  0.00  0.00    +0.008 A 
ATOM      8  C   UNL     1       2.066   0.862  23.171  0.00  0.00    +0.037 A 
BRANCH   3   2
ATOM      1  C   UNL     1       3.048   0.082  22.087  0.00  0.00    +0.252 C 
ATOM      2  O   UNL     1       2.348  -0.269  22.344  0.00  0.00    -0.471 OA
ENDBRANCH   3   2
ENDBRANCH   9   6
ENDBRANCH  12  11
BRANCH  19  20
ATOM     20  C   UNL     1      -4.130   3.490  24.747  0.00  0.00    +0.079 C 
ATOM     21  C   UNL     1      -4.345   3.576  23.956  0.00  0.00    +0.010 C 
BRANCH  20  22
ATOM     22  C   UNL     1      -4.710   3.459  25.331  0.00  0.00    +0.225 C 
ATOM     23  O   UNL     1      -4.755   4.054  25.902  0.00  0.00    -0.275 OA
ATOM     24  N   UNL     1      -5.248   2.833  25.346  0.00  0.00    -0.280 N 
ATOM     25  C   UNL     1      -5.829   2.801  25.930  0.00  0.00    +0.093 C 
ATOM     26  C   UNL     1      -6.366   2.175  25.946  0.00  0.00    +0.022 C 
ATOM     27  C   UNL     1      -6.322   1.580  25.375  0.00  0.00    +0.004 C 
ATOM     28  C   UNL     1      -5.740   1.612  24.790  0.00  0.00    +0.022 C 
ATOM     29  C   UNL     1      -5.203   2.238  24.776  0.00  0.00    +0.093 C 
ENDBRANCH  20  22
ENDBRANCH  19  20
TORSDOF 5
ENDMDL
MODEL 3
REMARK VINA RESULT:     -10.2      3.302      5.058
REMARK  Name = 
REMARK  5 active torsions:
REMARK  status: ('A' for Active; 'I' for Inactive)
REMARK    1  A    between atoms: O_2  and  C_3
REMARK    2  A    between atoms: C_6  and  C_9
REMARK    3  A    between atoms: N_11  and  C_12
REMARK    4  A    between atoms: C_19  and  C_20
REMARK    5  A    between atoms: C_20  and  C_22
REMARK                            x       y       z     vdW  Elec       q    Type
REMARK                         _______ _______ _______ _____ _____    ______ ____
ROOT
ATOM     12  C   UNL     1      -3.980   0.871  24.649  0.00  0.00    +0.096 C 
ATOM     13  C   UNL     1      -4.747   1.176  24.609  0.00  0.00    +0.022 C 
ATOM     14  C   UNL     1      -4.892   1.956  24.834  0.00  0.00    +0.002 C 
ATOM     15  C   UNL     1      -4.273   2.431  25.099  0.00  0.00    +0.002 C 
ATOM     16  C   UNL     1      -5.037   2.736  25.059  0.00  0.00    +0.000 C 
ATOM     17  C   UNL     1      -4.418   3.212  25.324  0.00  0.00    +0.000 C 
ATOM     18  C   UNL     1      -3.798   3.687  25.588  0.00  0.00    +0.003 C 
ATOM     19  C   UNL     1      -3.032   3.382  25.628  0.00  0.00    +0.039 C 
ATOM     30  C   UNL     1      -2.886   2.602  25.403  0.00  0.00    +0.152 C 
ATOM     31  O   UNL     1      -2.121   2.297  25.443  0.00  0.00    -0.223 OA
ATOM     32  C   UNL     1      -3.506   2.126  25.138  0.00  0.00    +0.032 C 
ATOM     33  C   UNL     1      -3.361   1.346  24.914  0.00  0.00    +0.022 C 
ATOM     34  C   UNL     1      -2.595   1.041  24.953  0.00  0.00    +0.002 C 
ENDROOT
BRANCH  12  11
ATOM      9  C   UNL     1      -4.155  -0.532  24.861  0.00  0.00    +0.265 C 
ATOM     10  O   UNL     1      -4.621  -0.374  25.525  0.00  0.00    -0.268 OA
ATOM     11  N   UNL     1      -3.836   0.090  24.424  0.00  0.00    -0.203 NA
BRANCH   9   6
ATOM      3  C   UNL     1      -3.720  -2.872  24.184  0.00  0.00    +0.139 A 
ATOM      4  C   UNL     1      -3.413  -2.584  24.894  0.00  0.00    +0.037 A 
ATOM      5  C   UNL     1      -3.559  -1.804  25.119  0.00  0.00    +0.008 A 
ATOM      6  C   UNL     1      -4.010  -1.312  24.635  0.00  0.00    +0.055 A 
ATOM      7  C   UNL     1      -4.317  -1.600  23.926  0.00  0.00    +0.008 A 
ATOM      8  C   UNL     1      -4.173  -2.380  23.700  0.00  0.00    +0.037 A 
BRANCH   3   2
ATOM      1  C   UNL     1      -2.856  -3.855  23.612  0.00  0.00    +0.252 C 
ATOM      2  O   UNL     1      -3.576  -3.652  23.958  0.00  0.00    -0.471 OA
ENDBRANCH   3   2
ENDBRANCH   9   6
ENDBRANCH  12  11
BRANCH  19  20
ATOM     20  C   UNL     1      -2.412   3.858  25.893  0.00  0.00    +0.079 C 
ATOM     21  C   UNL     1      -1.854   3.553  26.420  0.00  0.00    +0.010 C 
BRANCH  20  22
ATOM     22  C   UNL     1      -2.349   4.637  25.632  0.00  0.00    +0.225 C 
ATOM     23  O   UNL     1      -2.967   5.169  25.768  0.00  0.00    -0.275 OA
ATOM     24  N   UNL     1      -1.670   4.887  25.236  0.00  0.00    -0.280 N 
ATOM     25  C   UNL     1      -1.607   5.666  24.975  0.00  0.00    +0.093 C 
ATOM     26  C   UNL     1      -0.928   5.916  24.579  0.00  0.00    +0.022 C 
ATOM     27  C   UNL     1      -0.311   5.385  24.443  0.00  0.00    +0.004 C 
ATOM     28  C   UNL     1      -0.374   4.605  24.705  0.00  0.00    +0.022 C 
ATOM     29  C   UNL     1      -1.053   4.356  25.101  0.00  0.00    +0.093 C 
ENDBRANCH  20  22
ENDBRANCH  19  20
TORSDOF 5
ENDMDL
MODEL 4
REMARK VINA RESULT:      -9.6      1.165      6.409
REMARK  Name = 
REMARK  5 active torsions:
REMARK  status: ('A' for Active; 'I' for Inactive)
REMARK    1  A    between atoms: O_2  and  C_3
REMARK    2  A    between atoms: C_6  and  C_9
REMARK    3  A    between atoms: N_11  and  C_12
REMARK    4  A    between atoms: C_19  and  C_20
REMARK    5  A    between atoms: C_20  and  C_22
REMARK                            x       y       z     vdW  Elec       q    Type
REMARK                         _______ _______ _______ _____ _____    ______ ____
ROOT
ATOM     12  C   UNL     1      -2.232   0.474  24.714  0.00  0.00    +0.096 C 
ATOM     13  C   UNL     1      -2.259  -0.337  24.867  0.00  0.00    +0.022 C 
ATOM     14  C   UNL     1      -1.606  -0.811  24.699  0.00  0.00    +0.002 C 
ATOM     15  C   UNL     1      -0.925  -0.475  24.376  0.00  0.00    +0.002 C 
ATOM     16  C   UNL     1      -0.953  -1.284  24.530  0.00  0.00    +0.000 C 
ATOM     17  C   UNL     1      -0.271  -0.949  24.207  0.00  0.00    +0.000 C 
ATOM     18  C   UNL     1       0.409  -0.614  23.885  0.00  0.00    +0.003 C 
ATOM     19  C   UNL     1       0.437   0.197  23.731  0.00  0.00    +0.039 C 
ATOM     30  C   UNL     1      -0.216   0.671  23.900  0.00  0.00    +0.152 C 
ATOM     31  O   UNL     1      -0.189   1.481  23.746  0.00  0.00    -0.223 OA
ATOM     32  C   UNL     1      -0.898   0.336  24.222  0.00  0.00    +0.032 C 
ATOM     33  C   UNL     1      -1.551   0.810  24.391  0.00  0.00    +0.022 C 
ATOM     34  C   UNL     1      -1.524   1.620  24.237  0.00  0.00    +0.002 C 
ENDROOT
BRANCH  12  11
ATOM      9  C   UNL     1      -3.633   0.735  24.606  0.00  0.00    +0.265 C 
ATOM     10  O   UNL     1      -3.727   0.047  24.159  0.00  0.00    -0.268 OA
ATOM     11  N   UNL     1      -2.886   0.948  24.883  0.00  0.00    -0.203 NA
BRANCH   9   6
ATOM      3  C   UNL     1      -5.594   2.157  25.114  0.00  0.00    +0.139 A 
ATOM      4  C   UNL     1      -5.028   2.414  24.572  0.00  0.00    +0.037 A 
ATOM      5  C   UNL     1      -4.374   1.939  24.403  0.00  0.00    +0.008 A 
ATOM      6  C   UNL     1      -4.287   1.209  24.775  0.00  0.00    +0.055 A 
ATOM      7  C   UNL     1      -4.853   0.952  25.317  0.00  0.00    +0.008 A 
ATOM      8  C   UNL     1      -5.507   1.426  25.487  0.00  0.00    +0.037 A 
BRANCH   3   2
ATOM      1  C   UNL     1      -6.149   3.338  25.695  0.00  0.00    +0.252 C 
ATOM      2  O   UNL     1      -6.248   2.631  25.284  0.00  0.00    -0.471 OA
ENDBRANCH   3   2
ENDBRANCH   9   6
ENDBRANCH  12  11
BRANCH  19  20
ATOM     20  C   UNL     1       1.118   0.532  23.408  0.00  0.00    +0.079 C 
ATOM     21  C   UNL     1       1.450   1.204  23.754  0.00  0.00    +0.010 C 
BRANCH  20  22
ATOM     22  C   UNL     1       1.467   0.197  22.741  0.00  0.00    +0.225 C 
ATOM     23  O   UNL     1       1.008  -0.235  22.208  0.00  0.00    -0.275 OA
ATOM     24  N   UNL     1       2.276   0.292  22.605  0.00  0.00    -0.280 N 
ATOM     25  C   UNL     1       2.625  -0.043  21.938  0.00  0.00    +0.093 C 
ATOM     26  C   UNL     1       3.433   0.052  21.803  0.00  0.00    +0.022 C 
ATOM     27  C   UNL     1       3.892   0.484  22.335  0.00  0.00    +0.004 C 
ATOM     28  C   UNL     1       3.543   0.820  23.003  0.00  0.00    +0.022 C 
ATOM     29  C   UNL     1       2.735   0.724  23.138  0.00  0.00    +0.093 C 
ENDBRANCH  20  22
ENDBRANCH  19  20
TORSDOF 5
ENDMDL
MODEL 5
REMARK VINA RESULT:      -9.2      3.395      4.880
REMARK  Name = 
REMARK  5 active torsions:
REMARK  status: ('A' for Active; 'I' for Inactive)
REMARK    1  A    between atoms: O_2  and  C_3
REMARK    2  A    between atoms: C_6  and  C_9
REMARK    3  A    between atoms: N_11  and  C_12
REMARK    4  A    between atoms: C_19  and  C_20
REMARK    5  A    between atoms: C_20  and  C_22
REMARK                            x       y       z     vdW  Elec       q    Type
REMARK                         _______ _______ _______ _____ _____    ______ ____
ROOT
ATOM     12  C   UNL     1      -3.560   2.775  24.840  0.00  0.00    +0.096 C 
ATOM     13  C   UNL     1      -4.281   2.993  25.179  0.00  0.00    +0.022 C 
ATOM     14  C   UNL     1      -4.861   2.424  25.315  0.00  0.00    +0.002 C 
ATOM     15  C   UNL     1      -4.723   1.637  25.114  0.00  0.00    +0.002 C 
ATOM     16  C   UNL     1      -5.442   1.855  25.452  0.00  0.00    +0.000 C 
ATOM     17  C   UNL     1      -5.304   1.067  25.250  0.00  0.00    +0.000 C 
ATOM     18  C   UNL     1      -5.165   0.280  25.048  0.00  0.00    +0.003 C 
ATOM     19  C   UNL     1      -4.445   0.061  24.709  0.00  0.00    +0.039 C 
ATOM     30  C   UNL     1      -3.864   0.630  24.573  0.00  0.00    +0.152 C 
ATOM     31  O   UNL     1      -3.144   0.412  24.234  0.00  0.00    -0.223 OA
ATOM     32  C   UNL     1      -4.002   1.418  24.775  0.00  0.00    +0.032 C 
ATOM     33  C   UNL     1      -3.421   1.987  24.638  0.00  0.00    +0.022 C 
ATOM     34  C   UNL     1      -2.701   1.769  24.300  0.00  0.00    +0.002 C 
ENDROOT
BRANCH  12  11
ATOM      9  C   UNL     1      -2.654   3.764  25.336  0.00  0.00    +0.265 C 
ATOM     10  O   UNL     1      -2.911   3.613  26.106  0.00  0.00    -0.268 OA
ATOM     11  N   UNL     1      -2.979   3.345  24.704  0.00  0.00    -0.203 NA
BRANCH   9   6
ATOM      3  C   UNL     1      -0.912   5.473  24.926  0.00  0.00    +0.139 A 
ATOM      4  C   UNL     1      -0.706   4.675  24.968  0.00  0.00    +0.037 A 
ATOM      5  C   UNL     1      -1.287   4.106  25.104  0.00  0.00    +0.008 A 
ATOM      6  C   UNL     1      -2.074   4.333  25.199  0.00  0.00    +0.055 A 
ATOM      7  C   UNL     1      -2.280   5.131  25.158  0.00  0.00    +0.008 A 
ATOM      8  C   UNL     1      -1.700   5.701  25.021  0.00  0.00    +0.037 A 
BRANCH   3   2
ATOM      1  C   UNL     1       0.218   5.936  24.185  0.00  0.00    +0.252 C 
ATOM      2  O   UNL     1      -0.332   6.043  24.789  0.00  0.00    -0.471 OA
ENDBRANCH   3   2
ENDBRANCH   9   6
ENDBRANCH  12  11
BRANCH  19  20
ATOM     20  C   UNL     1      -4.307  -0.727  24.507  0.00  0.00    +0.079 C 
ATOM     21  C   UNL     1      -4.491  -0.996  23.749  0.00  0.00    +0.010 C 
BRANCH  20  22
ATOM     22  C   UNL     1      -3.985  -1.245  25.062  0.00  0.00    +0.225 C 
ATOM     23  O   UNL     1      -3.892  -1.004  25.846  0.00  0.00    -0.275 OA
ATOM     24  N   UNL     1      -3.756  -2.004  24.834  0.00  0.00    -0.280 N 
ATOM     25  C   UNL     1      -3.434  -2.522  25.389  0.00  0.00    +0.093 C 
ATOM     26  C   UNL     1      -3.205  -3.282  25.161  0.00  0.00    +0.022 C 
ATOM     27  C   UNL     1      -3.298  -3.522  24.377  0.00  0.00    +0.004 C 
ATOM     28  C   UNL     1      -3.620  -3.004  23.821  0.00  0.00    +0.022 C 
ATOM     29  C   UNL     1      -3.849  -2.245  24.050  0.00  0.00    +0.093 C 
ENDBRANCH  20  22
ENDBRANCH  19  20
TORSDOF 5
ENDMDL
MODEL 6
REMARK VINA RESULT:      -9.0      2.692      4.590
REMARK  Name = 
REMARK  5 active torsions:
REMARK  status: ('A' for Active; 'I' for Inactive)
REMARK    1  A    between atoms: O_2  and  C_3
REMARK    2  A    between atoms: C_6  and  C_9
REMARK    3  A    between atoms: N_11  and  C_12
REMARK    4  A    between atoms: C_19  and  C_20
REMARK    5  A    between atoms: C_20  and  C_22
REMARK                            x       y       z     vdW  Elec       q    Type
REMARK                         _______ _______ _______ _____ _____    ______ ____
ROOT
ATOM     12  C   UNL     1      -1.071   1.546  24.630  0.00  0.00    +0.096 C 
ATOM     13  C   UNL     1      -0.322   1.246  24.450  0.00  0.00    +0.022 C 
ATOM     14  C   UNL     1      -0.186   0.434  24.479  0.00  0.00    +0.002 C 
ATOM     15  C   UNL     1      -0.795  -0.080  24.688  0.00  0.00    +0.002 C 
ATOM     16  C   UNL     1      -0.049  -0.378  24.508  0.00  0.00    +0.000 C 
ATOM     17  C   UNL     1      -0.659  -0.893  24.718  0.00  0.00    +0.000 C 
ATOM     18  C   UNL     1      -1.269  -1.407  24.927  0.00  0.00    +0.003 C 
ATOM     19  C   UNL     1      -2.017  -1.108  25.107  0.00  0.00    +0.039 C 
ATOM     30  C   UNL     1      -2.154  -0.295  25.078  0.00  0.00    +0.152 C 
ATOM     31  O   UNL     1      -2.901   0.004  25.258  0.00  0.00    -0.223 OA
ATOM     32  C   UNL     1      -1.544   0.220  24.868  0.00  0.00    +0.032 C 
ATOM     33  C   UNL     1      -1.681   1.032  24.839  0.00  0.00    +0.022 C 
ATOM     34  C   UNL     1      -2.428   1.331  25.019  0.00  0.00    +0.002 C 
ENDROOT
BRANCH  12  11
ATOM      9  C   UNL     1      -0.746   2.873  25.053  0.00  0.00    +0.265 C 
ATOM     10  O   UNL     1      -0.146   2.572  25.535  0.00  0.00    -0.268 OA
ATOM     11  N   UNL     1      -1.207   2.359  24.601  0.00  0.00    -0.203 NA
BRANCH   9   6
ATOM      3  C   UNL     1      -1.156   5.311  24.963  0.00  0.00    +0.139 A 
ATOM      4  C   UNL     1      -1.659   4.824  25.400  0.00  0.00    +0.037 A 
ATOM      5  C   UNL     1      -1.522   4.011  25.429  0.00  0.00    +0.008 A 
ATOM      6  C   UNL     1      -0.883   3.685  25.023  0.00  0.00    +0.055 A 
ATOM      7  C   UNL     1      -0.380   4.172  24.586  0.00  0.00    +0.008 A 
ATOM      8  C   UNL     1      -0.516   4.985  24.556  0.00  0.00    +0.037 A 
BRANCH   3   2
ATOM      1  C   UNL     1      -2.063   6.415  24.965  0.00  0.00    +0.252 C 
ATOM      2  O   UNL     1      -1.292   6.124  24.933  0.00  0.00    -0.471 OA
ENDBRANCH   3   2
ENDBRANCH   9   6
ENDBRANCH  12  11
BRANCH  19  20
ATOM     20  C   UNL     1      -2.627  -1.622  25.316  0.00  0.00    +0.079 C 
ATOM     21  C   UNL     1      -3.149  -1.418  25.921  0.00  0.00    +0.010 C 
BRANCH  20  22
ATOM     22  C   UNL     1      -2.715  -2.340  24.921  0.00  0.00    +0.225 C 
ATOM     23  O   UNL     1      -2.142  -2.930  25.003  0.00  0.00    -0.275 OA
ATOM     24  N   UNL     1      -3.375  -2.471  24.443  0.00  0.00    -0.280 N 
ATOM     25  C   UNL     1      -3.463  -3.189  24.048  0.00  0.00    +0.093 C 
ATOM     26  C   UNL     1      -4.123  -3.320  23.571  0.00  0.00    +0.022 C 
ATOM     27  C   UNL     1      -4.696  -2.732  23.488  0.00  0.00    +0.004 C 
ATOM     28  C   UNL     1      -4.608  -2.012  23.884  0.00  0.00    +0.022 C 
ATOM     29  C   UNL     1      -3.947  -1.883  24.361  0.00  0.00    +0.093 C 
ENDBRANCH  20  22
ENDBRANCH  19  20
TORSDOF 5
ENDMDL
MODEL 7
REMARK VINA RESULT:      -8.0     15.088     16.589
REMARK  Name = 
REMARK  5 active torsions:
REMARK  status: ('A' for Active; 'I' for Inactive)
REMARK    1  A    between atoms: O_2  and  C_3
REMARK    2  A    between atoms: C_6  and  C_9
REMARK    3  A    between atoms: N_11  and  C_12
REMARK    4  A    between atoms: C_19  and  C_20
REMARK    5  A    between atoms: C_20  and  C_22
REMARK                            x       y       z     vdW  Elec       q    Type
REMARK                         _______ _______ _______ _____ _____    ______ ____
ROOT
ATOM     12  C   UNL     1      -4.849 -10.588  14.974  0.00  0.00    +0.096 C 
ATOM     13  C   UNL     1      -4.045 -10.776  14.970  0.00  0.00    +0.022 C 
ATOM     14  C   UNL     1      -3.626 -10.779  14.260  0.00  0.00    +0.002 C 
ATOM     15  C   UNL     1      -4.009 -10.594  13.554  0.00  0.00    +0.002 C 
ATOM     16  C   UNL     1      -3.207 -10.781  13.550  0.00  0.00    +0.000 C 
ATOM     17  C   UNL     1      -3.590 -10.596  12.843  0.00  0.00    +0.000 C 
ATOM     18  C   UNL     1      -3.973 -10.411  12.137  0.00  0.00    +0.003 C 
ATOM     19  C   UNL     1      -4.777 -10.223  12.141  0.00  0.00    +0.039 C 
ATOM     30  C   UNL     1      -5.196 -10.220  12.851  0.00  0.00    +0.152 C 
ATOM     31  O   UNL     1      -6.000 -10.032  12.855  0.00  0.00    -0.223 OA
ATOM     32  C   UNL     1      -4.813 -10.405  13.558  0.00  0.00    +0.032 C 
ATOM     33  C   UNL     1      -5.232 -10.403  14.268  0.00  0.00    +0.022 C 
ATOM     34  C   UNL     1      -6.036 -10.215  14.271  0.00  0.00    +0.002 C 
ENDROOT
BRANCH  12  11
ATOM      9  C   UNL     1      -4.865 -10.539  16.403  0.00  0.00    +0.265 C 
ATOM     10  O   UNL     1      -4.040 -10.495  16.410  0.00  0.00    -0.268 OA
ATOM     11  N   UNL     1      -5.268 -10.586  15.684  0.00  0.00    -0.203 NA
BRANCH   9   6
ATOM      3  C   UNL     1      -6.123 -10.532  18.533  0.00  0.00    +0.139 A 
ATOM      4  C   UNL     1      -6.499 -10.316  17.832  0.00  0.00    +0.037 A 
ATOM      5  C   UNL     1      -6.079 -10.318  17.121  0.00  0.00    +0.008 A 
ATOM      6  C   UNL     1      -5.284 -10.537  17.113  0.00  0.00    +0.055 A 
ATOM      7  C   UNL     1      -4.908 -10.753  17.814  0.00  0.00    +0.008 A 
ATOM      8  C   UNL     1      -5.327 -10.751  18.525  0.00  0.00    +0.037 A 
BRANCH   3   2
ATOM      1  C   UNL     1      -6.145 -10.644  19.957  0.00  0.00    +0.252 C 
ATOM      2  O   UNL     1      -6.541 -10.530  19.244  0.00  0.00    -0.471 OA
ENDBRANCH   3   2
ENDBRANCH   9   6
ENDBRANCH  12  11
BRANCH  19  20
ATOM     20  C   UNL     1      -5.160 -10.037  11.434  0.00  0.00    +0.079 C 
ATOM     21  C   UNL     1      -5.816 -10.477  11.193  0.00  0.00    +0.010 C 
BRANCH  20  22
ATOM     22  C   UNL     1      -4.889  -9.414  10.968  0.00  0.00    +0.225 C 
ATOM     23  O   UNL     1      -4.735  -8.679  11.312  0.00  0.00    -0.275 OA
ATOM     24  N   UNL     1      -4.770  -9.524  10.159  0.00  0.00    -0.280 N 
ATOM     25  C   UNL     1      -4.498  -8.900   9.693  0.00  0.00    +0.093 C 
ATOM     26  C   UNL     1      -4.380  -9.010   8.884  0.00  0.00    +0.022 C 
ATOM     27  C   UNL     1      -4.533  -9.744   8.541  0.00  0.00    +0.004 C 
ATOM     28  C   UNL     1      -4.805 -10.369   9.007  0.00  0.00    +0.022 C 
ATOM     29  C   UNL     1      -4.923 -10.258   9.816  0.00  0.00    +0.093 C 
ENDBRANCH  20  22
ENDBRANCH  19  20
TORSDOF 5
ENDMDL
MODEL 8
REMARK VINA RESULT:      -7.3     14.232     16.163
REMARK  Name = 
REMARK  5 active torsions:
REMARK  status: ('A' for Active; 'I' for Inactive)
REMARK    1  A    between atoms: O_2  and  C_3
REMARK    2  A    between atoms: C_6  and  C_9
REMARK    3  A    between atoms: N_11  and  C_12
REMARK    4  A    between atoms: C_19  and  C_20
REMARK    5  A    between atoms: C_20  and  C_22
REMARK                            x       y       z     vdW  Elec       q    Type
REMARK                         _______ _______ _______ _____ _____    ______ ____
ROOT
ATOM     12  C   UNL     1      -5.444 -10.462  16.087  0.00  0.00    +0.096 C 
ATOM     13  C   UNL     1      -4.872 -10.579  16.671  0.00  0.00    +0.022 C 
ATOM     14  C   UNL     1      -4.082 -10.680  16.459  0.00  0.00    +0.002 C 
ATOM     15  C   UNL     1      -3.862 -10.663  15.665  0.00  0.00    +0.002 C 
ATOM     16  C   UNL     1      -3.291 -10.780  16.248  0.00  0.00    +0.000 C 
ATOM     17  C   UNL     1      -3.071 -10.764  15.453  0.00  0.00    +0.000 C 
ATOM     18  C   UNL     1      -2.851 -10.748  14.659  0.00  0.00    +0.003 C 
ATOM     19  C   UNL     1      -3.423 -10.631  14.074  0.00  0.00    +0.039 C 
ATOM     30  C   UNL     1      -4.213 -10.530  14.286  0.00  0.00    +0.152 C 
ATOM     31  O   UNL     1      -4.785 -10.414  13.702  0.00  0.00    -0.223 OA
ATOM     32  C   UNL     1      -4.434 -10.546  15.081  0.00  0.00    +0.032 C 
ATOM     33  C   UNL     1      -5.224 -10.446  15.292  0.00  0.00    +0.022 C 
ATOM     34  C   UNL     1      -5.796 -10.329  14.709  0.00  0.00    +0.002 C 
ENDROOT
BRANCH  12  11
ATOM      9  C   UNL     1      -6.433 -10.163  17.075  0.00  0.00    +0.265 C 
ATOM     10  O   UNL     1      -5.839 -10.064  17.640  0.00  0.00    -0.268 OA
ATOM     11  N   UNL     1      -6.235 -10.362  16.299  0.00  0.00    -0.203 NA
BRANCH   9   6
ATOM      3  C   UNL     1      -8.806  -9.862  17.710  0.00  0.00    +0.139 A 
ATOM      4  C   UNL     1      -8.351  -9.209  17.492  0.00  0.00    +0.037 A 
ATOM      5  C   UNL     1      -7.560  -9.310  17.280  0.00  0.00    +0.008 A 
ATOM      6  C   UNL     1      -7.224 -10.062  17.286  0.00  0.00    +0.055 A 
ATOM      7  C   UNL     1      -7.678 -10.715  17.504  0.00  0.00    +0.008 A 
ATOM      8  C   UNL     1      -8.469 -10.616  17.716  0.00  0.00    +0.037 A 
BRANCH   3   2
ATOM      1  C   UNL     1      -9.923 -10.220  18.524  0.00  0.00    +0.252 C 
ATOM      2  O   UNL     1      -9.597  -9.762  17.922  0.00  0.00    -0.471 OA
ENDBRANCH   3   2
ENDBRANCH   9   6
ENDBRANCH  12  11
BRANCH  19  20
ATOM     20  C   UNL     1      -3.203 -10.615  13.279  0.00  0.00    +0.079 C 
ATOM     21  C   UNL     1      -3.760 -10.781  12.694  0.00  0.00    +0.010 C 
BRANCH  20  22
ATOM     22  C   UNL     1      -2.427 -10.432  13.069  0.00  0.00    +0.225 C 
ATOM     23  O   UNL     1      -1.811 -10.578  13.600  0.00  0.00    -0.275 OA
ATOM     24  N   UNL     1      -2.264 -10.105  12.330  0.00  0.00    -0.280 N 
ATOM     25  C   UNL     1      -1.488  -9.923  12.120  0.00  0.00    +0.093 C 
ATOM     26  C   UNL     1      -1.326  -9.595  11.380  0.00  0.00    +0.022 C 
ATOM     27  C   UNL     1      -1.942  -9.450  10.850  0.00  0.00    +0.004 C 
ATOM     28  C   UNL     1      -2.719  -9.633  11.060  0.00  0.00    +0.022 C 
ATOM     29  C   UNL     1      -2.880  -9.960  11.799  0.00  0.00    +0.093 C 
ENDBRANCH  20  22
ENDBRANCH  19  20
TORSDOF 5
ENDMDL
MODEL 9
REMARK VINA RESULT:      -7.1     15.244     16.816
REMARK  Name = 
REMARK  5 active torsions:
REMARK  status: ('A' for Active; 'I' for Inactive)
REMARK    1  A    between atoms: O_2  and  C_3
REMARK    2  A    between atoms: C_6  and  C_9
REMARK    3  A    between atoms: N_11  and  C_12
REMARK    4  A    between atoms: C_19  and  C_20
REMARK    5  A    between atoms: C_20  and  C_22
REMARK                            x       y       z     vdW  Elec       q    Type
REMARK                         _______ _______ _______ _____ _____    ______ ____
ROOT
ATOM     12  C   UNL     1      -6.730 -10.155  15.129  0.00  0.00    +0.096 C 
ATOM     13  C   UNL     1      -5.988 -10.302  15.461  0.00  0.00    +0.022 C 
ATOM     14  C   UNL     1      -5.323 -10.357  14.976  0.00  0.00    +0.002 C 
ATOM     15  C   UNL     1      -5.399 -10.264  14.160  0.00  0.00    +0.002 C 
ATOM     16  C   UNL     1      -4.659 -10.411  14.491  0.00  0.00    +0.000 C 
ATOM     17  C   UNL     1      -4.734 -10.319  13.675  0.00  0.00    +0.000 C 
ATOM     18  C   UNL     1      -4.810 -10.227  12.859  0.00  0.00    +0.003 C 
ATOM     19  C   UNL     1      -5.552 -10.079  12.527  0.00  0.00    +0.039 C 
ATOM     30  C   UNL     1      -6.216 -10.025  13.012  0.00  0.00    +0.152 C 
ATOM     31  O   UNL     1      -6.957  -9.877  12.681  0.00  0.00    -0.223 OA
ATOM     32  C   UNL     1      -6.141 -10.117  13.829  0.00  0.00    +0.032 C 
ATOM     33  C   UNL     1      -6.805 -10.062  14.313  0.00  0.00    +0.022 C 
ATOM     34  C   UNL     1      -7.546  -9.915  13.982  0.00  0.00    +0.002 C 
ENDROOT
BRANCH  12  11
ATOM      9  C   UNL     1      -7.349  -9.701  16.335  0.00  0.00    +0.265 C 
ATOM     10  O   UNL     1      -6.637  -9.356  16.571  0.00  0.00    -0.268 OA
ATOM     11  N   UNL     1      -7.395 -10.100  15.615  0.00  0.00    -0.203 NA
BRANCH   9   6
ATOM      3  C   UNL     1      -9.344  -9.538  17.790  0.00  0.00    +0.139 A 
ATOM      4  C   UNL     1      -8.954 -10.260  17.705  0.00  0.00    +0.037 A 
ATOM      5  C   UNL     1      -8.289 -10.314  17.219  0.00  0.00    +0.008 A 
ATOM      6  C   UNL     1      -8.014  -9.647  16.820  0.00  0.00    +0.055 A 
ATOM      7  C   UNL     1      -8.403  -8.925  16.906  0.00  0.00    +0.008 A 
ATOM      8  C   UNL     1      -9.068  -8.870  17.391  0.00  0.00    +0.037 A 
BRANCH   3   2
ATOM      1  C   UNL     1     -10.720  -9.199  17.970  0.00  0.00    +0.252 C 
ATOM      2  O   UNL     1     -10.009  -9.483  18.275  0.00  0.00    -0.471 OA
ENDBRANCH   3   2
ENDBRANCH   9   6
ENDBRANCH  12  11
BRANCH  19  20
ATOM     20  C   UNL     1      -5.627  -9.987  11.711  0.00  0.00    +0.079 C 
ATOM     21  C   UNL     1      -6.035 -10.551  11.268  0.00  0.00    +0.010 C 
BRANCH  20  22
ATOM     22  C   UNL     1      -5.294  -9.332  11.337  0.00  0.00    +0.225 C 
ATOM     23  O   UNL     1      -5.413  -8.575  11.647  0.00  0.00    -0.275 OA
ATOM     24  N   UNL     1      -4.843  -9.431  10.653  0.00  0.00    -0.280 N 
ATOM     25  C   UNL     1      -4.510  -8.775  10.280  0.00  0.00    +0.093 C 
ATOM     26  C   UNL     1      -4.059  -8.874   9.596  0.00  0.00    +0.022 C 
ATOM     27  C   UNL     1      -3.940  -9.630   9.287  0.00  0.00    +0.004 C 
ATOM     28  C   UNL     1      -4.272 -10.286   9.661  0.00  0.00    +0.022 C 
ATOM     29  C   UNL     1      -4.724 -10.186  10.344  0.00  0.00    +0.093 C 
ENDBRANCH  20  22
ENDBRANCH  19  20
TORSDOF 5
ENDMDL
