MODEL 1
REMARK VINA RESULT:      -9.7      0.000      0.000
REMARK  Name = 
REMARK  3 active torsions:
REMARK  status: ('A' for Active; 'I' for Inactive)
REMARK    1  A    between atoms: C_7  and  C_10
REMARK    2  A    between atoms: N_12  and  C_13
REMARK    3  A    between atoms: C_25  and  C_30
REMARK                            x       y       z     vdW  Elec       q    Type
REMARK                         _______ _______ _______ _____ _____    ______ ____
ROOT
ATOM     13  C   UNL     1      -1.456   1.754  24.705  0.00  0.00    +0.099 C 
ATOM     14  C   UNL     1      -0.841   2.288  24.834  0.00  0.00    +0.043 C 
ATOM     15  C   UNL     1      -0.083   2.121  24.556  0.00  0.00    +0.096 C 
ATOM     16  N   UNL     1       0.060   1.417  24.147  0.00  0.00    -0.269 N 
ATOM     17  C   UNL     1      -0.555   0.884  24.017  0.00  0.00    +0.156 C 
ATOM     18  C   UNL     1      -1.313   1.052  24.296  0.00  0.00    +0.051 C 
ATOM     19  C   UNL     1      -0.532   0.157  23.626  0.00  0.00    +0.264 C 
ATOM     20  O   UNL     1      -1.247  -0.252  23.588  0.00  0.00    -0.271 OA
ATOM     21  N   UNL     1       0.112  -0.214  23.268  0.00  0.00    -0.178 NA
ATOM     22  C   UNL     1       0.892   0.049  23.213  0.00  0.00    +0.078 A 
ATOM     23  C   UNL     1       1.365  -0.492  22.808  0.00  0.00    +0.017 A 
ATOM     24  C   UNL     1       2.166  -0.333  22.692  0.00  0.00    +0.004 A 
ATOM     25  C   UNL     1       2.495   0.366  22.980  0.00  0.00    +0.035 A 
ATOM     26  C   UNL     1       2.022   0.908  23.386  0.00  0.00    +0.009 A 
ATOM     27  C   UNL     1       1.221   0.748  23.502  0.00  0.00    +0.069 A 
ATOM     28  C   UNL     1       0.850   1.358  23.918  0.00  0.00    +0.251 C 
ATOM     29  O   UNL     1       1.334   1.990  24.133  0.00  0.00    -0.270 OA
ENDROOT
BRANCH  25  30
ATOM     30  C   UNL     1       3.296   0.524  22.864  0.00  0.00    +0.145 A 
ATOM     31  C   UNL     1       3.926   0.099  23.185  0.00  0.00    +0.041 A 
ATOM     32  C   UNL     1       4.628   0.448  22.925  0.00  0.00    +0.044 A 
ATOM     33  C   UNL     1       4.431   1.087  22.443  0.00  0.00    +0.180 A 
ATOM     34  O   UNL     1       3.607   1.134  22.405  0.00  0.00    -0.450 OA
ENDBRANCH  25  30
BRANCH  13  12
ATOM     10  C   UNL     1      -2.706   2.434  24.560  0.00  0.00    +0.241 C 
ATOM     11  O   UNL     1      -2.438   2.776  23.859  0.00  0.00    -0.273 OA
ATOM     12  N   UNL     1      -2.214   1.922  24.983  0.00  0.00    -0.207 NA
BRANCH  10   7
ATOM      1  C   UNL     1      -6.303   2.507  25.720  0.00  0.00    +0.095 C 
ATOM      2  C   UNL     1      -5.737   3.106  25.675  0.00  0.00    +0.226 C 
ATOM      3  O   UNL     1      -5.930   3.874  25.909  0.00  0.00    -0.275 OA
ATOM      4  N   UNL     1      -4.980   2.938  25.396  0.00  0.00    -0.280 N 
ATOM      5  C   UNL     1      -4.414   3.537  25.352  0.00  0.00    +0.094 C 
ATOM      6  C   UNL     1      -3.656   3.369  25.073  0.00  0.00    +0.031 C 
ATOM      7  C   UNL     1      -3.463   2.602  24.839  0.00  0.00    +0.082 C 
ATOM      8  C   UNL     1      -4.029   2.003  24.883  0.00  0.00    +0.031 C 
ATOM      9  C   UNL     1      -4.787   2.171  25.162  0.00  0.00    +0.094 C 
ENDBRANCH  10   7
ENDBRANCH  13  12
TORSDOF 3
ENDMDL
MODEL 2
REMARK VINA RESULT:      -9.3      1.114      6.930
REMARK  Name = 
REMARK  3 active torsions:
REMARK  status: ('A' for Active; 'I' for Inactive)
REMARK    1  A    between atoms: C_7  and  C_10
REMARK    2  A    between atoms: N_12  and  C_13
REMARK    3  A    between atoms: C_25  and  C_30
REMARK                            x       y       z     vdW  Elec       q    Type
REMARK                         _______ _______ _______ _____ _____    ______ ____
ROOT
ATOM     13  C   UNL     1      -0.200   1.268  24.209  0.00  0.00    +0.099 C 
ATOM     14  C   UNL     1      -0.703   0.628  24.339  0.00  0.00    +0.043 C 
ATOM     15  C   UNL     1      -1.504   0.756  24.490  0.00  0.00    +0.096 C 
ATOM     16  N   UNL     1      -1.802   1.526  24.510  0.00  0.00    -0.269 N 
ATOM     17  C   UNL     1      -1.298   2.166  24.379  0.00  0.00    +0.156 C 
ATOM     18  C   UNL     1      -0.498   2.037  24.229  0.00  0.00    +0.051 C 
ATOM     19  C   UNL     1      -1.481   2.971  24.375  0.00  0.00    +0.264 C 
ATOM     20  O   UNL     1      -0.849   3.480  24.226  0.00  0.00    -0.271 OA
ATOM     21  N   UNL     1      -2.211   3.333  24.500  0.00  0.00    -0.178 NA
ATOM     22  C   UNL     1      -2.940   2.981  24.661  0.00  0.00    +0.078 A 
ATOM     23  C   UNL     1      -3.535   3.546  24.749  0.00  0.00    +0.017 A 
ATOM     24  C   UNL     1      -4.307   3.308  24.912  0.00  0.00    +0.004 A 
ATOM     25  C   UNL     1      -4.486   2.507  24.987  0.00  0.00    +0.035 A 
ATOM     26  C   UNL     1      -3.891   1.941  24.899  0.00  0.00    +0.009 A 
ATOM     27  C   UNL     1      -3.118   2.179  24.735  0.00  0.00    +0.069 A 
ATOM     28  C   UNL     1      -2.611   1.531  24.668  0.00  0.00    +0.251 C 
ATOM     29  O   UNL     1      -2.960   0.791  24.774  0.00  0.00    -0.270 OA
ENDROOT
BRANCH  25  30
ATOM     30  C   UNL     1      -5.259   2.270  25.151  0.00  0.00    +0.145 A 
ATOM     31  C   UNL     1      -5.629   2.294  25.887  0.00  0.00    +0.041 A 
ATOM     32  C   UNL     1      -6.397   2.006  25.797  0.00  0.00    +0.044 A 
ATOM     33  C   UNL     1      -6.501   1.803  25.005  0.00  0.00    +0.180 A 
ATOM     34  O   UNL     1      -5.798   1.966  24.605  0.00  0.00    -0.450 OA
ENDBRANCH  25  30
BRANCH  13  12
ATOM     10  C   UNL     1       0.834   0.757  23.365  0.00  0.00    +0.241 C 
ATOM     11  O   UNL     1       0.267   0.504  22.822  0.00  0.00    -0.273 OA
ATOM     12  N   UNL     1       0.601   1.140  24.058  0.00  0.00    -0.207 NA
BRANCH  10   7
ATOM      1  C   UNL     1       4.575   0.866  22.829  0.00  0.00    +0.095 C 
ATOM      2  C   UNL     1       4.038   0.243  22.763  0.00  0.00    +0.226 C 
ATOM      3  O   UNL     1       4.302  -0.508  22.545  0.00  0.00    -0.275 OA
ATOM      4  N   UNL     1       3.237   0.372  22.913  0.00  0.00    -0.280 N 
ATOM      5  C   UNL     1       2.699  -0.250  22.847  0.00  0.00    +0.094 C 
ATOM      6  C   UNL     1       1.899  -0.122  22.997  0.00  0.00    +0.031 C 
ATOM      7  C   UNL     1       1.635   0.629  23.214  0.00  0.00    +0.082 C 
ATOM      8  C   UNL     1       2.173   1.251  23.281  0.00  0.00    +0.031 C 
ATOM      9  C   UNL     1       2.973   1.123  23.130  0.00  0.00    +0.094 C 
ENDBRANCH  10   7
ENDBRANCH  13  12
TORSDOF 3
ENDMDL
MODEL 3
REMARK VINA RESULT:      -6.6      1.244      6.861
REMARK  Name = 
REMARK  3 active torsions:
REMARK  status: ('A' for Active; 'I' for Inactive)
REMARK    1  A    between atoms: C_7  and  C_10
REMARK    2  A    between atoms: N_12  and  C_13
REMARK    3  A    between atoms: C_25  and  C_30
REMARK                            x       y       z     vdW  Elec       q    Type
REMARK                         _______ _______ _______ _____ _____    ______ ____
ROOT
ATOM     13  C   UNL     1      -0.349   0.897  23.620  0.00  0.00    +0.099 C 
ATOM     14  C   UNL     1      -0.560   0.731  24.400  0.00  0.00    +0.043 C 
ATOM     15  C   UNL     1      -1.308   0.939  24.680  0.00  0.00    +0.096 C 
ATOM     16  N   UNL     1      -1.846   1.313  24.177  0.00  0.00    -0.269 N 
ATOM     17  C   UNL     1      -1.635   1.479  23.397  0.00  0.00    +0.156 C 
ATOM     18  C   UNL     1      -0.888   1.271  23.119  0.00  0.00    +0.051 C 
ATOM     19  C   UNL     1      -2.086   1.845  22.811  0.00  0.00    +0.264 C 
ATOM     20  O   UNL     1      -1.715   1.933  22.079  0.00  0.00    -0.271 OA
ATOM     21  N   UNL     1      -2.856   2.136  22.859  0.00  0.00    -0.178 NA
ATOM     22  C   UNL     1      -3.367   2.132  23.506  0.00  0.00    +0.078 A 
ATOM     23  C   UNL     1      -4.093   2.479  23.320  0.00  0.00    +0.017 A 
ATOM     24  C   UNL     1      -4.684   2.531  23.893  0.00  0.00    +0.004 A 
ATOM     25  C   UNL     1      -4.551   2.236  24.651  0.00  0.00    +0.035 A 
ATOM     26  C   UNL     1      -3.826   1.888  24.838  0.00  0.00    +0.009 A 
ATOM     27  C   UNL     1      -3.235   1.837  24.265  0.00  0.00    +0.069 A 
ATOM     28  C   UNL     1      -2.557   1.472  24.564  0.00  0.00    +0.251 C 
ATOM     29  O   UNL     1      -2.597   1.235  25.353  0.00  0.00    -0.270 OA
ENDROOT
BRANCH  25  30
ATOM     30  C   UNL     1      -5.143   2.288  25.223  0.00  0.00    +0.145 A 
ATOM     31  C   UNL     1      -5.401   2.978  25.594  0.00  0.00    +0.041 A 
ATOM     32  C   UNL     1      -5.999   2.775  26.125  0.00  0.00    +0.044 A 
ATOM     33  C   UNL     1      -6.110   1.959  26.083  0.00  0.00    +0.180 A 
ATOM     34  O   UNL     1      -5.582   1.657  25.525  0.00  0.00    -0.450 OA
ENDBRANCH  25  30
BRANCH  13  12
ATOM     10  C   UNL     1       1.064   1.109  23.592  0.00  0.00    +0.241 C 
ATOM     11  O   UNL     1       0.980   1.736  24.122  0.00  0.00    -0.273 OA
ATOM     12  N   UNL     1       0.398   0.690  23.341  0.00  0.00    -0.207 NA
BRANCH  10   7
ATOM      1  C   UNL     1       4.727   0.460  22.920  0.00  0.00    +0.095 C 
ATOM      2  C   UNL     1       4.056   0.278  22.477  0.00  0.00    +0.226 C 
ATOM      3  O   UNL     1       4.133  -0.112  21.753  0.00  0.00    -0.275 OA
ATOM      4  N   UNL     1       3.308   0.486  22.755  0.00  0.00    -0.280 N 
ATOM      5  C   UNL     1       2.637   0.304  22.312  0.00  0.00    +0.094 C 
ATOM      6  C   UNL     1       1.889   0.511  22.590  0.00  0.00    +0.031 C 
ATOM      7  C   UNL     1       1.812   0.901  23.313  0.00  0.00    +0.082 C 
ATOM      8  C   UNL     1       2.483   1.083  23.757  0.00  0.00    +0.031 C 
ATOM      9  C   UNL     1       3.231   0.875  23.478  0.00  0.00    +0.094 C 
ENDBRANCH  10   7
ENDBRANCH  13  12
TORSDOF 3
ENDMDL
MODEL 4
REMARK VINA RESULT:      -6.2      1.302      6.945
REMARK  Name = 
REMARK  3 active torsions:
REMARK  status: ('A' for Active; 'I' for Inactive)
REMARK    1  A    between atoms: C_7  and  C_10
REMARK    2  A    between atoms: N_12  and  C_13
REMARK    3  A    between atoms: C_25  and  C_30
REMARK                            x       y       z     vdW  Elec       q    Type
REMARK                         _______ _______ _______ _____ _____    ______ ____
ROOT
ATOM     13  C   UNL     1       0.627   1.306  24.002  0.00  0.00    +0.099 C 
ATOM     14  C   UNL     1       0.071   0.852  23.597  0.00  0.00    +0.043 C 
ATOM     15  C   UNL     1      -0.735   0.988  23.710  0.00  0.00    +0.096 C 
ATOM     16  N   UNL     1      -0.984   1.579  24.230  0.00  0.00    -0.269 N 
ATOM     17  C   UNL     1      -0.427   2.033  24.635  0.00  0.00    +0.156 C 
ATOM     18  C   UNL     1       0.378   1.896  24.522  0.00  0.00    +0.051 C 
ATOM     19  C   UNL     1      -0.557   2.644  25.174  0.00  0.00    +0.264 C 
ATOM     20  O   UNL     1       0.121   2.993  25.488  0.00  0.00    -0.271 OA
ATOM     21  N   UNL     1      -1.274   2.953  25.440  0.00  0.00    -0.178 NA
ATOM     22  C   UNL     1      -2.040   2.725  25.233  0.00  0.00    +0.078 A 
ATOM     23  C   UNL     1      -2.606   3.178  25.628  0.00  0.00    +0.017 A 
ATOM     24  C   UNL     1      -3.408   3.039  25.498  0.00  0.00    +0.004 A 
ATOM     25  C   UNL     1      -3.646   2.448  24.974  0.00  0.00    +0.035 A 
ATOM     26  C   UNL     1      -3.080   1.995  24.579  0.00  0.00    +0.009 A 
ATOM     27  C   UNL     1      -2.277   2.135  24.709  0.00  0.00    +0.069 A 
ATOM     28  C   UNL     1      -1.807   1.624  24.262  0.00  0.00    +0.251 C 
ATOM     29  O   UNL     1      -2.214   1.088  23.785  0.00  0.00    -0.270 OA
ENDROOT
BRANCH  25  30
ATOM     30  C   UNL     1      -4.449   2.310  24.845  0.00  0.00    +0.145 A 
ATOM     31  C   UNL     1      -4.925   2.696  24.295  0.00  0.00    +0.041 A 
ATOM     32  C   UNL     1      -5.688   2.385  24.353  0.00  0.00    +0.044 A 
ATOM     33  C   UNL     1      -5.682   1.807  24.941  0.00  0.00    +0.180 A 
ATOM     34  O   UNL     1      -4.916   1.760  25.245  0.00  0.00    -0.450 OA
ENDBRANCH  25  30
BRANCH  13  12
ATOM     10  C   UNL     1       1.685   0.653  23.295  0.00  0.00    +0.241 C 
ATOM     11  O   UNL     1       1.130   0.274  22.816  0.00  0.00    -0.273 OA
ATOM     12  N   UNL     1       1.433   1.169  23.889  0.00  0.00    -0.207 NA
BRANCH  10   7
ATOM      1  C   UNL     1       5.351   0.622  22.375  0.00  0.00    +0.095 C 
ATOM      2  C   UNL     1       4.907   0.107  22.841  0.00  0.00    +0.226 C 
ATOM      3  O   UNL     1       5.269  -0.546  23.194  0.00  0.00    -0.275 OA
ATOM      4  N   UNL     1       4.101   0.243  22.954  0.00  0.00    -0.280 N 
ATOM      5  C   UNL     1       3.657  -0.272  23.421  0.00  0.00    +0.094 C 
ATOM      6  C   UNL     1       2.852  -0.136  23.534  0.00  0.00    +0.031 C 
ATOM      7  C   UNL     1       2.490   0.516  23.182  0.00  0.00    +0.082 C 
ATOM      8  C   UNL     1       2.934   1.032  22.716  0.00  0.00    +0.031 C 
ATOM      9  C   UNL     1       3.739   0.895  22.602  0.00  0.00    +0.094 C 
ENDBRANCH  10   7
ENDBRANCH  13  12
TORSDOF 3
ENDMDL
