MODEL 1
REMARK VINA RESULT:     -10.5      0.000      0.000
REMARK  Name = 
REMARK  9 active torsions:
REMARK  status: ('A' for Active; 'I' for Inactive)
REMARK    1  A    between atoms: N_2  and  C_3
REMARK    2  A    between atoms: N_2  and  C_28
REMARK    3  A    between atoms: C_3  and  C_4
REMARK    4  A    between atoms: N_6  and  C_9
REMARK    5  A    between atoms: C_13  and  N_17
REMARK    6  A    between atoms: C_18  and  C_20
REMARK    7  A    between atoms: C_20  and  O_21
REMARK    8  A    between atoms: O_21  and  C_22
REMARK    9  A    between atoms: C_28  and  C_29
REMARK                            x       y       z     vdW  Elec       q    Type
REMARK                         _______ _______ _______ _____ _____    ______ ____
ROOT
ATOM      9  C   UNL     1      -0.680   1.679  24.273  0.00  0.00    +0.166 C 
ATOM     10  C   UNL     1      -0.209   2.254  24.630  0.00  0.00    +0.169 C 
ATOM     11  O   UNL     1       0.577   2.092  24.441  0.00  0.00    -0.350 OA
ATOM     12  C   UNL     1       0.592   1.418  23.967  0.00  0.00    +0.167 C 
ATOM     13  C   UNL     1       1.086   0.900  23.557  0.00  0.00    +0.154 C 
ATOM     14  C   UNL     1       0.615   0.325  23.199  0.00  0.00    +0.166 C 
ATOM     15  O   UNL     1      -0.171   0.488  23.388  0.00  0.00    -0.350 OA
ATOM     16  C   UNL     1      -0.185   1.163  23.863  0.00  0.00    +0.169 C 
ENDROOT
BRANCH   9   6
ATOM      4  C   UNL     1      -2.735   1.229  24.638  0.00  0.00    +0.117 A 
ATOM      5  C   UNL     1      -1.933   1.075  24.752  0.00  0.00    +0.115 A 
ATOM      6  N   UNL     1      -1.503   1.630  24.317  0.00  0.00    -0.227 N 
ATOM      7  N   UNL     1      -2.039   2.127  23.936  0.00  0.00    -0.064 NA
ATOM      8  N   UNL     1      -2.802   1.880  24.134  0.00  0.00    -0.132 NA
BRANCH   4   3
ATOM      3  C   UNL     1      -3.362   0.807  24.971  0.00  0.00    +0.122 C 
BRANCH   3   2
ATOM      1  C   UNL     1      -3.714   0.242  23.707  0.00  0.00    +0.090 C 
ATOM      2  N   UNL     1      -3.746   0.225  24.531  0.00  0.00    -0.263 NA
BRANCH   2  28
ATOM     28  C   UNL     1      -4.163  -0.375  24.916  0.00  0.00    +0.099 C 
BRANCH  28  29
ATOM     29  C   UNL     1      -4.011  -1.165  24.732  0.00  0.00    -0.006 A 
ATOM     30  C   UNL     1      -3.558  -1.627  25.242  0.00  0.00    -0.003 A 
ATOM     31  C   UNL     1      -3.406  -2.418  25.058  0.00  0.00    -0.000 A 
ATOM     32  C   UNL     1      -3.708  -2.744  24.363  0.00  0.00    -0.000 A 
ATOM     33  C   UNL     1      -4.161  -2.281  23.853  0.00  0.00    -0.000 A 
ATOM     34  C   UNL     1      -4.313  -1.492  24.037  0.00  0.00    -0.003 A 
ENDBRANCH  28  29
ENDBRANCH   2  28
ENDBRANCH   3   2
ENDBRANCH   4   3
ENDBRANCH   9   6
BRANCH  13  17
ATOM     17  N   UNL     1       1.909   0.949  23.512  0.00  0.00    -0.199 NA
ATOM     18  C   UNL     1       2.321   0.488  22.965  0.00  0.00    +0.286 C 
ATOM     19  O   UNL     1       1.910  -0.022  22.464  0.00  0.00    -0.269 OA
BRANCH  18  20
ATOM     20  C   UNL     1       3.143   0.537  22.921  0.00  0.00    +0.291 C 
BRANCH  20  21
ATOM     21  O   UNL     1       3.599  -0.151  22.932  0.00  0.00    -0.466 OA
BRANCH  21  22
ATOM     22  C   UNL     1       4.352  -0.141  23.268  0.00  0.00    +0.139 A 
ATOM     23  C   UNL     1       4.614  -0.788  23.711  0.00  0.00    +0.037 A 
ATOM     24  C   UNL     1       5.366  -0.778  24.048  0.00  0.00    +0.003 A 
ATOM     25  C   UNL     1       5.858  -0.124  23.942  0.00  0.00    +0.000 A 
ATOM     26  C   UNL     1       5.596   0.521  23.500  0.00  0.00    +0.003 A 
ATOM     27  C   UNL     1       4.843   0.512  23.163  0.00  0.00    +0.037 A 
ENDBRANCH  21  22
ENDBRANCH  20  21
ENDBRANCH  18  20
ENDBRANCH  13  17
TORSDOF 9
ENDMDL
MODEL 2
REMARK VINA RESULT:      -9.9      2.049      7.292
REMARK  Name = 
REMARK  9 active torsions:
REMARK  status: ('A' for Active; 'I' for Inactive)
REMARK    1  A    between atoms: N_2  and  C_3
REMARK    2  A    between atoms: N_2  and  C_28
REMARK    3  A    between atoms: C_3  and  C_4
REMARK    4  A    between atoms: N_6  and  C_9
REMARK    5  A    between atoms: C_13  and  N_17
REMARK    6  A    between atoms: C_18  and  C_20
REMARK    7  A    between atoms: C_20  and  O_21
REMARK    8  A    between atoms: O_21  and  C_22
REMARK    9  A    between atoms: C_28  and  C_29
REMARK                            x       y       z     vdW  Elec       q    Type
REMARK                         _______ _______ _______ _____ _____    ______ ____
ROOT
ATOM      9  C   UNL     1      -0.001   0.151  23.557  0.00  0.00    +0.166 C 
ATOM     10  C   UNL     1      -0.497  -0.441  23.847  0.00  0.00    +0.169 C 
ATOM     11  O   UNL     1      -1.136  -0.077  24.219  0.00  0.00    -0.350 OA
ATOM     12  C   UNL     1      -1.037   0.738  24.159  0.00  0.00    +0.167 C 
ATOM     13  C   UNL     1      -1.369   1.468  24.352  0.00  0.00    +0.154 C 
ATOM     14  C   UNL     1      -0.874   2.060  24.062  0.00  0.00    +0.166 C 
ATOM     15  O   UNL     1      -0.234   1.696  23.690  0.00  0.00    -0.350 OA
ATOM     16  C   UNL     1      -0.335   0.879  23.750  0.00  0.00    +0.169 C 
ENDROOT
BRANCH   9   6
ATOM      4  C   UNL     1       1.995  -0.172  22.871  0.00  0.00    +0.117 A 
ATOM      5  C   UNL     1       1.450  -0.077  23.483  0.00  0.00    +0.115 A 
ATOM      6  N   UNL     1       0.705   0.033  23.146  0.00  0.00    -0.227 N 
ATOM      7  N   UNL     1       0.789   0.006  22.326  0.00  0.00    -0.064 NA
ATOM      8  N   UNL     1       1.587  -0.121  22.155  0.00  0.00    -0.132 NA
BRANCH   4   3
ATOM      3  C   UNL     1       2.806  -0.297  22.959  0.00  0.00    +0.122 C 
BRANCH   3   2
ATOM      1  C   UNL     1       3.093   1.098  22.850  0.00  0.00    +0.090 C 
ATOM      2  N   UNL     1       3.337   0.312  22.796  0.00  0.00    -0.263 NA
BRANCH   2  28
ATOM     28  C   UNL     1       4.114   0.136  22.579  0.00  0.00    +0.099 C 
BRANCH  28  29
ATOM     29  C   UNL     1       4.699   0.071  23.158  0.00  0.00    -0.006 A 
ATOM     30  C   UNL     1       5.085   0.746  23.431  0.00  0.00    -0.003 A 
ATOM     31  C   UNL     1       5.671   0.681  24.010  0.00  0.00    -0.000 A 
ATOM     32  C   UNL     1       5.868  -0.060  24.315  0.00  0.00    -0.000 A 
ATOM     33  C   UNL     1       5.481  -0.734  24.041  0.00  0.00    -0.000 A 
ATOM     34  C   UNL     1       4.896  -0.670  23.463  0.00  0.00    -0.003 A 
ENDBRANCH  28  29
ENDBRANCH   2  28
ENDBRANCH   3   2
ENDBRANCH   4   3
ENDBRANCH   9   6
BRANCH  13  17
ATOM     17  N   UNL     1      -2.075   1.586  24.763  0.00  0.00    -0.199 NA
ATOM     18  C   UNL     1      -2.598   2.179  24.526  0.00  0.00    +0.286 C 
ATOM     19  O   UNL     1      -2.414   2.655  23.878  0.00  0.00    -0.269 OA
BRANCH  18  20
ATOM     20  C   UNL     1      -3.303   2.296  24.937  0.00  0.00    +0.291 C 
BRANCH  20  21
ATOM     21  O   UNL     1      -4.001   2.450  24.524  0.00  0.00    -0.466 OA
BRANCH  21  22
ATOM     22  C   UNL     1      -4.726   2.423  24.915  0.00  0.00    +0.139 A 
ATOM     23  C   UNL     1      -5.222   1.769  24.821  0.00  0.00    +0.037 A 
ATOM     24  C   UNL     1      -5.947   1.742  25.212  0.00  0.00    +0.003 A 
ATOM     25  C   UNL     1      -6.178   2.368  25.697  0.00  0.00    +0.000 A 
ATOM     26  C   UNL     1      -5.683   3.022  25.791  0.00  0.00    +0.003 A 
ATOM     27  C   UNL     1      -4.957   3.049  25.399  0.00  0.00    +0.037 A 
ENDBRANCH  21  22
ENDBRANCH  20  21
ENDBRANCH  18  20
ENDBRANCH  13  17
TORSDOF 9
ENDMDL
MODEL 3
REMARK VINA RESULT:      -9.8      1.704      2.942
REMARK  Name = 
REMARK  9 active torsions:
REMARK  status: ('A' for Active; 'I' for Inactive)
REMARK    1  A    between atoms: N_2  and  C_3
REMARK    2  A    between atoms: N_2  and  C_28
REMARK    3  A    between atoms: C_3  and  C_4
REMARK    4  A    between atoms: N_6  and  C_9
REMARK    5  A    between atoms: C_13  and  N_17
REMARK    6  A    between atoms: C_18  and  C_20
REMARK    7  A    between atoms: C_20  and  O_21
REMARK    8  A    between atoms: O_21  and  C_22
REMARK    9  A    between atoms: C_28  and  C_29
REMARK                            x       y       z     vdW  Elec       q    Type
REMARK                         _______ _______ _______ _____ _____    ______ ____
ROOT
ATOM      9  C   UNL     1      -1.717  -0.845  24.605  0.00  0.00    +0.166 C 
ATOM     10  C   UNL     1      -1.299  -1.467  24.949  0.00  0.00    +0.169 C 
ATOM     11  O   UNL     1      -0.504  -1.381  24.746  0.00  0.00    -0.350 OA
ATOM     12  C   UNL     1      -0.431  -0.706  24.279  0.00  0.00    +0.167 C 
ATOM     13  C   UNL     1       0.105  -0.235  23.864  0.00  0.00    +0.154 C 
ATOM     14  C   UNL     1      -0.314   0.387  23.521  0.00  0.00    +0.166 C 
ATOM     15  O   UNL     1      -1.109   0.301  23.723  0.00  0.00    -0.350 OA
ATOM     16  C   UNL     1      -1.181  -0.375  24.191  0.00  0.00    +0.169 C 
ENDROOT
BRANCH   9   6
ATOM      4  C   UNL     1      -3.711  -0.181  24.987  0.00  0.00    +0.117 A 
ATOM      5  C   UNL     1      -2.894  -0.096  25.071  0.00  0.00    +0.115 A 
ATOM      6  N   UNL     1      -2.530  -0.716  24.666  0.00  0.00    -0.227 N 
ATOM      7  N   UNL     1      -3.122  -1.184  24.332  0.00  0.00    -0.064 NA
ATOM      8  N   UNL     1      -3.851  -0.854  24.531  0.00  0.00    -0.132 NA
BRANCH   4   3
ATOM      3  C   UNL     1      -4.285   0.320  25.305  0.00  0.00    +0.122 C 
BRANCH   3   2
ATOM      1  C   UNL     1      -4.853   1.108  24.258  0.00  0.00    +0.090 C 
ATOM      2  N   UNL     1      -4.426   1.056  24.961  0.00  0.00    -0.263 NA
BRANCH   2  28
ATOM     28  C   UNL     1      -4.139   1.741  25.322  0.00  0.00    +0.099 C 
BRANCH  28  29
ATOM     29  C   UNL     1      -4.618   2.411  25.374  0.00  0.00    -0.006 A 
ATOM     30  C   UNL     1      -5.353   2.365  25.745  0.00  0.00    -0.003 A 
ATOM     31  C   UNL     1      -5.832   3.035  25.797  0.00  0.00    -0.000 A 
ATOM     32  C   UNL     1      -5.575   3.751  25.476  0.00  0.00    -0.000 A 
ATOM     33  C   UNL     1      -4.840   3.796  25.105  0.00  0.00    -0.000 A 
ATOM     34  C   UNL     1      -4.362   3.127  25.053  0.00  0.00    -0.003 A 
ENDBRANCH  28  29
ENDBRANCH   2  28
ENDBRANCH   3   2
ENDBRANCH   4   3
ENDBRANCH   9   6
BRANCH  13  17
ATOM     17  N   UNL     1       0.918  -0.364  23.803  0.00  0.00    -0.199 NA
ATOM     18  C   UNL     1       1.309  -0.208  23.094  0.00  0.00    +0.286 C 
ATOM     19  O   UNL     1       0.887   0.078  22.445  0.00  0.00    -0.269 OA
BRANCH  18  20
ATOM     20  C   UNL     1       2.121  -0.337  23.033  0.00  0.00    +0.291 C 
BRANCH  20  21
ATOM     21  O   UNL     1       2.600   0.219  22.657  0.00  0.00    -0.466 OA
BRANCH  21  22
ATOM     22  C   UNL     1       3.403   0.263  22.839  0.00  0.00    +0.139 A 
ATOM     23  C   UNL     1       3.811   0.975  22.741  0.00  0.00    +0.037 A 
ATOM     24  C   UNL     1       4.614   1.019  22.923  0.00  0.00    +0.003 A 
ATOM     25  C   UNL     1       5.010   0.352  23.204  0.00  0.00    +0.000 A 
ATOM     26  C   UNL     1       4.604  -0.359  23.302  0.00  0.00    +0.003 A 
ATOM     27  C   UNL     1       3.800  -0.403  23.120  0.00  0.00    +0.037 A 
ENDBRANCH  21  22
ENDBRANCH  20  21
ENDBRANCH  18  20
ENDBRANCH  13  17
TORSDOF 9
ENDMDL
MODEL 4
REMARK VINA RESULT:      -9.8      1.522      2.288
REMARK  Name = 
REMARK  9 active torsions:
REMARK  status: ('A' for Active; 'I' for Inactive)
REMARK    1  A    between atoms: N_2  and  C_3
REMARK    2  A    between atoms: N_2  and  C_28
REMARK    3  A    between atoms: C_3  and  C_4
REMARK    4  A    between atoms: N_6  and  C_9
REMARK    5  A    between atoms: C_13  and  N_17
REMARK    6  A    between atoms: C_18  and  C_20
REMARK    7  A    between atoms: C_20  and  O_21
REMARK    8  A    between atoms: O_21  and  C_22
REMARK    9  A    between atoms: C_28  and  C_29
REMARK                            x       y       z     vdW  Elec       q    Type
REMARK                         _______ _______ _______ _____ _____    ______ ____
ROOT
ATOM      9  C   UNL     1      -0.662   0.893  24.106  0.00  0.00    +0.166 C 
ATOM     10  C   UNL     1      -0.267   1.453  24.566  0.00  0.00    +0.169 C 
ATOM     11  O   UNL     1       0.535   1.413  24.380  0.00  0.00    -0.350 OA
ATOM     12  C   UNL     1       0.636   0.830  23.806  0.00  0.00    +0.167 C 
ATOM     13  C   UNL     1       1.194   0.445  23.336  0.00  0.00    +0.154 C 
ATOM     14  C   UNL     1       0.799  -0.115  22.876  0.00  0.00    +0.166 C 
ATOM     15  O   UNL     1      -0.003  -0.075  23.062  0.00  0.00    -0.350 OA
ATOM     16  C   UNL     1      -0.104   0.509  23.637  0.00  0.00    +0.169 C 
ENDROOT
BRANCH   9   6
ATOM      4  C   UNL     1      -2.793   0.891  23.971  0.00  0.00    +0.117 A 
ATOM      5  C   UNL     1      -2.065   1.264  23.866  0.00  0.00    +0.115 A 
ATOM      6  N   UNL     1      -1.474   0.745  24.115  0.00  0.00    -0.227 N 
ATOM      7  N   UNL     1      -1.837   0.051  24.374  0.00  0.00    -0.064 NA
ATOM      8  N   UNL     1      -2.653   0.141  24.285  0.00  0.00    -0.132 NA
BRANCH   4   3
ATOM      3  C   UNL     1      -3.533   1.213  23.793  0.00  0.00    +0.122 C 
BRANCH   3   2
ATOM      1  C   UNL     1      -3.770   2.620  23.858  0.00  0.00    +0.090 C 
ATOM      2  N   UNL     1      -3.805   1.873  24.206  0.00  0.00    -0.263 NA
BRANCH   2  28
ATOM     28  C   UNL     1      -4.113   1.786  24.967  0.00  0.00    +0.099 C 
BRANCH  28  29
ATOM     29  C   UNL     1      -4.831   2.142  25.164  0.00  0.00    -0.006 A 
ATOM     30  C   UNL     1      -4.840   2.900  25.489  0.00  0.00    -0.003 A 
ATOM     31  C   UNL     1      -5.559   3.256  25.686  0.00  0.00    -0.000 A 
ATOM     32  C   UNL     1      -6.267   2.852  25.557  0.00  0.00    -0.000 A 
ATOM     33  C   UNL     1      -6.257   2.094  25.233  0.00  0.00    -0.000 A 
ATOM     34  C   UNL     1      -5.539   1.739  25.036  0.00  0.00    -0.003 A 
ENDBRANCH  28  29
ENDBRANCH   2  28
ENDBRANCH   3   2
ENDBRANCH   4   3
ENDBRANCH   9   6
BRANCH  13  17
ATOM     17  N   UNL     1       2.006   0.593  23.327  0.00  0.00    -0.199 NA
ATOM     18  C   UNL     1       2.473   0.298  22.715  0.00  0.00    +0.286 C 
ATOM     19  O   UNL     1       2.129  -0.146  22.111  0.00  0.00    -0.269 OA
BRANCH  18  20
ATOM     20  C   UNL     1       3.284   0.446  22.706  0.00  0.00    +0.291 C 
BRANCH  20  21
ATOM     21  O   UNL     1       3.819  -0.180  22.755  0.00  0.00    -0.466 OA
BRANCH  21  22
ATOM     22  C   UNL     1       4.504  -0.103  23.207  0.00  0.00    +0.139 A 
ATOM     23  C   UNL     1       4.763  -0.733  23.675  0.00  0.00    +0.037 A 
ATOM     24  C   UNL     1       5.448  -0.656  24.127  0.00  0.00    +0.003 A 
ATOM     25  C   UNL     1       5.875   0.050  24.114  0.00  0.00    +0.000 A 
ATOM     26  C   UNL     1       5.616   0.679  23.647  0.00  0.00    +0.003 A 
ATOM     27  C   UNL     1       4.931   0.602  23.194  0.00  0.00    +0.037 A 
ENDBRANCH  21  22
ENDBRANCH  20  21
ENDBRANCH  18  20
ENDBRANCH  13  17
TORSDOF 9
ENDMDL
MODEL 5
REMARK VINA RESULT:      -7.2     15.414     17.554
REMARK  Name = 
REMARK  9 active torsions:
REMARK  status: ('A' for Active; 'I' for Inactive)
REMARK    1  A    between atoms: N_2  and  C_3
REMARK    2  A    between atoms: N_2  and  C_28
REMARK    3  A    between atoms: C_3  and  C_4
REMARK    4  A    between atoms: N_6  and  C_9
REMARK    5  A    between atoms: C_13  and  N_17
REMARK    6  A    between atoms: C_18  and  C_20
REMARK    7  A    between atoms: C_20  and  O_21
REMARK    8  A    between atoms: O_21  and  C_22
REMARK    9  A    between atoms: C_28  and  C_29
REMARK                            x       y       z     vdW  Elec       q    Type
REMARK                         _______ _______ _______ _____ _____    ______ ____
ROOT
ATOM      9  C   UNL     1      -5.823  -9.274  10.432  0.00  0.00    +0.166 C 
ATOM     10  C   UNL     1      -5.085  -8.963  10.626  0.00  0.00    +0.169 C 
ATOM     11  O   UNL     1      -4.877  -9.245  11.372  0.00  0.00    -0.350 OA
ATOM     12  C   UNL     1      -5.487  -9.731  11.640  0.00  0.00    +0.167 C 
ATOM     13  C   UNL     1      -5.736 -10.206  12.267  0.00  0.00    +0.154 C 
ATOM     14  C   UNL     1      -6.475 -10.518  12.073  0.00  0.00    +0.166 C 
ATOM     15  O   UNL     1      -6.682 -10.235  11.327  0.00  0.00    -0.350 OA
ATOM     16  C   UNL     1      -6.072  -9.749  11.059  0.00  0.00    +0.169 C 
ENDROOT
BRANCH   9   6
ATOM      4  C   UNL     1      -6.984  -8.545   8.795  0.00  0.00    +0.117 A 
ATOM      5  C   UNL     1      -6.651  -8.445   9.543  0.00  0.00    +0.115 A 
ATOM      6  N   UNL     1      -6.240  -9.135   9.734  0.00  0.00    -0.227 N 
ATOM      7  N   UNL     1      -6.319  -9.661   9.104  0.00  0.00    -0.064 NA
ATOM      8  N   UNL     1      -6.779  -9.297   8.523  0.00  0.00    -0.132 NA
BRANCH   4   3
ATOM      3  C   UNL     1      -7.442  -7.990   8.390  0.00  0.00    +0.122 C 
BRANCH   3   2
ATOM      1  C   UNL     1      -8.770  -8.495   8.244  0.00  0.00    +0.090 C 
ATOM      2  N   UNL     1      -8.250  -7.931   8.545  0.00  0.00    -0.263 NA
BRANCH   2  28
ATOM     28  C   UNL     1      -8.537  -7.306   9.002  0.00  0.00    +0.099 C 
BRANCH  28  29
ATOM     29  C   UNL     1      -9.140  -6.825   8.709  0.00  0.00    -0.006 A 
ATOM     30  C   UNL     1      -8.980  -6.045   8.497  0.00  0.00    -0.003 A 
ATOM     31  C   UNL     1      -9.583  -5.564   8.204  0.00  0.00    -0.000 A 
ATOM     32  C   UNL     1     -10.348  -5.865   8.124  0.00  0.00    -0.000 A 
ATOM     33  C   UNL     1     -10.507  -6.645   8.336  0.00  0.00    -0.000 A 
ATOM     34  C   UNL     1      -9.905  -7.126   8.628  0.00  0.00    -0.003 A 
ENDBRANCH  28  29
ENDBRANCH   2  28
ENDBRANCH   3   2
ENDBRANCH   4   3
ENDBRANCH   9   6
BRANCH  13  17
ATOM     17  N   UNL     1      -5.319 -10.345  12.965  0.00  0.00    -0.199 NA
ATOM     18  C   UNL     1      -5.726 -10.526  13.660  0.00  0.00    +0.286 C 
ATOM     19  O   UNL     1      -6.550 -10.567  13.656  0.00  0.00    -0.269 OA
BRANCH  18  20
ATOM     20  C   UNL     1      -5.310 -10.665  14.358  0.00  0.00    +0.291 C 
BRANCH  20  21
ATOM     21  O   UNL     1      -5.196 -10.053  14.900  0.00  0.00    -0.466 OA
BRANCH  21  22
ATOM     22  C   UNL     1      -4.926 -10.221  15.661  0.00  0.00    +0.139 A 
ATOM     23  C   UNL     1      -4.152 -10.485  15.775  0.00  0.00    +0.037 A 
ATOM     24  C   UNL     1      -3.882 -10.653  16.536  0.00  0.00    +0.003 A 
ATOM     25  C   UNL     1      -4.384 -10.556  17.183  0.00  0.00    +0.000 A 
ATOM     26  C   UNL     1      -5.157 -10.291  17.069  0.00  0.00    +0.003 A 
ATOM     27  C   UNL     1      -5.428 -10.124  16.307  0.00  0.00    +0.037 A 
ENDBRANCH  21  22
ENDBRANCH  20  21
ENDBRANCH  18  20
ENDBRANCH  13  17
TORSDOF 9
ENDMDL
MODEL 6
REMARK VINA RESULT:      -7.0     14.884     17.589
REMARK  Name = 
REMARK  9 active torsions:
REMARK  status: ('A' for Active; 'I' for Inactive)
REMARK    1  A    between atoms: N_2  and  C_3
REMARK    2  A    between atoms: N_2  and  C_28
REMARK    3  A    between atoms: C_3  and  C_4
REMARK    4  A    between atoms: N_6  and  C_9
REMARK    5  A    between atoms: C_13  and  N_17
REMARK    6  A    between atoms: C_18  and  C_20
REMARK    7  A    between atoms: C_20  and  O_21
REMARK    8  A    between atoms: O_21  and  C_22
REMARK    9  A    between atoms: C_28  and  C_29
REMARK                            x       y       z     vdW  Elec       q    Type
REMARK                         _______ _______ _______ _____ _____    ______ ____
ROOT
ATOM      9  C   UNL     1      13.028  -7.055  31.211  0.00  0.00    +0.166 C 
ATOM     10  C   UNL     1      12.887  -7.614  30.622  0.00  0.00    +0.169 C 
ATOM     11  O   UNL     1      12.160  -7.972  30.779  0.00  0.00    -0.350 OA
ATOM     12  C   UNL     1      11.853  -7.634  31.465  0.00  0.00    +0.167 C 
ATOM     13  C   UNL     1      11.215  -7.646  31.988  0.00  0.00    +0.154 C 
ATOM     14  C   UNL     1      11.356  -7.087  32.578  0.00  0.00    +0.166 C 
ATOM     15  O   UNL     1      12.082  -6.729  32.420  0.00  0.00    -0.350 OA
ATOM     16  C   UNL     1      12.390  -7.068  31.733  0.00  0.00    +0.169 C 
ENDROOT
BRANCH   9   6
ATOM      4  C   UNL     1      14.533  -5.544  31.110  0.00  0.00    +0.117 A 
ATOM      5  C   UNL     1      13.790  -5.836  30.903  0.00  0.00    +0.115 A 
ATOM      6  N   UNL     1      13.692  -6.569  31.269  0.00  0.00    -0.227 N 
ATOM      7  N   UNL     1      14.375  -6.730  31.703  0.00  0.00    -0.064 NA
ATOM      8  N   UNL     1      14.895  -6.097  31.605  0.00  0.00    -0.132 NA
BRANCH   4   3
ATOM      3  C   UNL     1      14.858  -4.825  30.866  0.00  0.00    +0.122 C 
BRANCH   3   2
ATOM      1  C   UNL     1      14.462  -3.920  31.897  0.00  0.00    +0.090 C 
ATOM      2  N   UNL     1      15.051  -4.250  31.424  0.00  0.00    -0.263 NA
BRANCH   2  28
ATOM     28  C   UNL     1      15.834  -4.003  31.508  0.00  0.00    +0.099 C 
BRANCH  28  29
ATOM     29  C   UNL     1      16.049  -3.234  31.299  0.00  0.00    -0.006 A 
ATOM     30  C   UNL     1      16.261  -3.062  30.522  0.00  0.00    -0.003 A 
ATOM     31  C   UNL     1      16.476  -2.292  30.313  0.00  0.00    -0.000 A 
ATOM     32  C   UNL     1      16.477  -1.696  30.883  0.00  0.00    -0.000 A 
ATOM     33  C   UNL     1      16.264  -1.869  31.661  0.00  0.00    -0.000 A 
ATOM     34  C   UNL     1      16.050  -2.637  31.870  0.00  0.00    -0.003 A 
ENDBRANCH  28  29
ENDBRANCH   2  28
ENDBRANCH   3   2
ENDBRANCH   4   3
ENDBRANCH   9   6
BRANCH  13  17
ATOM     17  N   UNL     1      10.550  -8.132  31.930  0.00  0.00    -0.199 NA
ATOM     18  C   UNL     1       9.875  -7.963  32.373  0.00  0.00    +0.286 C 
ATOM     19  O   UNL     1       9.864  -7.308  32.873  0.00  0.00    -0.269 OA
BRANCH  18  20
ATOM     20  C   UNL     1       9.211  -8.449  32.315  0.00  0.00    +0.291 C 
BRANCH  20  21
ATOM     21  O   UNL     1       8.495  -8.139  32.048  0.00  0.00    -0.466 OA
BRANCH  21  22
ATOM     22  C   UNL     1       7.827  -8.621  32.005  0.00  0.00    +0.139 A 
ATOM     23  C   UNL     1       7.219  -8.535  32.558  0.00  0.00    +0.037 A 
ATOM     24  C   UNL     1       6.552  -9.017  32.515  0.00  0.00    +0.003 A 
ATOM     25  C   UNL     1       6.490  -9.585  31.920  0.00  0.00    +0.000 A 
ATOM     26  C   UNL     1       7.097  -9.671  31.368  0.00  0.00    +0.003 A 
ATOM     27  C   UNL     1       7.765  -9.189  31.411  0.00  0.00    +0.037 A 
ENDBRANCH  21  22
ENDBRANCH  20  21
ENDBRANCH  18  20
ENDBRANCH  13  17
TORSDOF 9
ENDMDL
MODEL 7
REMARK VINA RESULT:      -6.8     16.570     17.799
REMARK  Name = 
REMARK  9 active torsions:
REMARK  status: ('A' for Active; 'I' for Inactive)
REMARK    1  A    between atoms: N_2  and  C_3
REMARK    2  A    between atoms: N_2  and  C_28
REMARK    3  A    between atoms: C_3  and  C_4
REMARK    4  A    between atoms: N_6  and  C_9
REMARK    5  A    between atoms: C_13  and  N_17
REMARK    6  A    between atoms: C_18  and  C_20
REMARK    7  A    between atoms: C_20  and  O_21
REMARK    8  A    between atoms: O_21  and  C_22
REMARK    9  A    between atoms: C_28  and  C_29
REMARK                            x       y       z     vdW  Elec       q    Type
REMARK                         _______ _______ _______ _____ _____    ______ ____
ROOT
ATOM      9  C   UNL     1      16.989  -5.526  28.177  0.00  0.00    +0.166 C 
ATOM     10  C   UNL     1      17.264  -4.767  28.347  0.00  0.00    +0.169 C 
ATOM     11  O   UNL     1      17.405  -4.382  27.631  0.00  0.00    -0.350 OA
ATOM     12  C   UNL     1      17.218  -4.902  27.020  0.00  0.00    +0.167 C 
ATOM     13  C   UNL     1      17.188  -4.986  26.200  0.00  0.00    +0.154 C 
ATOM     14  C   UNL     1      16.913  -5.745  26.030  0.00  0.00    +0.166 C 
ATOM     15  O   UNL     1      16.772  -6.130  26.745  0.00  0.00    -0.350 OA
ATOM     16  C   UNL     1      16.960  -5.609  27.357  0.00  0.00    +0.169 C 
ENDROOT
BRANCH   9   6
ATOM      4  C   UNL     1      16.122  -6.767  29.683  0.00  0.00    +0.117 A 
ATOM      5  C   UNL     1      16.114  -6.085  29.218  0.00  0.00    +0.115 A 
ATOM      6  N   UNL     1      16.780  -6.101  28.731  0.00  0.00    -0.227 N 
ATOM      7  N   UNL     1      17.199  -6.792  28.894  0.00  0.00    -0.064 NA
ATOM      8  N   UNL     1      16.792  -7.204  29.483  0.00  0.00    -0.132 NA
BRANCH   4   3
ATOM      3  C   UNL     1      15.557  -6.975  30.249  0.00  0.00    +0.122 C 
BRANCH   3   2
ATOM      1  C   UNL     1      14.700  -7.990  29.725  0.00  0.00    +0.090 C 
ATOM      2  N   UNL     1      14.808  -7.224  30.011  0.00  0.00    -0.263 NA
BRANCH   2  28
ATOM     28  C   UNL     1      14.167  -6.707  30.059  0.00  0.00    +0.099 C 
BRANCH  28  29
ATOM     29  C   UNL     1      13.540  -6.875  30.569  0.00  0.00    -0.006 A 
ATOM     30  C   UNL     1      12.835  -7.179  30.270  0.00  0.00    -0.003 A 
ATOM     31  C   UNL     1      12.208  -7.347  30.780  0.00  0.00    -0.000 A 
ATOM     32  C   UNL     1      12.287  -7.210  31.590  0.00  0.00    -0.000 A 
ATOM     33  C   UNL     1      12.993  -6.906  31.889  0.00  0.00    -0.000 A 
ATOM     34  C   UNL     1      13.619  -6.738  31.380  0.00  0.00    -0.003 A 
ENDBRANCH  28  29
ENDBRANCH   2  28
ENDBRANCH   3   2
ENDBRANCH   4   3
ENDBRANCH   9   6
BRANCH  13  17
ATOM     17  N   UNL     1      17.398  -4.411  25.646  0.00  0.00    -0.199 NA
ATOM     18  C   UNL     1      16.863  -4.189  25.058  0.00  0.00    +0.286 C 
ATOM     19  O   UNL     1      16.118  -4.543  25.025  0.00  0.00    -0.269 OA
BRANCH  18  20
ATOM     20  C   UNL     1      17.072  -3.615  24.505  0.00  0.00    +0.291 C 
BRANCH  20  21
ATOM     21  O   UNL     1      16.487  -3.230  24.069  0.00  0.00    -0.466 OA
BRANCH  21  22
ATOM     22  C   UNL     1      16.694  -2.638  23.533  0.00  0.00    +0.139 A 
ATOM     23  C   UNL     1      16.463  -1.857  23.671  0.00  0.00    +0.037 A 
ATOM     24  C   UNL     1      16.671  -1.265  23.136  0.00  0.00    +0.003 A 
ATOM     25  C   UNL     1      17.108  -1.453  22.462  0.00  0.00    +0.000 A 
ATOM     26  C   UNL     1      17.339  -2.233  22.324  0.00  0.00    +0.003 A 
ATOM     27  C   UNL     1      17.132  -2.825  22.860  0.00  0.00    +0.037 A 
ENDBRANCH  21  22
ENDBRANCH  20  21
ENDBRANCH  18  20
ENDBRANCH  13  17
TORSDOF 9
ENDMDL
MODEL 8
REMARK VINA RESULT:      -6.6     15.569     17.392
REMARK  Name = 
REMARK  9 active torsions:
REMARK  status: ('A' for Active; 'I' for Inactive)
REMARK    1  A    between atoms: N_2  and  C_3
REMARK    2  A    between atoms: N_2  and  C_28
REMARK    3  A    between atoms: C_3  and  C_4
REMARK    4  A    between atoms: N_6  and  C_9
REMARK    5  A    between atoms: C_13  and  N_17
REMARK    6  A    between atoms: C_18  and  C_20
REMARK    7  A    between atoms: C_20  and  O_21
REMARK    8  A    between atoms: O_21  and  C_22
REMARK    9  A    between atoms: C_28  and  C_29
REMARK                            x       y       z     vdW  Elec       q    Type
REMARK                         _______ _______ _______ _____ _____    ______ ____
ROOT
ATOM      9  C   UNL     1      -8.094 -10.031  13.296  0.00  0.00    +0.166 C 
ATOM     10  C   UNL     1      -7.811 -10.711  13.666  0.00  0.00    +0.169 C 
ATOM     11  O   UNL     1      -8.187 -10.778  14.397  0.00  0.00    -0.350 OA
ATOM     12  C   UNL     1      -8.702 -10.139  14.479  0.00  0.00    +0.167 C 
ATOM     13  C   UNL     1      -9.253  -9.785  14.980  0.00  0.00    +0.154 C 
ATOM     14  C   UNL     1      -9.536  -9.105  14.609  0.00  0.00    +0.166 C 
ATOM     15  O   UNL     1      -9.160  -9.038  13.878  0.00  0.00    -0.350 OA
ATOM     16  C   UNL     1      -8.644  -9.678  13.797  0.00  0.00    +0.169 C 
ENDROOT
BRANCH   9   6
ATOM      4  C   UNL     1      -7.133  -9.258  11.552  0.00  0.00    +0.117 A 
ATOM      5  C   UNL     1      -7.115  -9.480  12.347  0.00  0.00    +0.115 A 
ATOM      6  N   UNL     1      -7.866  -9.753  12.553  0.00  0.00    -0.227 N 
ATOM      7  N   UNL     1      -8.349  -9.700  11.886  0.00  0.00    -0.064 NA
ATOM      8  N   UNL     1      -7.896  -9.393  11.267  0.00  0.00    -0.132 NA
BRANCH   4   3
ATOM      3  C   UNL     1      -6.500  -8.953  11.119  0.00  0.00    +0.122 C 
BRANCH   3   2
ATOM      1  C   UNL     1      -6.197  -9.861  10.059  0.00  0.00    +0.090 C 
ATOM      2  N   UNL     1      -5.972  -9.465  10.746  0.00  0.00    -0.263 NA
BRANCH   2  28
ATOM     28  C   UNL     1      -5.218  -9.581  11.062  0.00  0.00    +0.099 C 
BRANCH  28  29
ATOM     29  C   UNL     1      -4.551  -9.440  10.597  0.00  0.00    -0.006 A 
ATOM     30  C   UNL     1      -4.311  -8.666  10.443  0.00  0.00    -0.003 A 
ATOM     31  C   UNL     1      -3.644  -8.525   9.978  0.00  0.00    -0.000 A 
ATOM     32  C   UNL     1      -3.217  -9.159   9.667  0.00  0.00    -0.000 A 
ATOM     33  C   UNL     1      -3.457  -9.933   9.821  0.00  0.00    -0.000 A 
ATOM     34  C   UNL     1      -4.123 -10.074  10.286  0.00  0.00    -0.003 A 
ENDBRANCH  28  29
ENDBRANCH   2  28
ENDBRANCH   3   2
ENDBRANCH   4   3
ENDBRANCH   9   6
BRANCH  13  17
ATOM     17  N   UNL     1      -9.481 -10.063  15.723  0.00  0.00    -0.199 NA
ATOM     18  C   UNL     1      -9.823  -9.548  16.269  0.00  0.00    +0.286 C 
ATOM     19  O   UNL     1      -9.936  -8.754  16.073  0.00  0.00    -0.269 OA
BRANCH  18  20
ATOM     20  C   UNL     1     -10.051  -9.825  17.012  0.00  0.00    +0.291 C 
BRANCH  20  21
ATOM     21  O   UNL     1      -9.651  -9.572  17.688  0.00  0.00    -0.466 OA
BRANCH  21  22
ATOM     22  C   UNL     1      -9.830  -9.903  18.421  0.00  0.00    +0.139 A 
ATOM     23  C   UNL     1      -9.299 -10.424  18.780  0.00  0.00    +0.037 A 
ATOM     24  C   UNL     1      -9.479 -10.755  19.514  0.00  0.00    +0.003 A 
ATOM     25  C   UNL     1     -10.189 -10.566  19.890  0.00  0.00    +0.000 A 
ATOM     26  C   UNL     1     -10.719 -10.045  19.531  0.00  0.00    +0.003 A 
ATOM     27  C   UNL     1     -10.539  -9.714  18.797  0.00  0.00    +0.037 A 
ENDBRANCH  21  22
ENDBRANCH  20  21
ENDBRANCH  18  20
ENDBRANCH  13  17
TORSDOF 9
ENDMDL
