MODEL 1
REMARK VINA RESULT:     -10.0      0.000      0.000
REMARK  Name = 
REMARK  6 active torsions:
REMARK  status: ('A' for Active; 'I' for Inactive)
REMARK    1  A    between atoms: C_3  and  N_18
REMARK    2  A    between atoms: C_6  and  C_7
REMARK    3  A    between atoms: C_7  and  N_8
REMARK    4  A    between atoms: N_8  and  S_9
REMARK    5  A    between atoms: S_9  and  C_12
REMARK    6  A    between atoms: N_18  and  C_19
REMARK                            x       y       z     vdW  Elec       q    Type
REMARK                         _______ _______ _______ _____ _____    ______ ____
ROOT
ATOM      1  O   UNL     1      -4.194   1.152  25.017  0.00  0.00    -0.219 OA
ATOM      2  C   UNL     1      -3.481   0.739  24.981  0.00  0.00    +0.199 C 
ATOM      3  C   UNL     1      -3.392  -0.080  25.016  0.00  0.00    +0.135 C 
ATOM      4  C   UNL     1      -2.587  -0.252  24.961  0.00  0.00    +0.162 C 
ATOM      5  O   UNL     1      -2.178   0.461  24.891  0.00  0.00    -0.350 OA
ATOM      6  C   UNL     1      -2.730   1.074  24.904  0.00  0.00    +0.166 C 
ENDROOT
BRANCH   6   7
ATOM      7  C   UNL     1      -2.562   1.879  24.849  0.00  0.00    +0.148 C 
BRANCH   7   8
ATOM      8  N   UNL     1      -1.804   2.155  25.021  0.00  0.00    -0.075 NA
BRANCH   8   9
ATOM      9  S   UNL     1      -1.650   2.966  25.024  0.00  0.00    +0.077 S 
ATOM     10  O   UNL     1      -1.689   2.976  24.200  0.00  0.00    -0.152 OA
ATOM     11  O   UNL     1      -1.611   2.955  25.848  0.00  0.00    -0.152 OA
BRANCH   9  12
ATOM     12  C   UNL     1      -1.496   3.776  25.027  0.00  0.00    +0.124 A 
ATOM     13  C   UNL     1      -2.066   4.303  25.307  0.00  0.00    +0.020 A 
ATOM     14  C   UNL     1      -1.912   5.113  25.310  0.00  0.00    +0.001 A 
ATOM     15  C   UNL     1      -1.189   5.397  25.033  0.00  0.00    +0.000 A 
ATOM     16  C   UNL     1      -0.619   4.871  24.753  0.00  0.00    +0.001 A 
ATOM     17  C   UNL     1      -0.773   4.060  24.750  0.00  0.00    +0.020 A 
ENDBRANCH   9  12
ENDBRANCH   8   9
ENDBRANCH   7   8
ENDBRANCH   6   7
BRANCH   3  18
ATOM     18  N   UNL     1      -4.002  -0.631  25.093  0.00  0.00    -0.216 NA
BRANCH  18  19
ATOM     19  C   UNL     1      -3.912  -1.391  24.785  0.00  0.00    +0.076 C 
ATOM     20  C   UNL     1      -3.532  -1.973  25.229  0.00  0.00    +0.036 C 
ATOM     21  C   UNL     1      -3.442  -2.734  24.921  0.00  0.00    +0.090 C 
ATOM     22  N   UNL     1      -3.733  -2.911  24.170  0.00  0.00    -0.218 NA
ATOM     23  C   UNL     1      -4.113  -2.329  23.726  0.00  0.00    +0.090 C 
ATOM     24  C   UNL     1      -4.203  -1.569  24.034  0.00  0.00    +0.036 C 
ENDBRANCH  18  19
ENDBRANCH   3  18
TORSDOF 6
ENDMDL
MODEL 2
REMARK VINA RESULT:      -9.7      1.365      5.609
REMARK  Name = 
REMARK  6 active torsions:
REMARK  status: ('A' for Active; 'I' for Inactive)
REMARK    1  A    between atoms: C_3  and  N_18
REMARK    2  A    between atoms: C_6  and  C_7
REMARK    3  A    between atoms: C_7  and  N_8
REMARK    4  A    between atoms: N_8  and  S_9
REMARK    5  A    between atoms: S_9  and  C_12
REMARK    6  A    between atoms: N_18  and  C_19
REMARK                            x       y       z     vdW  Elec       q    Type
REMARK                         _______ _______ _______ _____ _____    ______ ____
ROOT
ATOM      1  O   UNL     1      -1.129   1.270  25.642  0.00  0.00    -0.219 OA
ATOM      2  C   UNL     1      -1.767   1.699  25.341  0.00  0.00    +0.199 C 
ATOM      3  C   UNL     1      -1.854   2.519  25.365  0.00  0.00    +0.135 C 
ATOM      4  C   UNL     1      -2.570   2.710  25.002  0.00  0.00    +0.162 C 
ATOM      5  O   UNL     1      -2.925   2.008  24.752  0.00  0.00    -0.350 OA
ATOM      6  C   UNL     1      -2.428   1.383  24.962  0.00  0.00    +0.166 C 
ENDROOT
BRANCH   6   7
ATOM      7  C   UNL     1      -2.568   0.583  24.818  0.00  0.00    +0.148 C 
BRANCH   7   8
ATOM      8  N   UNL     1      -3.340   0.313  24.709  0.00  0.00    -0.075 NA
BRANCH   8   9
ATOM      9  S   UNL     1      -3.484  -0.493  24.601  0.00  0.00    +0.077 S 
ATOM     10  O   UNL     1      -3.153  -0.450  23.846  0.00  0.00    -0.152 OA
ATOM     11  O   UNL     1      -3.814  -0.534  25.355  0.00  0.00    -0.152 OA
BRANCH   9  12
ATOM     12  C   UNL     1      -3.627  -1.298  24.493  0.00  0.00    +0.124 A 
ATOM     13  C   UNL     1      -4.154  -1.549  23.909  0.00  0.00    +0.020 A 
ATOM     14  C   UNL     1      -4.297  -2.353  23.802  0.00  0.00    +0.001 A 
ATOM     15  C   UNL     1      -3.915  -2.908  24.278  0.00  0.00    +0.000 A 
ATOM     16  C   UNL     1      -3.389  -2.658  24.861  0.00  0.00    +0.001 A 
ATOM     17  C   UNL     1      -3.245  -1.852  24.969  0.00  0.00    +0.020 A 
ENDBRANCH   9  12
ENDBRANCH   8   9
ENDBRANCH   7   8
ENDBRANCH   6   7
BRANCH   3  18
ATOM     18  N   UNL     1      -1.320   3.054  25.696  0.00  0.00    -0.216 NA
BRANCH  18  19
ATOM     19  C   UNL     1      -1.293   3.832  25.422  0.00  0.00    +0.076 C 
ATOM     20  C   UNL     1      -0.692   4.067  24.909  0.00  0.00    +0.036 C 
ATOM     21  C   UNL     1      -0.664   4.845  24.634  0.00  0.00    +0.090 C 
ATOM     22  N   UNL     1      -1.238   5.387  24.874  0.00  0.00    -0.218 NA
ATOM     23  C   UNL     1      -1.840   5.151  25.387  0.00  0.00    +0.090 C 
ATOM     24  C   UNL     1      -1.867   4.374  25.661  0.00  0.00    +0.036 C 
ENDBRANCH  18  19
ENDBRANCH   3  18
TORSDOF 6
ENDMDL
MODEL 3
REMARK VINA RESULT:      -6.9     15.898     18.369
REMARK  Name = 
REMARK  6 active torsions:
REMARK  status: ('A' for Active; 'I' for Inactive)
REMARK    1  A    between atoms: C_3  and  N_18
REMARK    2  A    between atoms: C_6  and  C_7
REMARK    3  A    between atoms: C_7  and  N_8
REMARK    4  A    between atoms: N_8  and  S_9
REMARK    5  A    between atoms: S_9  and  C_12
REMARK    6  A    between atoms: N_18  and  C_19
REMARK                            x       y       z     vdW  Elec       q    Type
REMARK                         _______ _______ _______ _____ _____    ______ ____
ROOT
ATOM      1  O   UNL     1      12.289   6.400  19.785  0.00  0.00    -0.219 OA
ATOM      2  C   UNL     1      12.480   7.202  19.811  0.00  0.00    +0.199 C 
ATOM      3  C   UNL     1      11.975   7.814  20.034  0.00  0.00    +0.135 C 
ATOM      4  C   UNL     1      12.393   8.524  19.978  0.00  0.00    +0.162 C 
ATOM      5  O   UNL     1      13.157   8.350  19.720  0.00  0.00    -0.350 OA
ATOM      6  C   UNL     1      13.211   7.533  19.617  0.00  0.00    +0.166 C 
ENDROOT
BRANCH   6   7
ATOM      7  C   UNL     1      13.878   7.119  19.364  0.00  0.00    +0.148 C 
BRANCH   7   8
ATOM      8  N   UNL     1      14.604   7.506  19.301  0.00  0.00    -0.075 NA
BRANCH   8   9
ATOM      9  S   UNL     1      15.304   7.070  19.277  0.00  0.00    +0.077 S 
ATOM     10  O   UNL     1      14.937   6.506  18.799  0.00  0.00    -0.152 OA
ATOM     11  O   UNL     1      15.671   7.633  19.755  0.00  0.00    -0.152 OA
BRANCH   9  12
ATOM     12  C   UNL     1      16.004   6.633  19.254  0.00  0.00    +0.124 A 
ATOM     13  C   UNL     1      16.509   6.627  19.906  0.00  0.00    +0.020 A 
ATOM     14  C   UNL     1      17.208   6.191  19.882  0.00  0.00    +0.001 A 
ATOM     15  C   UNL     1      17.403   5.760  19.206  0.00  0.00    +0.000 A 
ATOM     16  C   UNL     1      16.899   5.766  18.554  0.00  0.00    +0.001 A 
ATOM     17  C   UNL     1      16.199   6.203  18.577  0.00  0.00    +0.020 A 
ENDBRANCH   9  12
ENDBRANCH   8   9
ENDBRANCH   7   8
ENDBRANCH   6   7
BRANCH   3  18
ATOM     18  N   UNL     1      11.189   7.732  20.272  0.00  0.00    -0.216 NA
BRANCH  18  19
ATOM     19  C   UNL     1      10.950   8.012  21.010  0.00  0.00    +0.076 C 
ATOM     20  C   UNL     1      10.885   7.492  21.647  0.00  0.00    +0.036 C 
ATOM     21  C   UNL     1      10.645   7.772  22.386  0.00  0.00    +0.090 C 
ATOM     22  N   UNL     1      10.472   8.572  22.486  0.00  0.00    -0.218 NA
ATOM     23  C   UNL     1      10.537   9.092  21.849  0.00  0.00    +0.090 C 
ATOM     24  C   UNL     1      10.776   8.812  21.111  0.00  0.00    +0.036 C 
ENDBRANCH  18  19
ENDBRANCH   3  18
TORSDOF 6
ENDMDL
MODEL 4
REMARK VINA RESULT:      -6.6     17.611     19.364
REMARK  Name = 
REMARK  6 active torsions:
REMARK  status: ('A' for Active; 'I' for Inactive)
REMARK    1  A    between atoms: C_3  and  N_18
REMARK    2  A    between atoms: C_6  and  C_7
REMARK    3  A    between atoms: C_7  and  N_8
REMARK    4  A    between atoms: N_8  and  S_9
REMARK    5  A    between atoms: S_9  and  C_12
REMARK    6  A    between atoms: N_18  and  C_19
REMARK                            x       y       z     vdW  Elec       q    Type
REMARK                         _______ _______ _______ _____ _____    ______ ____
ROOT
ATOM      1  O   UNL     1      15.187   8.845  18.512  0.00  0.00    -0.219 OA
ATOM      2  C   UNL     1      14.812   8.247  18.939  0.00  0.00    +0.199 C 
ATOM      3  C   UNL     1      15.123   7.847  19.590  0.00  0.00    +0.135 C 
ATOM      4  C   UNL     1      14.563   7.297  19.843  0.00  0.00    +0.162 C 
ATOM      5  O   UNL     1      13.905   7.357  19.350  0.00  0.00    -0.350 OA
ATOM      6  C   UNL     1      14.058   7.945  18.791  0.00  0.00    +0.166 C 
ENDROOT
BRANCH   6   7
ATOM      7  C   UNL     1      13.549   8.187  18.190  0.00  0.00    +0.148 C 
BRANCH   7   8
ATOM      8  N   UNL     1      12.768   7.921  18.179  0.00  0.00    -0.075 NA
BRANCH   8   9
ATOM      9  S   UNL     1      12.247   8.192  17.599  0.00  0.00    +0.077 S 
ATOM     10  O   UNL     1      12.505   7.595  17.089  0.00  0.00    -0.152 OA
ATOM     11  O   UNL     1      11.991   8.787  18.107  0.00  0.00    -0.152 OA
BRANCH   9  12
ATOM     12  C   UNL     1      11.727   8.463  17.018  0.00  0.00    +0.124 A 
ATOM     13  C   UNL     1      12.020   8.823  16.337  0.00  0.00    +0.020 A 
ATOM     14  C   UNL     1      11.500   9.094  15.757  0.00  0.00    +0.001 A 
ATOM     15  C   UNL     1      10.686   9.004  15.858  0.00  0.00    +0.000 A 
ATOM     16  C   UNL     1      10.393   8.644  16.540  0.00  0.00    +0.001 A 
ATOM     17  C   UNL     1      10.913   8.373  17.120  0.00  0.00    +0.020 A 
ENDBRANCH   9  12
ENDBRANCH   8   9
ENDBRANCH   7   8
ENDBRANCH   6   7
BRANCH   3  18
ATOM     18  N   UNL     1      15.866   7.975  19.927  0.00  0.00    -0.216 NA
BRANCH  18  19
ATOM     19  C   UNL     1      16.316   7.334  20.188  0.00  0.00    +0.076 C 
ATOM     20  C   UNL     1      16.818   6.944  19.663  0.00  0.00    +0.036 C 
ATOM     21  C   UNL     1      17.269   6.303  19.923  0.00  0.00    +0.090 C 
ATOM     22  N   UNL     1      17.216   6.054  20.708  0.00  0.00    -0.218 NA
ATOM     23  C   UNL     1      16.713   6.445  21.233  0.00  0.00    +0.090 C 
ATOM     24  C   UNL     1      16.263   7.085  20.972  0.00  0.00    +0.036 C 
ENDBRANCH  18  19
ENDBRANCH   3  18
TORSDOF 6
ENDMDL
