MODEL 1
REMARK VINA RESULT:     -11.9      0.000      0.000
REMARK  Name = 
REMARK  8 active torsions:
REMARK  status: ('A' for Active; 'I' for Inactive)
REMARK    1  A    between atoms: C_2  and  C_3
REMARK    2  A    between atoms: C_3  and  C_4
REMARK    3  A    between atoms: C_4  and  C_5
REMARK    4  A    between atoms: C_5  and  C_6
REMARK    5  A    between atoms: C_15  and  C_17
REMARK    6  A    between atoms: C_25  and  C_26
REMARK    7  A    between atoms: C_26  and  C_27
REMARK    8  A    between atoms: N_29  and  C_30
REMARK                            x       y       z     vdW  Elec       q    Type
REMARK                         _______ _______ _______ _____ _____    ______ ____
ROOT
ATOM      6  C   UNL     1       1.211   0.998  23.541  0.00  0.00    +0.247 C 
ATOM      7  O   UNL     1       1.388   1.771  23.768  0.00  0.00    -0.273 OA
ATOM      8  N   UNL     1       0.445   0.706  23.633  0.00  0.00    -0.154 NA
ATOM      9  C   UNL     1      -0.144   1.189  23.951  0.00  0.00    +0.185 A 
ATOM     10  N   UNL     1      -0.932   0.975  24.075  0.00  0.00    -0.227 NA
ATOM     11  C   UNL     1      -1.324   1.623  24.402  0.00  0.00    +0.063 A 
ATOM     12  C   UNL     1      -0.778   2.238  24.480  0.00  0.00    +0.023 A 
ATOM     13  C   UNL     1      -1.016   2.962  24.794  0.00  0.00    +0.034 C 
ATOM     14  C   UNL     1      -1.799   3.072  25.031  0.00  0.00    +0.010 C 
ATOM     15  C   UNL     1      -2.036   3.798  25.346  0.00  0.00    +0.059 C 
ATOM     16  C   UNL     1      -1.240   3.958  25.201  0.00  0.00    +0.005 C 
ATOM     19  C   UNL     1      -2.819   3.908  25.582  0.00  0.00    +0.154 C 
ATOM     20  O   UNL     1      -3.057   4.632  25.897  0.00  0.00    -0.223 OA
ATOM     21  C   UNL     1      -3.364   3.293  25.504  0.00  0.00    +0.033 C 
ATOM     22  C   UNL     1      -3.126   2.569  25.190  0.00  0.00    +0.003 C 
ATOM     23  C   UNL     1      -2.343   2.458  24.953  0.00  0.00    +0.006 C 
ATOM     24  C   UNL     1      -2.888   1.843  24.875  0.00  0.00    +0.000 C 
ATOM     25  C   UNL     1      -2.106   1.733  24.639  0.00  0.00    +0.050 C 
ATOM     37  S   UNL     1      -0.050   1.969  24.201  0.00  0.00    -0.054 S 
ENDROOT
BRANCH  15  17
ATOM     17  C   UNL     1      -1.997   4.578  25.609  0.00  0.00    +0.184 C 
ATOM     18  O   UNL     1      -1.397   5.075  25.339  0.00  0.00    -0.220 OA
ENDBRANCH  15  17
BRANCH   6   5
ATOM      5  C   UNL     1       1.800   0.515  23.223  0.00  0.00    +0.087 C 
BRANCH   5   4
ATOM      4  C   UNL     1       2.553   0.823  23.081  0.00  0.00    +0.010 C 
BRANCH   4   3
ATOM      3  C   UNL     1       3.161   0.324  22.831  0.00  0.00    +0.001 C 
BRANCH   3   2
ATOM      1  C   UNL     1       4.582   0.368  22.974  0.00  0.00    +0.000 C 
ATOM      2  C   UNL     1       3.891   0.642  22.615  0.00  0.00    +0.000 C 
ENDBRANCH   3   2
ENDBRANCH   4   3
ENDBRANCH   5   4
ENDBRANCH   6   5
BRANCH  25  26
ATOM     26  C   UNL     1      -2.651   1.119  24.561  0.00  0.00    +0.093 C 
BRANCH  26  27
ATOM     27  C   UNL     1      -2.986   0.956  23.826  0.00  0.00    +0.246 C 
ATOM     28  O   UNL     1      -2.946   1.515  23.221  0.00  0.00    -0.273 OA
ATOM     29  N   UNL     1      -3.363   0.233  23.695  0.00  0.00    -0.179 NA
BRANCH  29  30
ATOM     30  C   UNL     1      -3.403  -0.326  24.300  0.00  0.00    +0.077 A 
ATOM     31  C   UNL     1      -2.861  -0.948  24.324  0.00  0.00    +0.059 A 
ATOM     32  C   UNL     1      -2.901  -1.507  24.928  0.00  0.00    +0.197 A 
ATOM     33  O   UNL     1      -2.359  -2.128  24.953  0.00  0.00    -0.287 OA
ATOM     34  C   UNL     1      -3.484  -1.445  25.510  0.00  0.00    +0.042 A 
ATOM     35  C   UNL     1      -4.026  -0.823  25.485  0.00  0.00    +0.005 A 
ATOM     36  C   UNL     1      -3.985  -0.265  24.881  0.00  0.00    +0.017 A 
ENDBRANCH  29  30
ENDBRANCH  26  27
ENDBRANCH  25  26
TORSDOF 8
ENDMDL
MODEL 2
REMARK VINA RESULT:     -11.8      0.933      3.642
REMARK  Name = 
REMARK  8 active torsions:
REMARK  status: ('A' for Active; 'I' for Inactive)
REMARK    1  A    between atoms: C_2  and  C_3
REMARK    2  A    between atoms: C_3  and  C_4
REMARK    3  A    between atoms: C_4  and  C_5
REMARK    4  A    between atoms: C_5  and  C_6
REMARK    5  A    between atoms: C_15  and  C_17
REMARK    6  A    between atoms: C_25  and  C_26
REMARK    7  A    between atoms: C_26  and  C_27
REMARK    8  A    between atoms: N_29  and  C_30
REMARK                            x       y       z     vdW  Elec       q    Type
REMARK                         _______ _______ _______ _____ _____    ______ ____
ROOT
ATOM      6  C   UNL     1       1.168   0.581  23.373  0.00  0.00    +0.247 C 
ATOM      7  O   UNL     1       1.110  -0.234  23.485  0.00  0.00    -0.273 OA
ATOM      8  N   UNL     1       0.523   1.067  23.538  0.00  0.00    -0.154 NA
ATOM      9  C   UNL     1      -0.181   0.738  23.816  0.00  0.00    +0.185 A 
ATOM     10  N   UNL     1      -0.870   1.153  24.004  0.00  0.00    -0.227 NA
ATOM     11  C   UNL     1      -1.434   0.608  24.259  0.00  0.00    +0.063 A 
ATOM     12  C   UNL     1      -1.094  -0.144  24.228  0.00  0.00    +0.023 A 
ATOM     13  C   UNL     1      -1.534  -0.804  24.454  0.00  0.00    +0.034 C 
ATOM     14  C   UNL     1      -2.313  -0.714  24.710  0.00  0.00    +0.010 C 
ATOM     15  C   UNL     1      -2.753  -1.375  24.935  0.00  0.00    +0.059 C 
ATOM     16  C   UNL     1      -2.041  -1.739  24.733  0.00  0.00    +0.005 C 
ATOM     19  C   UNL     1      -3.532  -1.284  25.191  0.00  0.00    +0.154 C 
ATOM     20  O   UNL     1      -3.972  -1.944  25.416  0.00  0.00    -0.223 OA
ATOM     21  C   UNL     1      -3.872  -0.532  25.221  0.00  0.00    +0.033 C 
ATOM     22  C   UNL     1      -3.431   0.128  24.996  0.00  0.00    +0.003 C 
ATOM     23  C   UNL     1      -2.652   0.037  24.740  0.00  0.00    +0.006 C 
ATOM     24  C   UNL     1      -2.991   0.789  24.770  0.00  0.00    +0.000 C 
ATOM     25  C   UNL     1      -2.213   0.699  24.515  0.00  0.00    +0.050 C 
ATOM     37  S   UNL     1      -0.320  -0.063  23.954  0.00  0.00    -0.054 S 
ENDROOT
BRANCH  15  17
ATOM     17  C   UNL     1      -2.945  -2.161  25.090  0.00  0.00    +0.184 C 
ATOM     18  O   UNL     1      -2.524  -2.769  24.723  0.00  0.00    -0.220 OA
ENDBRANCH  15  17
BRANCH   6   5
ATOM      5  C   UNL     1       1.872   0.910  23.094  0.00  0.00    +0.087 C 
BRANCH   5   4
ATOM      4  C   UNL     1       2.542   0.437  23.009  0.00  0.00    +0.010 C 
BRANCH   4   3
ATOM      3  C   UNL     1       3.276   0.785  22.859  0.00  0.00    +0.001 C 
BRANCH   3   2
ATOM      1  C   UNL     1       4.656   0.478  23.060  0.00  0.00    +0.000 C 
ATOM      2  C   UNL     1       3.932   0.311  22.701  0.00  0.00    +0.000 C 
ENDBRANCH   3   2
ENDBRANCH   4   3
ENDBRANCH   5   4
ENDBRANCH   6   5
BRANCH  25  26
ATOM     26  C   UNL     1      -2.552   1.449  24.545  0.00  0.00    +0.093 C 
BRANCH  26  27
ATOM     27  C   UNL     1      -2.814   1.812  23.853  0.00  0.00    +0.246 C 
ATOM     28  O   UNL     1      -2.919   1.365  23.167  0.00  0.00    -0.273 OA
ATOM     29  N   UNL     1      -2.971   2.622  23.844  0.00  0.00    -0.179 NA
BRANCH  29  30
ATOM     30  C   UNL     1      -2.866   3.069  24.530  0.00  0.00    +0.077 A 
ATOM     31  C   UNL     1      -2.149   3.455  24.666  0.00  0.00    +0.059 A 
ATOM     32  C   UNL     1      -2.044   3.901  25.350  0.00  0.00    +0.197 A 
ATOM     33  O   UNL     1      -1.328   4.287  25.486  0.00  0.00    -0.287 OA
ATOM     34  C   UNL     1      -2.656   3.963  25.901  0.00  0.00    +0.042 A 
ATOM     35  C   UNL     1      -3.373   3.577  25.765  0.00  0.00    +0.005 A 
ATOM     36  C   UNL     1      -3.477   3.131  25.080  0.00  0.00    +0.017 A 
ENDBRANCH  29  30
ENDBRANCH  26  27
ENDBRANCH  25  26
TORSDOF 8
ENDMDL
MODEL 3
REMARK VINA RESULT:     -11.6      2.379      4.442
REMARK  Name = 
REMARK  8 active torsions:
REMARK  status: ('A' for Active; 'I' for Inactive)
REMARK    1  A    between atoms: C_2  and  C_3
REMARK    2  A    between atoms: C_3  and  C_4
REMARK    3  A    between atoms: C_4  and  C_5
REMARK    4  A    between atoms: C_5  and  C_6
REMARK    5  A    between atoms: C_15  and  C_17
REMARK    6  A    between atoms: C_25  and  C_26
REMARK    7  A    between atoms: C_26  and  C_27
REMARK    8  A    between atoms: N_29  and  C_30
REMARK                            x       y       z     vdW  Elec       q    Type
REMARK                         _______ _______ _______ _____ _____    ______ ____
ROOT
ATOM      6  C   UNL     1      -0.586   2.289  25.348  0.00  0.00    +0.247 C 
ATOM      7  O   UNL     1      -0.164   1.581  25.352  0.00  0.00    -0.273 OA
ATOM      8  N   UNL     1      -1.402   2.283  25.226  0.00  0.00    -0.154 NA
ATOM      9  C   UNL     1      -1.796   1.567  25.107  0.00  0.00    +0.185 A 
ATOM     10  N   UNL     1      -2.606   1.475  24.979  0.00  0.00    -0.227 NA
ATOM     11  C   UNL     1      -2.759   0.670  24.888  0.00  0.00    +0.063 A 
ATOM     12  C   UNL     1      -2.043   0.264  24.961  0.00  0.00    +0.023 A 
ATOM     13  C   UNL     1      -2.027  -0.558  24.894  0.00  0.00    +0.034 C 
ATOM     14  C   UNL     1      -2.726  -0.975  24.755  0.00  0.00    +0.010 C 
ATOM     15  C   UNL     1      -2.708  -1.797  24.688  0.00  0.00    +0.059 C 
ATOM     16  C   UNL     1      -1.908  -1.648  24.820  0.00  0.00    +0.005 C 
ATOM     19  C   UNL     1      -3.406  -2.214  24.549  0.00  0.00    +0.154 C 
ATOM     20  O   UNL     1      -3.390  -3.036  24.482  0.00  0.00    -0.223 OA
ATOM     21  C   UNL     1      -4.122  -1.809  24.476  0.00  0.00    +0.033 C 
ATOM     22  C   UNL     1      -4.138  -0.987  24.543  0.00  0.00    +0.003 C 
ATOM     23  C   UNL     1      -3.440  -0.570  24.682  0.00  0.00    +0.006 C 
ATOM     24  C   UNL     1      -4.155  -0.164  24.610  0.00  0.00    +0.000 C 
ATOM     25  C   UNL     1      -3.457   0.253  24.749  0.00  0.00    +0.050 C 
ATOM     37  S   UNL     1      -1.449   0.820  25.096  0.00  0.00    -0.054 S 
ENDROOT
BRANCH  15  17
ATOM     17  C   UNL     1      -2.413  -2.567  24.667  0.00  0.00    +0.184 C 
ATOM     18  O   UNL     1      -1.599  -2.696  24.656  0.00  0.00    -0.220 OA
ENDBRANCH  15  17
BRANCH   6   5
ATOM      5  C   UNL     1      -0.193   3.005  25.467  0.00  0.00    +0.087 C 
BRANCH   5   4
ATOM      4  C   UNL     1      -0.344   3.646  24.971  0.00  0.00    +0.010 C 
BRANCH   4   3
ATOM      3  C   UNL     1      -0.416   4.405  25.287  0.00  0.00    +0.001 C 
BRANCH   3   2
ATOM      1  C   UNL     1      -1.213   5.544  24.958  0.00  0.00    +0.000 C 
ATOM      2  C   UNL     1      -0.578   5.045  24.792  0.00  0.00    +0.000 C 
ENDBRANCH   3   2
ENDBRANCH   4   3
ENDBRANCH   5   4
ENDBRANCH   6   5
BRANCH  25  26
ATOM     26  C   UNL     1      -4.172   0.658  24.677  0.00  0.00    +0.093 C 
BRANCH  26  27
ATOM     27  C   UNL     1      -4.328   1.101  23.999  0.00  0.00    +0.246 C 
ATOM     28  O   UNL     1      -3.925   0.938  23.298  0.00  0.00    -0.273 OA
ATOM     29  N   UNL     1      -4.886   1.709  24.022  0.00  0.00    -0.179 NA
BRANCH  29  30
ATOM     30  C   UNL     1      -5.288   1.872  24.724  0.00  0.00    +0.077 A 
ATOM     31  C   UNL     1      -5.047   2.502  25.201  0.00  0.00    +0.059 A 
ATOM     32  C   UNL     1      -5.449   2.665  25.902  0.00  0.00    +0.197 A 
ATOM     33  O   UNL     1      -5.209   3.294  26.378  0.00  0.00    -0.287 OA
ATOM     34  C   UNL     1      -6.092   2.199  26.127  0.00  0.00    +0.042 A 
ATOM     35  C   UNL     1      -6.332   1.570  25.650  0.00  0.00    +0.005 A 
ATOM     36  C   UNL     1      -5.930   1.406  24.950  0.00  0.00    +0.017 A 
ENDBRANCH  29  30
ENDBRANCH  26  27
ENDBRANCH  25  26
TORSDOF 8
ENDMDL
MODEL 4
REMARK VINA RESULT:     -11.1      1.311      1.768
REMARK  Name = 
REMARK  8 active torsions:
REMARK  status: ('A' for Active; 'I' for Inactive)
REMARK    1  A    between atoms: C_2  and  C_3
REMARK    2  A    between atoms: C_3  and  C_4
REMARK    3  A    between atoms: C_4  and  C_5
REMARK    4  A    between atoms: C_5  and  C_6
REMARK    5  A    between atoms: C_15  and  C_17
REMARK    6  A    between atoms: C_25  and  C_26
REMARK    7  A    between atoms: C_26  and  C_27
REMARK    8  A    between atoms: N_29  and  C_30
REMARK                            x       y       z     vdW  Elec       q    Type
REMARK                         _______ _______ _______ _____ _____    ______ ____
ROOT
ATOM      6  C   UNL     1       0.601   0.580  23.527  0.00  0.00    +0.247 C 
ATOM      7  O   UNL     1       0.477   1.387  23.412  0.00  0.00    -0.273 OA
ATOM      8  N   UNL     1      -0.016   0.100  23.791  0.00  0.00    -0.154 NA
ATOM      9  C   UNL     1      -0.759   0.430  23.940  0.00  0.00    +0.185 A 
ATOM     10  N   UNL     1      -1.425   0.021  24.205  0.00  0.00    -0.227 NA
ATOM     11  C   UNL     1      -2.043   0.563  24.279  0.00  0.00    +0.063 A 
ATOM     12  C   UNL     1      -1.757   1.307  24.060  0.00  0.00    +0.023 A 
ATOM     13  C   UNL     1      -2.258   1.962  24.081  0.00  0.00    +0.034 C 
ATOM     14  C   UNL     1      -3.043   1.876  24.319  0.00  0.00    +0.010 C 
ATOM     15  C   UNL     1      -3.542   2.532  24.339  0.00  0.00    +0.059 C 
ATOM     16  C   UNL     1      -2.847   2.890  24.076  0.00  0.00    +0.005 C 
ATOM     19  C   UNL     1      -4.327   2.445  24.577  0.00  0.00    +0.154 C 
ATOM     20  O   UNL     1      -4.827   3.101  24.597  0.00  0.00    -0.223 OA
ATOM     21  C   UNL     1      -4.613   1.702  24.796  0.00  0.00    +0.033 C 
ATOM     22  C   UNL     1      -4.112   1.047  24.776  0.00  0.00    +0.003 C 
ATOM     23  C   UNL     1      -3.327   1.133  24.537  0.00  0.00    +0.006 C 
ATOM     24  C   UNL     1      -3.612   0.390  24.756  0.00  0.00    +0.000 C 
ATOM     25  C   UNL     1      -2.828   0.477  24.517  0.00  0.00    +0.050 C 
ATOM     37  S   UNL     1      -0.964   1.223  23.851  0.00  0.00    -0.054 S 
ENDROOT
BRANCH  15  17
ATOM     17  C   UNL     1      -3.800   3.312  24.267  0.00  0.00    +0.184 C 
ATOM     18  O   UNL     1      -3.254   3.929  24.276  0.00  0.00    -0.220 OA
ENDBRANCH  15  17
BRANCH   6   5
ATOM      5  C   UNL     1       1.344   0.251  23.378  0.00  0.00    +0.087 C 
BRANCH   5   4
ATOM      4  C   UNL     1       1.954   0.725  23.091  0.00  0.00    +0.010 C 
BRANCH   4   3
ATOM      3  C   UNL     1       2.681   0.387  22.894  0.00  0.00    +0.001 C 
BRANCH   3   2
ATOM      1  C   UNL     1       4.094   0.557  22.772  0.00  0.00    +0.000 C 
ATOM      2  C   UNL     1       3.332   0.870  22.738  0.00  0.00    +0.000 C 
ENDBRANCH   3   2
ENDBRANCH   4   3
ENDBRANCH   5   4
ENDBRANCH   6   5
BRANCH  25  26
ATOM     26  C   UNL     1      -3.113  -0.265  24.736  0.00  0.00    +0.093 C 
BRANCH  26  27
ATOM     27  C   UNL     1      -2.964  -0.558  25.492  0.00  0.00    +0.246 C 
ATOM     28  O   UNL     1      -2.737  -0.044  26.096  0.00  0.00    -0.273 OA
ATOM     29  N   UNL     1      -3.042  -1.365  25.645  0.00  0.00    -0.179 NA
BRANCH  29  30
ATOM     30  C   UNL     1      -3.269  -1.879  25.041  0.00  0.00    +0.077 A 
ATOM     31  C   UNL     1      -2.708  -2.366  24.681  0.00  0.00    +0.059 A 
ATOM     32  C   UNL     1      -2.935  -2.880  24.077  0.00  0.00    +0.197 A 
ATOM     33  O   UNL     1      -2.375  -3.366  23.717  0.00  0.00    -0.287 OA
ATOM     34  C   UNL     1      -3.723  -2.908  23.833  0.00  0.00    +0.042 A 
ATOM     35  C   UNL     1      -4.283  -2.421  24.194  0.00  0.00    +0.005 A 
ATOM     36  C   UNL     1      -4.057  -1.908  24.797  0.00  0.00    +0.017 A 
ENDBRANCH  29  30
ENDBRANCH  26  27
ENDBRANCH  25  26
TORSDOF 8
ENDMDL
MODEL 5
REMARK VINA RESULT:     -11.1      2.349      3.634
REMARK  Name = 
REMARK  8 active torsions:
REMARK  status: ('A' for Active; 'I' for Inactive)
REMARK    1  A    between atoms: C_2  and  C_3
REMARK    2  A    between atoms: C_3  and  C_4
REMARK    3  A    between atoms: C_4  and  C_5
REMARK    4  A    between atoms: C_5  and  C_6
REMARK    5  A    between atoms: C_15  and  C_17
REMARK    6  A    between atoms: C_25  and  C_26
REMARK    7  A    between atoms: C_26  and  C_27
REMARK    8  A    between atoms: N_29  and  C_30
REMARK                            x       y       z     vdW  Elec       q    Type
REMARK                         _______ _______ _______ _____ _____    ______ ____
ROOT
ATOM      6  C   UNL     1      -1.520  -0.740  24.683  0.00  0.00    +0.247 C 
ATOM      7  O   UNL     1      -0.774  -0.396  24.765  0.00  0.00    -0.273 OA
ATOM      8  N   UNL     1      -2.194  -0.266  24.667  0.00  0.00    -0.154 NA
ATOM      9  C   UNL     1      -2.123   0.554  24.733  0.00  0.00    +0.185 A 
ATOM     10  N   UNL     1      -2.745   1.097  24.727  0.00  0.00    -0.227 NA
ATOM     11  C   UNL     1      -2.424   1.853  24.807  0.00  0.00    +0.063 A 
ATOM     12  C   UNL     1      -1.603   1.777  24.864  0.00  0.00    +0.023 A 
ATOM     13  C   UNL     1      -1.133   2.449  24.949  0.00  0.00    +0.034 C 
ATOM     14  C   UNL     1      -1.481   3.196  24.978  0.00  0.00    +0.010 C 
ATOM     15  C   UNL     1      -1.009   3.868  25.064  0.00  0.00    +0.059 C 
ATOM     16  C   UNL     1      -0.427   3.283  25.065  0.00  0.00    +0.005 C 
ATOM     19  C   UNL     1      -1.357   4.615  25.093  0.00  0.00    +0.154 C 
ATOM     20  O   UNL     1      -0.886   5.287  25.179  0.00  0.00    -0.223 OA
ATOM     21  C   UNL     1      -2.177   4.691  25.037  0.00  0.00    +0.033 C 
ATOM     22  C   UNL     1      -2.648   4.019  24.951  0.00  0.00    +0.003 C 
ATOM     23  C   UNL     1      -2.300   3.272  24.922  0.00  0.00    +0.006 C 
ATOM     24  C   UNL     1      -3.119   3.347  24.866  0.00  0.00    +0.000 C 
ATOM     25  C   UNL     1      -2.772   2.600  24.837  0.00  0.00    +0.050 C 
ATOM     37  S   UNL     1      -1.418   0.974  24.818  0.00  0.00    -0.054 S 
ENDROOT
BRANCH  15  17
ATOM     17  C   UNL     1      -0.335   4.336  25.150  0.00  0.00    +0.184 C 
ATOM     18  O   UNL     1       0.375   3.995  25.394  0.00  0.00    -0.220 OA
ENDBRANCH  15  17
BRANCH   6   5
ATOM      5  C   UNL     1      -1.591  -1.560  24.616  0.00  0.00    +0.087 C 
BRANCH   5   4
ATOM      4  C   UNL     1      -2.289  -1.933  24.851  0.00  0.00    +0.010 C 
BRANCH   4   3
ATOM      3  C   UNL     1      -2.536  -2.622  24.470  0.00  0.00    +0.001 C 
BRANCH   3   2
ATOM      1  C   UNL     1      -3.834  -3.147  24.190  0.00  0.00    +0.000 C 
ATOM      2  C   UNL     1      -3.219  -3.010  24.722  0.00  0.00    +0.000 C 
ENDBRANCH   3   2
ENDBRANCH   4   3
ENDBRANCH   5   4
ENDBRANCH   6   5
BRANCH  25  26
ATOM     26  C   UNL     1      -3.591   2.676  24.780  0.00  0.00    +0.093 C 
BRANCH  26  27
ATOM     27  C   UNL     1      -3.963   2.598  24.049  0.00  0.00    +0.246 C 
ATOM     28  O   UNL     1      -3.524   2.666  23.354  0.00  0.00    -0.273 OA
ATOM     29  N   UNL     1      -4.774   2.454  24.011  0.00  0.00    -0.179 NA
BRANCH  29  30
ATOM     30  C   UNL     1      -5.214   2.387  24.706  0.00  0.00    +0.077 A 
ATOM     31  C   UNL     1      -5.492   3.065  25.086  0.00  0.00    +0.059 A 
ATOM     32  C   UNL     1      -5.931   2.998  25.780  0.00  0.00    +0.197 A 
ATOM     33  O   UNL     1      -6.209   3.675  26.160  0.00  0.00    -0.287 OA
ATOM     34  C   UNL     1      -6.092   2.252  26.096  0.00  0.00    +0.042 A 
ATOM     35  C   UNL     1      -5.814   1.575  25.717  0.00  0.00    +0.005 A 
ATOM     36  C   UNL     1      -5.375   1.642  25.022  0.00  0.00    +0.017 A 
ENDBRANCH  29  30
ENDBRANCH  26  27
ENDBRANCH  25  26
TORSDOF 8
ENDMDL
MODEL 6
REMARK VINA RESULT:     -10.6      2.285      4.316
REMARK  Name = 
REMARK  8 active torsions:
REMARK  status: ('A' for Active; 'I' for Inactive)
REMARK    1  A    between atoms: C_2  and  C_3
REMARK    2  A    between atoms: C_3  and  C_4
REMARK    3  A    between atoms: C_4  and  C_5
REMARK    4  A    between atoms: C_5  and  C_6
REMARK    5  A    between atoms: C_15  and  C_17
REMARK    6  A    between atoms: C_25  and  C_26
REMARK    7  A    between atoms: C_26  and  C_27
REMARK    8  A    between atoms: N_29  and  C_30
REMARK                            x       y       z     vdW  Elec       q    Type
REMARK                         _______ _______ _______ _____ _____    ______ ____
ROOT
ATOM      6  C   UNL     1      -3.916  -1.211  24.211  0.00  0.00    +0.247 C 
ATOM      7  O   UNL     1      -4.690  -1.095  24.470  0.00  0.00    -0.273 OA
ATOM      8  N   UNL     1      -3.393  -0.575  24.172  0.00  0.00    -0.154 NA
ATOM      9  C   UNL     1      -3.645   0.180  24.392  0.00  0.00    +0.185 A 
ATOM     10  N   UNL     1      -3.187   0.866  24.382  0.00  0.00    -0.227 NA
ATOM     11  C   UNL     1      -3.658   1.491  24.645  0.00  0.00    +0.063 A 
ATOM     12  C   UNL     1      -4.407   1.190  24.817  0.00  0.00    +0.023 A 
ATOM     13  C   UNL     1      -4.999   1.693  25.093  0.00  0.00    +0.034 C 
ATOM     14  C   UNL     1      -4.843   2.497  25.198  0.00  0.00    +0.010 C 
ATOM     15  C   UNL     1      -5.436   2.999  25.475  0.00  0.00    +0.059 C 
ATOM     16  C   UNL     1      -5.848   2.284  25.465  0.00  0.00    +0.005 C 
ATOM     19  C   UNL     1      -5.280   3.802  25.579  0.00  0.00    +0.154 C 
ATOM     20  O   UNL     1      -5.872   4.306  25.856  0.00  0.00    -0.223 OA
ATOM     21  C   UNL     1      -4.531   4.103  25.407  0.00  0.00    +0.033 C 
ATOM     22  C   UNL     1      -3.938   3.600  25.131  0.00  0.00    +0.003 C 
ATOM     23  C   UNL     1      -4.095   2.797  25.026  0.00  0.00    +0.006 C 
ATOM     24  C   UNL     1      -3.345   3.096  24.854  0.00  0.00    +0.000 C 
ATOM     25  C   UNL     1      -3.502   2.294  24.749  0.00  0.00    +0.050 C 
ATOM     37  S   UNL     1      -4.399   0.380  24.661  0.00  0.00    -0.054 S 
ENDROOT
BRANCH  15  17
ATOM     17  C   UNL     1      -6.171   3.253  25.748  0.00  0.00    +0.184 C 
ATOM     18  O   UNL     1      -6.622   2.764  26.235  0.00  0.00    -0.220 OA
ENDBRANCH  15  17
BRANCH   6   5
ATOM      5  C   UNL     1      -3.663  -1.966  23.991  0.00  0.00    +0.087 C 
BRANCH   5   4
ATOM      4  C   UNL     1      -3.195  -2.410  24.504  0.00  0.00    +0.010 C 
BRANCH   4   3
ATOM      3  C   UNL     1      -2.567  -2.857  24.207  0.00  0.00    +0.001 C 
BRANCH   3   2
ATOM      1  C   UNL     1      -1.179  -2.781  24.535  0.00  0.00    +0.000 C 
ATOM      2  C   UNL     1      -1.938  -3.061  24.700  0.00  0.00    +0.000 C 
ENDBRANCH   3   2
ENDBRANCH   4   3
ENDBRANCH   5   4
ENDBRANCH   6   5
BRANCH  25  26
ATOM     26  C   UNL     1      -2.753   2.594  24.577  0.00  0.00    +0.093 C 
BRANCH  26  27
ATOM     27  C   UNL     1      -2.512   2.676  23.794  0.00  0.00    +0.246 C 
ATOM     28  O   UNL     1      -3.070   2.658  23.186  0.00  0.00    -0.273 OA
ATOM     29  N   UNL     1      -1.712   2.775  23.616  0.00  0.00    -0.179 NA
BRANCH  29  30
ATOM     30  C   UNL     1      -1.154   2.793  24.223  0.00  0.00    +0.077 A 
ATOM     31  C   UNL     1      -0.741   2.107  24.425  0.00  0.00    +0.059 A 
ATOM     32  C   UNL     1      -0.184   2.124  25.031  0.00  0.00    +0.197 A 
ATOM     33  O   UNL     1       0.228   1.439  25.233  0.00  0.00    -0.287 OA
ATOM     34  C   UNL     1      -0.038   2.828  25.438  0.00  0.00    +0.042 A 
ATOM     35  C   UNL     1      -0.450   3.513  25.236  0.00  0.00    +0.005 A 
ATOM     36  C   UNL     1      -1.008   3.496  24.629  0.00  0.00    +0.017 A 
ENDBRANCH  29  30
ENDBRANCH  26  27
ENDBRANCH  25  26
TORSDOF 8
ENDMDL
MODEL 7
REMARK VINA RESULT:      -9.9      2.141      5.905
REMARK  Name = 
REMARK  8 active torsions:
REMARK  status: ('A' for Active; 'I' for Inactive)
REMARK    1  A    between atoms: C_2  and  C_3
REMARK    2  A    between atoms: C_3  and  C_4
REMARK    3  A    between atoms: C_4  and  C_5
REMARK    4  A    between atoms: C_5  and  C_6
REMARK    5  A    between atoms: C_15  and  C_17
REMARK    6  A    between atoms: C_25  and  C_26
REMARK    7  A    between atoms: C_26  and  C_27
REMARK    8  A    between atoms: N_29  and  C_30
REMARK                            x       y       z     vdW  Elec       q    Type
REMARK                         _______ _______ _______ _____ _____    ______ ____
ROOT
ATOM      6  C   UNL     1      -5.403   1.761  25.071  0.00  0.00    +0.247 C 
ATOM      7  O   UNL     1      -5.707   0.994  25.077  0.00  0.00    -0.273 OA
ATOM      8  N   UNL     1      -4.591   1.883  24.991  0.00  0.00    -0.154 NA
ATOM      9  C   UNL     1      -4.083   1.236  24.917  0.00  0.00    +0.185 A 
ATOM     10  N   UNL     1      -3.262   1.272  24.834  0.00  0.00    -0.227 NA
ATOM     11  C   UNL     1      -2.978   0.499  24.779  0.00  0.00    +0.063 A 
ATOM     12  C   UNL     1      -3.624  -0.014  24.829  0.00  0.00    +0.023 A 
ATOM     13  C   UNL     1      -3.505  -0.829  24.790  0.00  0.00    +0.034 C 
ATOM     14  C   UNL     1      -2.743  -1.132  24.701  0.00  0.00    +0.010 C 
ATOM     15  C   UNL     1      -2.626  -1.948  24.662  0.00  0.00    +0.059 C 
ATOM     16  C   UNL     1      -3.446  -1.925  24.748  0.00  0.00    +0.005 C 
ATOM     19  C   UNL     1      -1.864  -2.251  24.573  0.00  0.00    +0.154 C 
ATOM     20  O   UNL     1      -1.745  -3.066  24.534  0.00  0.00    -0.223 OA
ATOM     21  C   UNL     1      -1.219  -1.738  24.524  0.00  0.00    +0.033 C 
ATOM     22  C   UNL     1      -1.337  -0.923  24.563  0.00  0.00    +0.003 C 
ATOM     23  C   UNL     1      -2.099  -0.620  24.651  0.00  0.00    +0.006 C 
ATOM     24  C   UNL     1      -1.455  -0.106  24.602  0.00  0.00    +0.000 C 
ATOM     25  C   UNL     1      -2.216   0.196  24.690  0.00  0.00    +0.050 C 
ATOM     37  S   UNL     1      -4.306   0.443  24.914  0.00  0.00    -0.054 S 
ENDROOT
BRANCH  15  17
ATOM     17  C   UNL     1      -2.793  -2.755  24.653  0.00  0.00    +0.184 C 
ATOM     18  O   UNL     1      -3.575  -3.015  24.692  0.00  0.00    -0.220 OA
ENDBRANCH  15  17
BRANCH   6   5
ATOM      5  C   UNL     1      -5.911   2.408  25.145  0.00  0.00    +0.087 C 
BRANCH   5   4
ATOM      4  C   UNL     1      -5.650   3.097  25.516  0.00  0.00    +0.010 C 
BRANCH   4   3
ATOM      3  C   UNL     1      -6.116   3.778  25.495  0.00  0.00    +0.001 C 
BRANCH   3   2
ATOM      1  C   UNL     1      -6.152   5.205  25.467  0.00  0.00    +0.000 C 
ATOM      2  C   UNL     1      -5.793   4.505  25.713  0.00  0.00    +0.000 C 
ENDBRANCH   3   2
ENDBRANCH   4   3
ENDBRANCH   5   4
ENDBRANCH   6   5
BRANCH  25  26
ATOM     26  C   UNL     1      -1.572   0.709  24.640  0.00  0.00    +0.093 C 
BRANCH  26  27
ATOM     27  C   UNL     1      -1.417   1.109  23.937  0.00  0.00    +0.246 C 
ATOM     28  O   UNL     1      -1.713   0.819  23.223  0.00  0.00    -0.273 OA
ATOM     29  N   UNL     1      -0.967   1.801  23.945  0.00  0.00    -0.179 NA
BRANCH  29  30
ATOM     30  C   UNL     1      -0.672   2.091  24.659  0.00  0.00    +0.077 A 
ATOM     31  C   UNL     1      -1.070   2.696  25.055  0.00  0.00    +0.059 A 
ATOM     32  C   UNL     1      -0.775   2.986  25.768  0.00  0.00    +0.197 A 
ATOM     33  O   UNL     1      -1.173   3.591  26.164  0.00  0.00    -0.287 OA
ATOM     34  C   UNL     1      -0.081   2.672  26.086  0.00  0.00    +0.042 A 
ATOM     35  C   UNL     1       0.317   2.067  25.690  0.00  0.00    +0.005 A 
ATOM     36  C   UNL     1       0.022   1.777  24.977  0.00  0.00    +0.017 A 
ENDBRANCH  29  30
ENDBRANCH  26  27
ENDBRANCH  25  26
TORSDOF 8
ENDMDL
