MODEL 1
REMARK VINA RESULT:     -12.7      0.000      0.000
REMARK  Name = 
REMARK  4 active torsions:
REMARK  status: ('A' for Active; 'I' for Inactive)
REMARK    1  A    between atoms: C_5  and  C_8
REMARK    2  A    between atoms: N_10  and  C_11
REMARK    3  A    between atoms: C_15  and  N_19
REMARK    4  A    between atoms: C_23  and  C_24
REMARK                            x       y       z     vdW  Elec       q    Type
REMARK                         _______ _______ _______ _____ _____    ______ ____
ROOT
ATOM     11  C   UNL     1      -3.823   0.818  24.531  0.00  0.00    +0.155 C 
ATOM     12  C   UNL     1      -4.301   1.151  25.115  0.00  0.00    +0.166 C 
ATOM     13  O   UNL     1      -4.118   1.954  25.166  0.00  0.00    -0.350 OA
ATOM     14  C   UNL     1      -3.528   2.118  24.613  0.00  0.00    +0.169 C 
ATOM     15  C   UNL     1      -3.051   2.714  24.303  0.00  0.00    +0.167 C 
ATOM     16  C   UNL     1      -2.574   2.381  23.719  0.00  0.00    +0.169 C 
ATOM     17  O   UNL     1      -2.756   1.579  23.667  0.00  0.00    -0.350 OA
ATOM     18  C   UNL     1      -3.346   1.415  24.220  0.00  0.00    +0.167 C 
ENDROOT
BRANCH  15  19
ATOM     19  N   UNL     1      -3.051   3.506  24.537  0.00  0.00    -0.210 N 
ATOM     20  N   UNL     1      -3.678   4.037  24.452  0.00  0.00    -0.043 NA
ATOM     21  N   UNL     1      -3.439   4.764  24.759  0.00  0.00    -0.023 NA
ATOM     22  N   UNL     1      -2.665   4.683  25.032  0.00  0.00    -0.108 NA
ATOM     23  C   UNL     1      -2.425   3.906  24.895  0.00  0.00    +0.184 A 
BRANCH  23  24
ATOM     24  C   UNL     1      -1.689   3.585  25.084  0.00  0.00    +0.041 A 
ATOM     25  C   UNL     1      -1.564   3.248  25.825  0.00  0.00    +0.043 A 
ATOM     26  C   UNL     1      -0.827   2.927  26.014  0.00  0.00    +0.177 A 
ATOM     27  C   UNL     1      -0.216   2.944  25.460  0.00  0.00    +0.176 A 
ATOM     28  O   UNL     1       0.445   2.588  25.799  0.00  0.00    -0.435 OA
ATOM     29  C   UNL     1       0.244   2.350  26.563  0.00  0.00    +0.429 C 
ATOM     30  O   UNL     1      -0.543   2.560  26.695  0.00  0.00    -0.435 OA
ATOM     31  C   UNL     1      -0.342   3.282  24.717  0.00  0.00    +0.040 A 
ATOM     32  C   UNL     1      -1.078   3.602  24.530  0.00  0.00    +0.006 A 
ENDBRANCH  23  24
ENDBRANCH  15  19
BRANCH  11  10
ATOM      8  C   UNL     1      -3.834  -0.571  24.865  0.00  0.00    +0.265 C 
ATOM      9  O   UNL     1      -3.845  -0.377  25.667  0.00  0.00    -0.268 OA
ATOM     10  N   UNL     1      -3.823   0.027  24.297  0.00  0.00    -0.198 NA
BRANCH   8   5
ATOM      1  C   UNL     1      -3.831  -3.736  23.931  0.00  0.00    +0.031 C 
ATOM      2  C   UNL     1      -3.831  -2.945  24.165  0.00  0.00    -0.022 A 
ATOM      3  C   UNL     1      -3.398  -2.710  24.827  0.00  0.00    -0.004 A 
ATOM      4  C   UNL     1      -3.399  -1.918  25.060  0.00  0.00    +0.004 A 
ATOM      5  C   UNL     1      -3.833  -1.362  24.632  0.00  0.00    +0.055 A 
ATOM      6  C   UNL     1      -4.266  -1.597  23.970  0.00  0.00    +0.004 A 
ATOM      7  C   UNL     1      -4.265  -2.389  23.737  0.00  0.00    -0.004 A 
ENDBRANCH   8   5
ENDBRANCH  11  10
TORSDOF 4
ENDMDL
MODEL 2
REMARK VINA RESULT:     -12.3      1.452      2.470
REMARK  Name = 
REMARK  4 active torsions:
REMARK  status: ('A' for Active; 'I' for Inactive)
REMARK    1  A    between atoms: C_5  and  C_8
REMARK    2  A    between atoms: N_10  and  C_11
REMARK    3  A    between atoms: C_15  and  N_19
REMARK    4  A    between atoms: C_23  and  C_24
REMARK                            x       y       z     vdW  Elec       q    Type
REMARK                         _______ _______ _______ _____ _____    ______ ____
ROOT
ATOM     11  C   UNL     1      -1.984   0.418  24.762  0.00  0.00    +0.155 C 
ATOM     12  C   UNL     1      -1.611   0.563  25.483  0.00  0.00    +0.166 C 
ATOM     13  O   UNL     1      -1.417   1.364  25.514  0.00  0.00    -0.350 OA
ATOM     14  C   UNL     1      -1.671   1.715  24.812  0.00  0.00    +0.169 C 
ATOM     15  C   UNL     1      -1.709   2.427  24.397  0.00  0.00    +0.167 C 
ATOM     16  C   UNL     1      -2.082   2.282  23.676  0.00  0.00    +0.169 C 
ATOM     17  O   UNL     1      -2.275   1.481  23.645  0.00  0.00    -0.350 OA
ATOM     18  C   UNL     1      -2.022   1.130  24.347  0.00  0.00    +0.167 C 
ENDROOT
BRANCH  15  19
ATOM     19  N   UNL     1      -1.423   3.156  24.657  0.00  0.00    -0.210 N 
ATOM     20  N   UNL     1      -0.628   3.373  24.715  0.00  0.00    -0.043 NA
ATOM     21  N   UNL     1      -0.595   4.146  24.999  0.00  0.00    -0.023 NA
ATOM     22  N   UNL     1      -1.369   4.408  25.116  0.00  0.00    -0.108 NA
ATOM     23  C   UNL     1      -1.880   3.796  24.905  0.00  0.00    +0.184 A 
BRANCH  23  24
ATOM     24  C   UNL     1      -2.704   3.820  24.937  0.00  0.00    +0.041 A 
ATOM     25  C   UNL     1      -3.096   3.615  25.632  0.00  0.00    +0.043 A 
ATOM     26  C   UNL     1      -3.921   3.639  25.664  0.00  0.00    +0.177 A 
ATOM     27  C   UNL     1      -4.352   3.868  24.999  0.00  0.00    +0.176 A 
ATOM     28  O   UNL     1      -5.153   3.840  25.192  0.00  0.00    -0.435 OA
ATOM     29  C   UNL     1      -5.217   3.593  25.977  0.00  0.00    +0.429 C 
ATOM     30  O   UNL     1      -4.455   3.469  26.267  0.00  0.00    -0.435 OA
ATOM     31  C   UNL     1      -3.959   4.074  24.302  0.00  0.00    +0.040 A 
ATOM     32  C   UNL     1      -3.135   4.050  24.272  0.00  0.00    +0.006 A 
ENDBRANCH  23  24
ENDBRANCH  15  19
BRANCH  11  10
ATOM      8  C   UNL     1      -2.824  -0.722  24.954  0.00  0.00    +0.265 C 
ATOM      9  O   UNL     1      -3.091  -0.405  25.667  0.00  0.00    -0.268 OA
ATOM     10  N   UNL     1      -2.270  -0.310  24.501  0.00  0.00    -0.198 NA
BRANCH   8   5
ATOM      1  C   UNL     1      -3.970  -3.635  23.909  0.00  0.00    +0.031 C 
ATOM      2  C   UNL     1      -3.684  -2.906  24.170  0.00  0.00    -0.022 A 
ATOM      3  C   UNL     1      -4.086  -2.212  23.978  0.00  0.00    -0.004 A 
ATOM      4  C   UNL     1      -3.799  -1.484  24.239  0.00  0.00    +0.004 A 
ATOM      5  C   UNL     1      -3.110  -1.450  24.693  0.00  0.00    +0.055 A 
ATOM      6  C   UNL     1      -2.708  -2.144  24.885  0.00  0.00    +0.004 A 
ATOM      7  C   UNL     1      -2.995  -2.872  24.623  0.00  0.00    -0.004 A 
ENDBRANCH   8   5
ENDBRANCH  11  10
TORSDOF 4
ENDMDL
MODEL 3
REMARK VINA RESULT:     -11.1      2.180      5.841
REMARK  Name = 
REMARK  4 active torsions:
REMARK  status: ('A' for Active; 'I' for Inactive)
REMARK    1  A    between atoms: C_5  and  C_8
REMARK    2  A    between atoms: N_10  and  C_11
REMARK    3  A    between atoms: C_15  and  N_19
REMARK    4  A    between atoms: C_23  and  C_24
REMARK                            x       y       z     vdW  Elec       q    Type
REMARK                         _______ _______ _______ _____ _____    ______ ____
ROOT
ATOM     11  C   UNL     1      -0.681   1.327  24.875  0.00  0.00    +0.155 C 
ATOM     12  C   UNL     1      -0.301   1.020  24.211  0.00  0.00    +0.166 C 
ATOM     13  O   UNL     1      -0.330   0.197  24.259  0.00  0.00    -0.350 OA
ATOM     14  C   UNL     1      -0.728  -0.005  24.953  0.00  0.00    +0.169 C 
ATOM     15  C   UNL     1      -0.991  -0.637  25.411  0.00  0.00    +0.167 C 
ATOM     16  C   UNL     1      -1.371  -0.330  26.076  0.00  0.00    +0.169 C 
ATOM     17  O   UNL     1      -1.343   0.492  26.028  0.00  0.00    -0.350 OA
ATOM     18  C   UNL     1      -0.945   0.694  25.334  0.00  0.00    +0.167 C 
ENDROOT
BRANCH  15  19
ATOM     19  N   UNL     1      -0.892  -1.438  25.236  0.00  0.00    -0.210 N 
ATOM     20  N   UNL     1      -0.177  -1.850  25.237  0.00  0.00    -0.043 NA
ATOM     21  N   UNL     1      -0.333  -2.633  25.032  0.00  0.00    -0.023 NA
ATOM     22  N   UNL     1      -1.145  -2.705  24.903  0.00  0.00    -0.108 NA
ATOM     23  C   UNL     1      -1.491  -1.967  25.030  0.00  0.00    +0.184 A 
BRANCH  23  24
ATOM     24  C   UNL     1      -2.293  -1.790  24.962  0.00  0.00    +0.041 A 
ATOM     25  C   UNL     1      -2.606  -1.567  24.232  0.00  0.00    +0.043 A 
ATOM     26  C   UNL     1      -3.408  -1.390  24.163  0.00  0.00    +0.177 A 
ATOM     27  C   UNL     1      -3.898  -1.434  24.826  0.00  0.00    +0.176 A 
ATOM     28  O   UNL     1      -4.662  -1.228  24.593  0.00  0.00    -0.435 OA
ATOM     29  C   UNL     1      -4.644  -1.057  23.786  0.00  0.00    +0.429 C 
ATOM     30  O   UNL     1      -3.870  -1.156  23.522  0.00  0.00    -0.435 OA
ATOM     31  C   UNL     1      -3.585  -1.656  25.557  0.00  0.00    +0.040 A 
ATOM     32  C   UNL     1      -2.783  -1.834  25.624  0.00  0.00    +0.006 A 
ENDBRANCH  23  24
ENDBRANCH  15  19
BRANCH  11  10
ATOM      8  C   UNL     1      -1.115   2.633  24.491  0.00  0.00    +0.265 C 
ATOM      9  O   UNL     1      -1.350   2.340  23.757  0.00  0.00    -0.268 OA
ATOM     10  N   UNL     1      -0.781   2.127  25.051  0.00  0.00    -0.198 NA
BRANCH   8   5
ATOM      1  C   UNL     1      -1.515   5.833  25.195  0.00  0.00    +0.031 C 
ATOM      2  C   UNL     1      -1.416   5.033  25.019  0.00  0.00    -0.022 A 
ATOM      3  C   UNL     1      -2.041   4.506  25.125  0.00  0.00    -0.004 A 
ATOM      4  C   UNL     1      -1.941   3.706  24.949  0.00  0.00    +0.004 A 
ATOM      5  C   UNL     1      -1.215   3.433  24.667  0.00  0.00    +0.055 A 
ATOM      6  C   UNL     1      -0.589   3.960  24.562  0.00  0.00    +0.004 A 
ATOM      7  C   UNL     1      -0.689   4.760  24.738  0.00  0.00    -0.004 A 
ENDBRANCH   8   5
ENDBRANCH  11  10
TORSDOF 4
ENDMDL
MODEL 4
REMARK VINA RESULT:     -11.0      2.558      4.874
REMARK  Name = 
REMARK  4 active torsions:
REMARK  status: ('A' for Active; 'I' for Inactive)
REMARK    1  A    between atoms: C_5  and  C_8
REMARK    2  A    between atoms: N_10  and  C_11
REMARK    3  A    between atoms: C_15  and  N_19
REMARK    4  A    between atoms: C_23  and  C_24
REMARK                            x       y       z     vdW  Elec       q    Type
REMARK                         _______ _______ _______ _____ _____    ______ ____
ROOT
ATOM     11  C   UNL     1      -2.329   2.018  24.174  0.00  0.00    +0.155 C 
ATOM     12  C   UNL     1      -2.244   1.935  23.358  0.00  0.00    +0.166 C 
ATOM     13  O   UNL     1      -1.592   1.451  23.218  0.00  0.00    -0.350 OA
ATOM     14  C   UNL     1      -1.273   1.234  23.947  0.00  0.00    +0.169 C 
ATOM     15  C   UNL     1      -0.673   0.801  24.311  0.00  0.00    +0.167 C 
ATOM     16  C   UNL     1      -0.758   0.884  25.127  0.00  0.00    +0.169 C 
ATOM     17  O   UNL     1      -1.410   1.368  25.268  0.00  0.00    -0.350 OA
ATOM     18  C   UNL     1      -1.729   1.585  24.539  0.00  0.00    +0.167 C 
ENDROOT
BRANCH  15  19
ATOM     19  N   UNL     1      -0.090   0.362  23.926  0.00  0.00    -0.210 N 
ATOM     20  N   UNL     1       0.535   0.668  23.482  0.00  0.00    -0.043 NA
ATOM     21  N   UNL     1       0.981   0.035  23.199  0.00  0.00    -0.023 NA
ATOM     22  N   UNL     1       0.633  -0.662  23.469  0.00  0.00    -0.108 NA
ATOM     23  C   UNL     1      -0.028  -0.461  23.918  0.00  0.00    +0.184 A 
BRANCH  23  24
ATOM     24  C   UNL     1      -0.538  -0.989  24.293  0.00  0.00    +0.041 A 
ATOM     25  C   UNL     1      -1.187  -1.295  23.887  0.00  0.00    +0.043 A 
ATOM     26  C   UNL     1      -1.698  -1.824  24.262  0.00  0.00    +0.177 A 
ATOM     27  C   UNL     1      -1.559  -2.046  25.044  0.00  0.00    +0.176 A 
ATOM     28  O   UNL     1      -2.153  -2.572  25.269  0.00  0.00    -0.435 OA
ATOM     29  C   UNL     1      -2.658  -2.676  24.626  0.00  0.00    +0.429 C 
ATOM     30  O   UNL     1      -2.377  -2.213  24.004  0.00  0.00    -0.435 OA
ATOM     31  C   UNL     1      -0.910  -1.739  25.452  0.00  0.00    +0.040 A 
ATOM     32  C   UNL     1      -0.400  -1.211  25.076  0.00  0.00    +0.006 A 
ENDBRANCH  23  24
ENDBRANCH  15  19
BRANCH  11  10
ATOM      8  C   UNL     1      -3.701   2.385  24.331  0.00  0.00    +0.265 C 
ATOM      9  O   UNL     1      -3.908   1.873  23.718  0.00  0.00    -0.268 OA
ATOM     10  N   UNL     1      -2.911   2.458  24.560  0.00  0.00    -0.198 NA
BRANCH   8   5
ATOM      1  C   UNL     1      -6.032   4.140  25.873  0.00  0.00    +0.031 C 
ATOM      2  C   UNL     1      -5.450   3.701  25.487  0.00  0.00    -0.022 A 
ATOM      3  C   UNL     1      -5.537   2.885  25.401  0.00  0.00    -0.004 A 
ATOM      4  C   UNL     1      -4.954   2.447  25.016  0.00  0.00    +0.004 A 
ATOM      5  C   UNL     1      -4.283   2.824  24.716  0.00  0.00    +0.055 A 
ATOM      6  C   UNL     1      -4.196   3.640  24.803  0.00  0.00    +0.004 A 
ATOM      7  C   UNL     1      -4.779   4.078  25.188  0.00  0.00    -0.004 A 
ENDBRANCH   8   5
ENDBRANCH  11  10
TORSDOF 4
ENDMDL
MODEL 5
REMARK VINA RESULT:     -10.7      2.442      4.972
REMARK  Name = 
REMARK  4 active torsions:
REMARK  status: ('A' for Active; 'I' for Inactive)
REMARK    1  A    between atoms: C_5  and  C_8
REMARK    2  A    between atoms: N_10  and  C_11
REMARK    3  A    between atoms: C_15  and  N_19
REMARK    4  A    between atoms: C_23  and  C_24
REMARK                            x       y       z     vdW  Elec       q    Type
REMARK                         _______ _______ _______ _____ _____    ______ ____
ROOT
ATOM     11  C   UNL     1      -4.405   0.227  24.774  0.00  0.00    +0.155 C 
ATOM     12  C   UNL     1      -4.539  -0.065  24.014  0.00  0.00    +0.166 C 
ATOM     13  O   UNL     1      -4.172  -0.802  23.956  0.00  0.00    -0.350 OA
ATOM     14  C   UNL     1      -3.813  -0.966  24.681  0.00  0.00    +0.169 C 
ATOM     15  C   UNL     1      -3.365  -1.522  25.092  0.00  0.00    +0.167 C 
ATOM     16  C   UNL     1      -3.232  -1.230  25.852  0.00  0.00    +0.169 C 
ATOM     17  O   UNL     1      -3.597  -0.494  25.910  0.00  0.00    -0.350 OA
ATOM     18  C   UNL     1      -3.957  -0.329  25.186  0.00  0.00    +0.167 C 
ENDROOT
BRANCH  15  19
ATOM     19  N   UNL     1      -3.096  -2.244  24.796  0.00  0.00    -0.210 N 
ATOM     20  N   UNL     1      -3.559  -2.913  24.656  0.00  0.00    -0.043 NA
ATOM     21  N   UNL     1      -3.068  -3.506  24.362  0.00  0.00    -0.023 NA
ATOM     22  N   UNL     1      -2.301  -3.204  24.320  0.00  0.00    -0.108 NA
ATOM     23  C   UNL     1      -2.318  -2.424  24.588  0.00  0.00    +0.184 A 
BRANCH  23  24
ATOM     24  C   UNL     1      -1.672  -1.915  24.640  0.00  0.00    +0.041 A 
ATOM     25  C   UNL     1      -1.449  -1.464  23.986  0.00  0.00    +0.043 A 
ATOM     26  C   UNL     1      -0.803  -0.954  24.037  0.00  0.00    +0.177 A 
ATOM     27  C   UNL     1      -0.379  -0.895  24.743  0.00  0.00    +0.176 A 
ATOM     28  O   UNL     1       0.229  -0.350  24.630  0.00  0.00    -0.435 OA
ATOM     29  C   UNL     1       0.182  -0.072  23.855  0.00  0.00    +0.429 C 
ATOM     30  O   UNL     1      -0.456  -0.445  23.489  0.00  0.00    -0.435 OA
ATOM     31  C   UNL     1      -0.602  -1.346  25.397  0.00  0.00    +0.040 A 
ATOM     32  C   UNL     1      -1.249  -1.856  25.345  0.00  0.00    +0.006 A 
ENDBRANCH  23  24
ENDBRANCH  15  19
BRANCH  11  10
ATOM      8  C   UNL     1      -4.556   1.641  24.637  0.00  0.00    +0.265 C 
ATOM      9  O   UNL     1      -4.171   1.612  23.908  0.00  0.00    -0.268 OA
ATOM     10  N   UNL     1      -4.673   0.949  25.070  0.00  0.00    -0.198 NA
BRANCH   8   5
ATOM      1  C   UNL     1      -5.626   4.529  25.823  0.00  0.00    +0.031 C 
ATOM      2  C   UNL     1      -5.358   3.807  25.527  0.00  0.00    -0.022 A 
ATOM      3  C   UNL     1      -4.606   3.752  25.193  0.00  0.00    -0.004 A 
ATOM      4  C   UNL     1      -4.339   3.030  24.897  0.00  0.00    +0.004 A 
ATOM      5  C   UNL     1      -4.824   2.363  24.934  0.00  0.00    +0.055 A 
ATOM      6  C   UNL     1      -5.576   2.419  25.268  0.00  0.00    +0.004 A 
ATOM      7  C   UNL     1      -5.843   3.141  25.564  0.00  0.00    -0.004 A 
ENDBRANCH   8   5
ENDBRANCH  11  10
TORSDOF 4
ENDMDL
MODEL 6
REMARK VINA RESULT:     -10.6      2.448      4.731
REMARK  Name = 
REMARK  4 active torsions:
REMARK  status: ('A' for Active; 'I' for Inactive)
REMARK    1  A    between atoms: C_5  and  C_8
REMARK    2  A    between atoms: N_10  and  C_11
REMARK    3  A    between atoms: C_15  and  N_19
REMARK    4  A    between atoms: C_23  and  C_24
REMARK                            x       y       z     vdW  Elec       q    Type
REMARK                         _______ _______ _______ _____ _____    ______ ____
ROOT
ATOM     11  C   UNL     1      -1.050   1.201  24.205  0.00  0.00    +0.155 C 
ATOM     12  C   UNL     1      -1.099   1.340  25.016  0.00  0.00    +0.166 C 
ATOM     13  O   UNL     1      -1.897   1.378  25.221  0.00  0.00    -0.350 OA
ATOM     14  C   UNL     1      -2.342   1.262  24.536  0.00  0.00    +0.169 C 
ATOM     15  C   UNL     1      -3.110   1.214  24.239  0.00  0.00    +0.167 C 
ATOM     16  C   UNL     1      -3.061   1.075  23.428  0.00  0.00    +0.169 C 
ATOM     17  O   UNL     1      -2.264   1.037  23.223  0.00  0.00    -0.350 OA
ATOM     18  C   UNL     1      -1.818   1.153  23.907  0.00  0.00    +0.167 C 
ENDROOT
BRANCH  15  19
ATOM     19  N   UNL     1      -3.805   1.291  24.677  0.00  0.00    -0.210 N 
ATOM     20  N   UNL     1      -4.125   1.998  24.958  0.00  0.00    -0.043 NA
ATOM     21  N   UNL     1      -4.819   1.820  25.366  0.00  0.00    -0.023 NA
ATOM     22  N   UNL     1      -4.929   1.003  25.336  0.00  0.00    -0.108 NA
ATOM     23  C   UNL     1      -4.302   0.676  24.911  0.00  0.00    +0.184 A 
BRANCH  23  24
ATOM     24  C   UNL     1      -4.192  -0.125  24.749  0.00  0.00    +0.041 A 
ATOM     25  C   UNL     1      -3.827  -0.612  25.304  0.00  0.00    +0.043 A 
ATOM     26  C   UNL     1      -3.716  -1.414  25.142  0.00  0.00    +0.177 A 
ATOM     27  C   UNL     1      -3.972  -1.727  24.423  0.00  0.00    +0.176 A 
ATOM     28  O   UNL     1      -3.790  -2.531  24.417  0.00  0.00    -0.435 OA
ATOM     29  C   UNL     1      -3.422  -2.715  25.131  0.00  0.00    +0.429 C 
ATOM     30  O   UNL     1      -3.377  -2.024  25.579  0.00  0.00    -0.435 OA
ATOM     31  C   UNL     1      -4.338  -1.239  23.866  0.00  0.00    +0.040 A 
ATOM     32  C   UNL     1      -4.448  -0.439  24.030  0.00  0.00    +0.006 A 
ENDBRANCH  23  24
ENDBRANCH  15  19
BRANCH  11  10
ATOM      8  C   UNL     1       0.177   0.517  23.941  0.00  0.00    +0.265 C 
ATOM      9  O   UNL     1       0.014  -0.010  24.554  0.00  0.00    -0.268 OA
ATOM     10  N   UNL     1      -0.356   1.123  23.766  0.00  0.00    -0.198 NA
BRANCH   8   5
ATOM      1  C   UNL     1       2.955   0.209  22.187  0.00  0.00    +0.031 C 
ATOM      2  C   UNL     1       2.261   0.286  22.626  0.00  0.00    -0.022 A 
ATOM      3  C   UNL     1       2.197   0.878  23.197  0.00  0.00    -0.004 A 
ATOM      4  C   UNL     1       1.502   0.955  23.635  0.00  0.00    +0.004 A 
ATOM      5  C   UNL     1       0.871   0.440  23.502  0.00  0.00    +0.055 A 
ATOM      6  C   UNL     1       0.935  -0.152  22.931  0.00  0.00    +0.004 A 
ATOM      7  C   UNL     1       1.630  -0.228  22.493  0.00  0.00    -0.004 A 
ENDBRANCH   8   5
ENDBRANCH  11  10
TORSDOF 4
ENDMDL
MODEL 7
REMARK VINA RESULT:     -10.3      1.660      5.211
REMARK  Name = 
REMARK  4 active torsions:
REMARK  status: ('A' for Active; 'I' for Inactive)
REMARK    1  A    between atoms: C_5  and  C_8
REMARK    2  A    between atoms: N_10  and  C_11
REMARK    3  A    between atoms: C_15  and  N_19
REMARK    4  A    between atoms: C_23  and  C_24
REMARK                            x       y       z     vdW  Elec       q    Type
REMARK                         _______ _______ _______ _____ _____    ______ ____
ROOT
ATOM     11  C   UNL     1      -3.227   1.530  24.156  0.00  0.00    +0.155 C 
ATOM     12  C   UNL     1      -3.206   1.293  23.366  0.00  0.00    +0.166 C 
ATOM     13  O   UNL     1      -3.422   0.498  23.333  0.00  0.00    -0.350 OA
ATOM     14  C   UNL     1      -3.577   0.243  24.102  0.00  0.00    +0.169 C 
ATOM     15  C   UNL     1      -3.807  -0.405  24.557  0.00  0.00    +0.167 C 
ATOM     16  C   UNL     1      -3.828  -0.168  25.347  0.00  0.00    +0.169 C 
ATOM     17  O   UNL     1      -3.612   0.627  25.380  0.00  0.00    -0.350 OA
ATOM     18  C   UNL     1      -3.457   0.882  24.611  0.00  0.00    +0.167 C 
ENDROOT
BRANCH  15  19
ATOM     19  N   UNL     1      -3.984  -1.159  24.273  0.00  0.00    -0.210 N 
ATOM     20  N   UNL     1      -4.680  -1.381  23.888  0.00  0.00    -0.043 NA
ATOM     21  N   UNL     1      -4.623  -2.182  23.700  0.00  0.00    -0.023 NA
ATOM     22  N   UNL     1      -3.892  -2.455  23.969  0.00  0.00    -0.108 NA
ATOM     23  C   UNL     1      -3.497  -1.824  24.323  0.00  0.00    +0.184 A 
BRANCH  23  24
ATOM     24  C   UNL     1      -2.748  -1.851  24.666  0.00  0.00    +0.041 A 
ATOM     25  C   UNL     1      -2.078  -1.711  24.207  0.00  0.00    +0.043 A 
ATOM     26  C   UNL     1      -1.328  -1.738  24.550  0.00  0.00    +0.177 A 
ATOM     27  C   UNL     1      -1.249  -1.906  25.354  0.00  0.00    +0.176 A 
ATOM     28  O   UNL     1      -0.446  -1.896  25.538  0.00  0.00    -0.435 OA
ATOM     29  C   UNL     1      -0.028  -1.722  24.849  0.00  0.00    +0.429 C 
ATOM     30  O   UNL     1      -0.574  -1.625  24.238  0.00  0.00    -0.435 OA
ATOM     31  C   UNL     1      -1.920  -2.046  25.814  0.00  0.00    +0.040 A 
ATOM     32  C   UNL     1      -2.669  -2.019  25.470  0.00  0.00    +0.006 A 
ENDBRANCH  23  24
ENDBRANCH  15  19
BRANCH  11  10
ATOM      8  C   UNL     1      -2.324   2.633  24.260  0.00  0.00    +0.265 C 
ATOM      9  O   UNL     1      -1.776   2.229  23.795  0.00  0.00    -0.268 OA
ATOM     10  N   UNL     1      -3.050   2.284  24.441  0.00  0.00    -0.198 NA
BRANCH   8   5
ATOM      1  C   UNL     1      -1.614   5.647  25.401  0.00  0.00    +0.031 C 
ATOM      2  C   UNL     1      -1.791   4.894  25.116  0.00  0.00    -0.022 A 
ATOM      3  C   UNL     1      -1.187   4.345  24.996  0.00  0.00    -0.004 A 
ATOM      4  C   UNL     1      -1.365   3.592  24.710  0.00  0.00    +0.004 A 
ATOM      5  C   UNL     1      -2.147   3.387  24.545  0.00  0.00    +0.055 A 
ATOM      6  C   UNL     1      -2.752   3.935  24.666  0.00  0.00    +0.004 A 
ATOM      7  C   UNL     1      -2.574   4.688  24.951  0.00  0.00    -0.004 A 
ENDBRANCH   8   5
ENDBRANCH  11  10
TORSDOF 4
ENDMDL
