MODEL 1
REMARK VINA RESULT:     -15.3      0.000      0.000
REMARK  Name = 
REMARK  4 active torsions:
REMARK  status: ('A' for Active; 'I' for Inactive)
REMARK    1  A    between atoms: N_9  and  S_11
REMARK    2  A    between atoms: S_11  and  C_14
REMARK    3  A    between atoms: C_23  and  C_24
REMARK    4  A    between atoms: C_28  and  C_30
REMARK                            x       y       z     vdW  Elec       q    Type
REMARK                         _______ _______ _______ _____ _____    ______ ____
ROOT
ATOM      1  O   UNL     1      -2.984   0.834  24.542  0.00  0.00    -0.267 OA
ATOM      2  C   UNL     1      -3.744   1.030  24.799  0.00  0.00    +0.261 A 
ATOM      3  N   UNL     1      -3.997   1.815  24.775  0.00  0.00    -0.299 N 
ATOM      4  C   UNL     1      -4.665   1.422  25.087  0.00  0.00    +0.110 C 
ATOM      5  C   UNL     1      -5.273   2.193  25.199  0.00  0.00    +0.041 C 
ATOM      6  C   UNL     1      -5.883   2.712  25.350  0.00  0.00    +0.011 C 
ATOM      7  C   UNL     1      -5.228   2.740  25.099  0.00  0.00    +0.056 C 
ATOM      8  C   UNL     1      -4.606   3.333  24.774  0.00  0.00    +0.102 C 
ATOM      9  N   UNL     1      -4.000   2.813  24.624  0.00  0.00    -0.155 NA
ATOM     10  C   UNL     1      -4.617   2.805  24.858  0.00  0.00    +0.098 C 
ATOM     20  C   UNL     1      -4.756   2.011  25.031  0.00  0.00    +0.041 A 
ATOM     21  C   UNL     1      -5.261   1.423  25.312  0.00  0.00    +0.013 A 
ATOM     22  C   UNL     1      -5.008   0.639  25.336  0.00  0.00    +0.006 A 
ATOM     23  C   UNL     1      -4.249   0.442  25.079  0.00  0.00    +0.056 A 
ENDROOT
BRANCH  23  24
ATOM     24  C   UNL     1      -3.996  -0.343  25.103  0.00  0.00    +0.005 A 
ATOM     25  C   UNL     1      -3.548  -0.613  25.742  0.00  0.00    +0.000 A 
ATOM     26  C   UNL     1      -3.294  -1.397  25.766  0.00  0.00    +0.001 A 
ATOM     27  C   UNL     1      -3.489  -1.913  25.151  0.00  0.00    +0.010 A 
ATOM     28  C   UNL     1      -3.937  -1.643  24.513  0.00  0.00    +0.068 A 
ATOM     29  C   UNL     1      -4.190  -0.858  24.489  0.00  0.00    +0.010 A 
BRANCH  28  30
ATOM     30  C   UNL     1      -4.131  -2.159  23.899  0.00  0.00    +0.100 C 
ATOM     31  N   UNL     1      -4.326  -2.674  23.286  0.00  0.00    -0.191 NA
ENDBRANCH  28  30
ENDBRANCH  23  24
BRANCH   9  11
ATOM     11  S   UNL     1      -3.261   2.536  24.387  0.00  0.00    +0.063 S 
ATOM     12  O   UNL     1      -3.551   2.413  23.625  0.00  0.00    -0.153 OA
ATOM     13  O   UNL     1      -2.970   2.659  25.149  0.00  0.00    -0.153 OA
BRANCH  11  14
ATOM     14  C   UNL     1      -2.520   2.258  24.150  0.00  0.00    +0.122 A 
ATOM     15  C   UNL     1      -2.404   2.003  23.375  0.00  0.00    +0.020 A 
ATOM     16  C   UNL     1      -1.664   1.726  23.138  0.00  0.00    +0.001 A 
ATOM     17  C   UNL     1      -1.040   1.704  23.678  0.00  0.00    +0.000 A 
ATOM     18  C   UNL     1      -1.156   1.960  24.453  0.00  0.00    +0.001 A 
ATOM     19  C   UNL     1      -1.897   2.237  24.690  0.00  0.00    +0.020 A 
ENDBRANCH  11  14
ENDBRANCH   9  11
TORSDOF 4
ENDMDL
MODEL 2
REMARK VINA RESULT:     -15.1      1.556      3.704
REMARK  Name = 
REMARK  4 active torsions:
REMARK  status: ('A' for Active; 'I' for Inactive)
REMARK    1  A    between atoms: N_9  and  S_11
REMARK    2  A    between atoms: S_11  and  C_14
REMARK    3  A    between atoms: C_23  and  C_24
REMARK    4  A    between atoms: C_28  and  C_30
REMARK                            x       y       z     vdW  Elec       q    Type
REMARK                         _______ _______ _______ _____ _____    ______ ____
ROOT
ATOM      1  O   UNL     1      -2.550   0.700  24.737  0.00  0.00    -0.267 OA
ATOM      2  C   UNL     1      -3.082   0.082  24.604  0.00  0.00    +0.261 A 
ATOM      3  N   UNL     1      -2.819  -0.699  24.622  0.00  0.00    -0.299 N 
ATOM      4  C   UNL     1      -3.633  -0.790  24.456  0.00  0.00    +0.110 C 
ATOM      5  C   UNL     1      -3.683  -1.775  24.403  0.00  0.00    +0.041 C 
ATOM      6  C   UNL     1      -3.889  -2.560  24.328  0.00  0.00    +0.011 C 
ATOM      7  C   UNL     1      -3.310  -2.186  24.460  0.00  0.00    +0.056 C 
ATOM      8  C   UNL     1      -2.413  -2.283  24.635  0.00  0.00    +0.102 C 
ATOM      9  N   UNL     1      -2.211  -1.500  24.709  0.00  0.00    -0.155 NA
ATOM     10  C   UNL     1      -2.745  -1.867  24.586  0.00  0.00    +0.098 C 
ATOM     20  C   UNL     1      -3.350  -1.316  24.490  0.00  0.00    +0.041 A 
ATOM     21  C   UNL     1      -4.144  -1.151  24.339  0.00  0.00    +0.013 A 
ATOM     22  C   UNL     1      -4.407  -0.370  24.320  0.00  0.00    +0.006 A 
ATOM     23  C   UNL     1      -3.876   0.247  24.453  0.00  0.00    +0.056 A 
ENDROOT
BRANCH  23  24
ATOM     24  C   UNL     1      -4.138   1.029  24.434  0.00  0.00    +0.005 A 
ATOM     25  C   UNL     1      -3.940   1.516  23.798  0.00  0.00    +0.000 A 
ATOM     26  C   UNL     1      -4.203   2.298  23.780  0.00  0.00    +0.001 A 
ATOM     27  C   UNL     1      -4.664   2.593  24.398  0.00  0.00    +0.010 A 
ATOM     28  C   UNL     1      -4.862   2.106  25.033  0.00  0.00    +0.068 A 
ATOM     29  C   UNL     1      -4.599   1.324  25.051  0.00  0.00    +0.010 A 
BRANCH  28  30
ATOM     30  C   UNL     1      -5.323   2.402  25.650  0.00  0.00    +0.100 C 
ATOM     31  N   UNL     1      -5.785   2.697  26.266  0.00  0.00    -0.191 NA
ENDBRANCH  28  30
ENDBRANCH  23  24
BRANCH   9  11
ATOM     11  S   UNL     1      -1.746  -0.831  24.831  0.00  0.00    +0.063 S 
ATOM     12  O   UNL     1      -1.921  -0.855  25.636  0.00  0.00    -0.153 OA
ATOM     13  O   UNL     1      -1.570  -0.806  24.025  0.00  0.00    -0.153 OA
BRANCH  11  14
ATOM     14  C   UNL     1      -1.280  -0.160  24.952  0.00  0.00    +0.122 A 
ATOM     15  C   UNL     1      -1.215   0.166  25.707  0.00  0.00    +0.020 A 
ATOM     16  C   UNL     1      -0.750   0.837  25.829  0.00  0.00    +0.001 A 
ATOM     17  C   UNL     1      -0.349   1.180  25.194  0.00  0.00    +0.000 A 
ATOM     18  C   UNL     1      -0.414   0.855  24.440  0.00  0.00    +0.001 A 
ATOM     19  C   UNL     1      -0.880   0.184  24.318  0.00  0.00    +0.020 A 
ENDBRANCH  11  14
ENDBRANCH   9  11
TORSDOF 4
ENDMDL
MODEL 3
REMARK VINA RESULT:     -14.5      1.265      3.288
REMARK  Name = 
REMARK  4 active torsions:
REMARK  status: ('A' for Active; 'I' for Inactive)
REMARK    1  A    between atoms: N_9  and  S_11
REMARK    2  A    between atoms: S_11  and  C_14
REMARK    3  A    between atoms: C_23  and  C_24
REMARK    4  A    between atoms: C_28  and  C_30
REMARK                            x       y       z     vdW  Elec       q    Type
REMARK                         _______ _______ _______ _____ _____    ______ ____
ROOT
ATOM      1  O   UNL     1      -3.011   0.942  24.709  0.00  0.00    -0.267 OA
ATOM      2  C   UNL     1      -3.380   1.668  24.844  0.00  0.00    +0.261 A 
ATOM      3  N   UNL     1      -4.191   1.697  24.997  0.00  0.00    -0.299 N 
ATOM      4  C   UNL     1      -3.975   2.503  25.031  0.00  0.00    +0.110 C 
ATOM      5  C   UNL     1      -4.857   2.902  25.231  0.00  0.00    +0.041 C 
ATOM      6  C   UNL     1      -5.498   3.378  25.393  0.00  0.00    +0.011 C 
ATOM      7  C   UNL     1      -5.369   2.693  25.306  0.00  0.00    +0.056 C 
ATOM      8  C   UNL     1      -5.786   1.875  25.308  0.00  0.00    +0.102 C 
ATOM      9  N   UNL     1      -5.145   1.404  25.146  0.00  0.00    -0.155 NA
ATOM     10  C   UNL     1      -5.285   2.042  25.231  0.00  0.00    +0.098 C 
ATOM     20  C   UNL     1      -4.559   2.422  25.132  0.00  0.00    +0.041 A 
ATOM     21  C   UNL     1      -4.118   3.118  25.114  0.00  0.00    +0.013 A 
ATOM     22  C   UNL     1      -3.309   3.090  24.962  0.00  0.00    +0.006 A 
ATOM     23  C   UNL     1      -2.939   2.365  24.827  0.00  0.00    +0.056 A 
ENDROOT
BRANCH  23  24
ATOM     24  C   UNL     1      -2.129   2.336  24.675  0.00  0.00    +0.005 A 
ATOM     25  C   UNL     1      -1.857   2.265  23.898  0.00  0.00    +0.000 A 
ATOM     26  C   UNL     1      -1.047   2.237  23.746  0.00  0.00    +0.001 A 
ATOM     27  C   UNL     1      -0.508   2.279  24.370  0.00  0.00    +0.010 A 
ATOM     28  C   UNL     1      -0.780   2.351  25.145  0.00  0.00    +0.068 A 
ATOM     29  C   UNL     1      -1.590   2.379  25.298  0.00  0.00    +0.010 A 
BRANCH  28  30
ATOM     30  C   UNL     1      -0.241   2.393  25.768  0.00  0.00    +0.100 C 
ATOM     31  N   UNL     1       0.299   2.437  26.391  0.00  0.00    -0.191 NA
ENDBRANCH  28  30
ENDBRANCH  23  24
BRANCH   9  11
ATOM     11  S   UNL     1      -4.704   0.723  25.002  0.00  0.00    +0.063 S 
ATOM     12  O   UNL     1      -4.835   0.808  24.192  0.00  0.00    -0.153 OA
ATOM     13  O   UNL     1      -4.571   0.636  25.812  0.00  0.00    -0.153 OA
BRANCH  11  14
ATOM     14  C   UNL     1      -4.261   0.040  24.858  0.00  0.00    +0.122 A 
ATOM     15  C   UNL     1      -4.178  -0.242  24.088  0.00  0.00    +0.020 A 
ATOM     16  C   UNL     1      -3.736  -0.924  23.943  0.00  0.00    +0.001 A 
ATOM     17  C   UNL     1      -3.378  -1.323  24.571  0.00  0.00    +0.000 A 
ATOM     18  C   UNL     1      -3.461  -1.040  25.341  0.00  0.00    +0.001 A 
ATOM     19  C   UNL     1      -3.903  -0.358  25.485  0.00  0.00    +0.020 A 
ENDBRANCH  11  14
ENDBRANCH   9  11
TORSDOF 4
ENDMDL
MODEL 4
REMARK VINA RESULT:     -14.2      1.620      2.220
REMARK  Name = 
REMARK  4 active torsions:
REMARK  status: ('A' for Active; 'I' for Inactive)
REMARK    1  A    between atoms: N_9  and  S_11
REMARK    2  A    between atoms: S_11  and  C_14
REMARK    3  A    between atoms: C_23  and  C_24
REMARK    4  A    between atoms: C_28  and  C_30
REMARK                            x       y       z     vdW  Elec       q    Type
REMARK                         _______ _______ _______ _____ _____    ______ ____
ROOT
ATOM      1  O   UNL     1      -2.781   2.446  24.987  0.00  0.00    -0.267 OA
ATOM      2  C   UNL     1      -3.504   2.049  24.949  0.00  0.00    +0.261 A 
ATOM      3  N   UNL     1      -4.204   2.451  25.119  0.00  0.00    -0.299 N 
ATOM      4  C   UNL     1      -4.479   1.683  24.941  0.00  0.00    +0.110 C 
ATOM      5  C   UNL     1      -5.449   1.822  25.067  0.00  0.00    +0.041 C 
ATOM      6  C   UNL     1      -6.260   1.772  25.128  0.00  0.00    +0.011 C 
ATOM      7  C   UNL     1      -5.763   2.260  25.211  0.00  0.00    +0.056 C 
ATOM      8  C   UNL     1      -5.651   3.144  25.434  0.00  0.00    +0.102 C 
ATOM      9  N   UNL     1      -4.843   3.191  25.373  0.00  0.00    -0.155 NA
ATOM     10  C   UNL     1      -5.323   2.745  25.299  0.00  0.00    +0.098 C 
ATOM     20  C   UNL     1      -4.926   2.056  25.081  0.00  0.00    +0.041 A 
ATOM     21  C   UNL     1      -4.949   1.258  24.872  0.00  0.00    +0.013 A 
ATOM     22  C   UNL     1      -4.250   0.856  24.702  0.00  0.00    +0.006 A 
ATOM     23  C   UNL     1      -3.527   1.252  24.740  0.00  0.00    +0.056 A 
ENDROOT
BRANCH  23  24
ATOM     24  C   UNL     1      -2.827   0.850  24.570  0.00  0.00    +0.005 A 
ATOM     25  C   UNL     1      -2.490   0.907  23.819  0.00  0.00    +0.000 A 
ATOM     26  C   UNL     1      -1.790   0.505  23.648  0.00  0.00    +0.001 A 
ATOM     27  C   UNL     1      -1.426   0.045  24.230  0.00  0.00    +0.010 A 
ATOM     28  C   UNL     1      -1.763  -0.012  24.981  0.00  0.00    +0.068 A 
ATOM     29  C   UNL     1      -2.463   0.390  25.151  0.00  0.00    +0.010 A 
BRANCH  28  30
ATOM     30  C   UNL     1      -1.399  -0.472  25.561  0.00  0.00    +0.100 C 
ATOM     31  N   UNL     1      -1.035  -0.932  26.141  0.00  0.00    -0.191 NA
ENDBRANCH  28  30
ENDBRANCH  23  24
BRANCH   9  11
ATOM     11  S   UNL     1      -4.084   3.512  25.388  0.00  0.00    +0.063 S 
ATOM     12  O   UNL     1      -4.153   3.715  24.591  0.00  0.00    -0.153 OA
ATOM     13  O   UNL     1      -4.014   3.310  26.185  0.00  0.00    -0.153 OA
BRANCH  11  14
ATOM     14  C   UNL     1      -3.324   3.835  25.404  0.00  0.00    +0.122 A 
ATOM     15  C   UNL     1      -2.883   3.817  26.100  0.00  0.00    +0.020 A 
ATOM     16  C   UNL     1      -2.123   4.139  26.116  0.00  0.00    +0.001 A 
ATOM     17  C   UNL     1      -1.805   4.479  25.435  0.00  0.00    +0.000 A 
ATOM     18  C   UNL     1      -2.246   4.497  24.738  0.00  0.00    +0.001 A 
ATOM     19  C   UNL     1      -3.006   4.174  24.722  0.00  0.00    +0.020 A 
ENDBRANCH  11  14
ENDBRANCH   9  11
TORSDOF 4
ENDMDL
MODEL 5
REMARK VINA RESULT:     -13.8      0.801      2.520
REMARK  Name = 
REMARK  4 active torsions:
REMARK  status: ('A' for Active; 'I' for Inactive)
REMARK    1  A    between atoms: N_9  and  S_11
REMARK    2  A    between atoms: S_11  and  C_14
REMARK    3  A    between atoms: C_23  and  C_24
REMARK    4  A    between atoms: C_28  and  C_30
REMARK                            x       y       z     vdW  Elec       q    Type
REMARK                         _______ _______ _______ _____ _____    ______ ____
ROOT
ATOM      1  O   UNL     1      -4.245   0.953  25.072  0.00  0.00    -0.267 OA
ATOM      2  C   UNL     1      -3.475   1.091  24.807  0.00  0.00    +0.261 A 
ATOM      3  N   UNL     1      -3.240   1.855  24.602  0.00  0.00    -0.299 N 
ATOM      4  C   UNL     1      -2.546   1.412  24.462  0.00  0.00    +0.110 C 
ATOM      5  C   UNL     1      -1.949   2.135  24.150  0.00  0.00    +0.041 C 
ATOM      6  C   UNL     1      -1.342   2.606  23.879  0.00  0.00    +0.011 C 
ATOM      7  C   UNL     1      -2.012   2.684  24.075  0.00  0.00    +0.056 C 
ATOM      8  C   UNL     1      -2.666   3.323  24.168  0.00  0.00    +0.102 C 
ATOM      9  N   UNL     1      -3.268   2.850  24.438  0.00  0.00    -0.155 NA
ATOM     10  C   UNL     1      -2.638   2.796  24.251  0.00  0.00    +0.098 C 
ATOM     20  C   UNL     1      -2.472   1.993  24.338  0.00  0.00    +0.041 A 
ATOM     21  C   UNL     1      -1.937   1.368  24.279  0.00  0.00    +0.013 A 
ATOM     22  C   UNL     1      -2.171   0.605  24.485  0.00  0.00    +0.006 A 
ATOM     23  C   UNL     1      -2.940   0.466  24.749  0.00  0.00    +0.056 A 
ENDROOT
BRANCH  23  24
ATOM     24  C   UNL     1      -3.175  -0.298  24.954  0.00  0.00    +0.005 A 
ATOM     25  C   UNL     1      -3.081  -0.564  25.730  0.00  0.00    +0.000 A 
ATOM     26  C   UNL     1      -3.316  -1.328  25.936  0.00  0.00    +0.001 A 
ATOM     27  C   UNL     1      -3.644  -1.826  25.365  0.00  0.00    +0.010 A 
ATOM     28  C   UNL     1      -3.737  -1.561  24.590  0.00  0.00    +0.068 A 
ATOM     29  C   UNL     1      -3.503  -0.797  24.385  0.00  0.00    +0.010 A 
BRANCH  28  30
ATOM     30  C   UNL     1      -4.065  -2.059  24.021  0.00  0.00    +0.100 C 
ATOM     31  N   UNL     1      -4.394  -2.558  23.452  0.00  0.00    -0.191 NA
ENDBRANCH  28  30
ENDBRANCH  23  24
BRANCH   9  11
ATOM     11  S   UNL     1      -4.015   2.630  24.710  0.00  0.00    +0.063 S 
ATOM     12  O   UNL     1      -4.258   2.495  23.933  0.00  0.00    -0.153 OA
ATOM     13  O   UNL     1      -3.773   2.765  25.487  0.00  0.00    -0.153 OA
BRANCH  11  14
ATOM     14  C   UNL     1      -4.762   2.409  24.982  0.00  0.00    +0.122 A 
ATOM     15  C   UNL     1      -5.326   2.124  24.452  0.00  0.00    +0.020 A 
ATOM     16  C   UNL     1      -6.074   1.903  24.724  0.00  0.00    +0.001 A 
ATOM     17  C   UNL     1      -6.256   1.969  25.526  0.00  0.00    +0.000 A 
ATOM     18  C   UNL     1      -5.692   2.255  26.056  0.00  0.00    +0.001 A 
ATOM     19  C   UNL     1      -4.945   2.475  25.784  0.00  0.00    +0.020 A 
ENDBRANCH  11  14
ENDBRANCH   9  11
TORSDOF 4
ENDMDL
MODEL 6
REMARK VINA RESULT:     -13.8      2.207      3.608
REMARK  Name = 
REMARK  4 active torsions:
REMARK  status: ('A' for Active; 'I' for Inactive)
REMARK    1  A    between atoms: N_9  and  S_11
REMARK    2  A    between atoms: S_11  and  C_14
REMARK    3  A    between atoms: C_23  and  C_24
REMARK    4  A    between atoms: C_28  and  C_30
REMARK                            x       y       z     vdW  Elec       q    Type
REMARK                         _______ _______ _______ _____ _____    ______ ____
ROOT
ATOM      1  O   UNL     1      -2.492   1.976  24.884  0.00  0.00    -0.267 OA
ATOM      2  C   UNL     1      -2.467   2.800  24.926  0.00  0.00    +0.261 A 
ATOM      3  N   UNL     1      -1.742   3.187  25.001  0.00  0.00    -0.299 N 
ATOM      4  C   UNL     1      -2.282   3.824  24.990  0.00  0.00    +0.110 C 
ATOM      5  C   UNL     1      -1.651   4.579  25.075  0.00  0.00    +0.041 C 
ATOM      6  C   UNL     1      -1.271   5.296  25.139  0.00  0.00    +0.011 C 
ATOM      7  C   UNL     1      -1.096   4.617  25.119  0.00  0.00    +0.056 C 
ATOM      8  C   UNL     1      -0.366   4.059  25.148  0.00  0.00    +0.102 C 
ATOM      9  N   UNL     1      -0.748   3.345  25.084  0.00  0.00    -0.155 NA
ATOM     10  C   UNL     1      -0.894   3.988  25.104  0.00  0.00    +0.098 C 
ATOM     20  C   UNL     1      -1.716   4.010  25.042  0.00  0.00    +0.041 A 
ATOM     21  C   UNL     1      -2.415   4.446  25.010  0.00  0.00    +0.013 A 
ATOM     22  C   UNL     1      -3.139   4.060  24.936  0.00  0.00    +0.006 A 
ATOM     23  C   UNL     1      -3.166   3.237  24.894  0.00  0.00    +0.056 A 
ENDROOT
BRANCH  23  24
ATOM     24  C   UNL     1      -3.891   2.850  24.819  0.00  0.00    +0.005 A 
ATOM     25  C   UNL     1      -4.108   2.517  24.096  0.00  0.00    +0.000 A 
ATOM     26  C   UNL     1      -4.833   2.130  24.022  0.00  0.00    +0.001 A 
ATOM     27  C   UNL     1      -5.341   2.076  24.671  0.00  0.00    +0.010 A 
ATOM     28  C   UNL     1      -5.123   2.409  25.393  0.00  0.00    +0.068 A 
ATOM     29  C   UNL     1      -4.398   2.796  25.467  0.00  0.00    +0.010 A 
BRANCH  28  30
ATOM     30  C   UNL     1      -5.631   2.355  26.041  0.00  0.00    +0.100 C 
ATOM     31  N   UNL     1      -6.139   2.303  26.689  0.00  0.00    -0.191 NA
ENDBRANCH  28  30
ENDBRANCH  23  24
BRANCH   9  11
ATOM     11  S   UNL     1      -0.859   2.530  25.037  0.00  0.00    +0.063 S 
ATOM     12  O   UNL     1      -0.931   2.490  25.857  0.00  0.00    -0.153 OA
ATOM     13  O   UNL     1      -0.788   2.568  24.215  0.00  0.00    -0.153 OA
BRANCH  11  14
ATOM     14  C   UNL     1      -0.970   1.713  24.988  0.00  0.00    +0.122 A 
ATOM     15  C   UNL     1      -1.083   1.271  25.675  0.00  0.00    +0.020 A 
ATOM     16  C   UNL     1      -1.194   0.454  25.626  0.00  0.00    +0.001 A 
ATOM     17  C   UNL     1      -1.191   0.081  24.890  0.00  0.00    +0.000 A 
ATOM     18  C   UNL     1      -1.078   0.523  24.204  0.00  0.00    +0.001 A 
ATOM     19  C   UNL     1      -0.967   1.340  24.252  0.00  0.00    +0.020 A 
ENDBRANCH  11  14
ENDBRANCH   9  11
TORSDOF 4
ENDMDL
MODEL 7
REMARK VINA RESULT:     -13.7      1.510      3.637
REMARK  Name = 
REMARK  4 active torsions:
REMARK  status: ('A' for Active; 'I' for Inactive)
REMARK    1  A    between atoms: N_9  and  S_11
REMARK    2  A    between atoms: S_11  and  C_14
REMARK    3  A    between atoms: C_23  and  C_24
REMARK    4  A    between atoms: C_28  and  C_30
REMARK                            x       y       z     vdW  Elec       q    Type
REMARK                         _______ _______ _______ _____ _____    ______ ____
ROOT
ATOM      1  O   UNL     1      -2.543   1.884  24.641  0.00  0.00    -0.267 OA
ATOM      2  C   UNL     1      -2.512   1.079  24.818  0.00  0.00    +0.261 A 
ATOM      3  N   UNL     1      -3.209   0.638  24.859  0.00  0.00    -0.299 N 
ATOM      4  C   UNL     1      -2.626   0.065  25.030  0.00  0.00    +0.110 C 
ATOM      5  C   UNL     1      -3.204  -0.727  25.156  0.00  0.00    +0.041 C 
ATOM      6  C   UNL     1      -3.534  -1.459  25.289  0.00  0.00    +0.011 C 
ATOM      7  C   UNL     1      -3.755  -0.812  25.131  0.00  0.00    +0.056 C 
ATOM      8  C   UNL     1      -4.521  -0.332  24.967  0.00  0.00    +0.102 C 
ATOM      9  N   UNL     1      -4.189   0.397  24.834  0.00  0.00    -0.155 NA
ATOM     10  C   UNL     1      -3.999  -0.216  24.983  0.00  0.00    +0.098 C 
ATOM     20  C   UNL     1      -3.178  -0.166  25.036  0.00  0.00    +0.041 A 
ATOM     21  C   UNL     1      -2.451  -0.531  25.173  0.00  0.00    +0.013 A 
ATOM     22  C   UNL     1      -1.755  -0.091  25.132  0.00  0.00    +0.006 A 
ATOM     23  C   UNL     1      -1.785   0.714  24.955  0.00  0.00    +0.056 A 
ENDROOT
BRANCH  23  24
ATOM     24  C   UNL     1      -1.088   1.154  24.914  0.00  0.00    +0.005 A 
ATOM     25  C   UNL     1      -0.683   1.219  24.198  0.00  0.00    +0.000 A 
ATOM     26  C   UNL     1       0.014   1.659  24.157  0.00  0.00    +0.001 A 
ATOM     27  C   UNL     1       0.305   2.034  24.833  0.00  0.00    +0.010 A 
ATOM     28  C   UNL     1      -0.100   1.970  25.548  0.00  0.00    +0.068 A 
ATOM     29  C   UNL     1      -0.797   1.529  25.588  0.00  0.00    +0.010 A 
BRANCH  28  30
ATOM     30  C   UNL     1       0.191   2.345  26.222  0.00  0.00    +0.100 C 
ATOM     31  N   UNL     1       0.483   2.719  26.896  0.00  0.00    -0.191 NA
ENDBRANCH  28  30
ENDBRANCH  23  24
BRANCH   9  11
ATOM     11  S   UNL     1      -4.134   1.202  24.664  0.00  0.00    +0.063 S 
ATOM     12  O   UNL     1      -4.040   1.027  23.864  0.00  0.00    -0.153 OA
ATOM     13  O   UNL     1      -4.228   1.379  25.465  0.00  0.00    -0.153 OA
BRANCH  11  14
ATOM     14  C   UNL     1      -4.079   2.008  24.494  0.00  0.00    +0.122 A 
ATOM     15  C   UNL     1      -3.972   2.259  23.716  0.00  0.00    +0.020 A 
ATOM     16  C   UNL     1      -3.917   3.065  23.545  0.00  0.00    +0.001 A 
ATOM     17  C   UNL     1      -3.971   3.619  24.154  0.00  0.00    +0.000 A 
ATOM     18  C   UNL     1      -4.078   3.368  24.932  0.00  0.00    +0.001 A 
ATOM     19  C   UNL     1      -4.133   2.562  25.103  0.00  0.00    +0.020 A 
ENDBRANCH  11  14
ENDBRANCH   9  11
TORSDOF 4
ENDMDL
