MODEL 1
REMARK VINA RESULT:     -11.2      0.000      0.000
REMARK  Name = 
REMARK  8 active torsions:
REMARK  status: ('A' for Active; 'I' for Inactive)
REMARK    1  A    between atoms: N_2  and  C_4
REMARK    2  A    between atoms: C_8  and  O_9
REMARK    3  A    between atoms: O_9  and  C_10
REMARK    4  A    between atoms: N_14  and  C_15
REMARK    5  A    between atoms: C_19  and  N_23
REMARK    6  A    between atoms: N_23  and  S_24
REMARK    7  A    between atoms: S_24  and  C_27
REMARK    8  A    between atoms: C_32  and  C_33
REMARK                            x       y       z     vdW  Elec       q    Type
REMARK                         _______ _______ _______ _____ _____    ______ ____
ROOT
ATOM     15  C   UNL     1      -4.290   2.216  24.694  0.00  0.00    +0.170 C 
ATOM     16  C   UNL     1      -4.715   1.972  25.357  0.00  0.00    +0.169 C 
ATOM     17  O   UNL     1      -4.703   1.148  25.379  0.00  0.00    -0.350 OA
ATOM     18  C   UNL     1      -4.270   0.882  24.730  0.00  0.00    +0.164 C 
ATOM     19  C   UNL     1      -3.995   0.208  24.341  0.00  0.00    +0.157 C 
ATOM     20  C   UNL     1      -3.569   0.452  23.678  0.00  0.00    +0.164 C 
ATOM     21  O   UNL     1      -3.582   1.276  23.656  0.00  0.00    -0.350 OA
ATOM     22  C   UNL     1      -4.015   1.542  24.306  0.00  0.00    +0.169 C 
ENDROOT
BRANCH  15  14
ATOM     10  C   UNL     1      -3.615   3.518  24.790  0.00  0.00    +0.343 A 
ATOM     11  N   UNL     1      -3.673   4.237  24.389  0.00  0.00    -0.071 NA
ATOM     12  N   UNL     1      -4.257   4.159  23.811  0.00  0.00    -0.020 NA
ATOM     13  N   UNL     1      -4.559   3.393  23.855  0.00  0.00    -0.040 NA
ATOM     14  N   UNL     1      -4.162   2.997  24.460  0.00  0.00    -0.180 N 
BRANCH  10   9
ATOM      9  O   UNL     1      -3.099   3.351  25.412  0.00  0.00    -0.421 OA
BRANCH   9   8
ATOM      4  C   UNL     1      -0.918   3.368  25.345  0.00  0.00    +0.051 A 
ATOM      5  C   UNL     1      -0.768   4.180  25.344  0.00  0.00    +0.015 A 
ATOM      6  C   UNL     1      -1.395   4.715  25.366  0.00  0.00    +0.004 A 
ATOM      7  C   UNL     1      -2.173   4.438  25.389  0.00  0.00    +0.038 A 
ATOM      8  C   UNL     1      -2.322   3.627  25.390  0.00  0.00    +0.150 A 
ATOM     35  C   UNL     1      -1.695   3.092  25.368  0.00  0.00    +0.052 A 
BRANCH   4   2
ATOM      1  C   UNL     1      -0.041   2.519  24.601  0.00  0.00    +0.112 C 
ATOM      2  N   UNL     1      -0.290   2.832  25.323  0.00  0.00    -0.304 N 
ATOM      3  C   UNL     1       0.087   2.611  26.021  0.00  0.00    +0.112 C 
ENDBRANCH   4   2
ENDBRANCH   9   8
ENDBRANCH  10   9
ENDBRANCH  15  14
BRANCH  19  23
ATOM     23  N   UNL     1      -4.123  -0.573  24.575  0.00  0.00    -0.074 NA
BRANCH  23  24
ATOM     24  S   UNL     1      -3.490  -1.101  24.613  0.00  0.00    +0.078 S 
ATOM     25  O   UNL     1      -3.559  -1.123  25.434  0.00  0.00    -0.152 OA
ATOM     26  O   UNL     1      -3.423  -1.079  23.791  0.00  0.00    -0.152 OA
BRANCH  24  27
ATOM     27  C   UNL     1      -2.858  -1.630  24.651  0.00  0.00    +0.133 A 
ATOM     28  C   UNL     1      -2.113  -1.365  24.889  0.00  0.00    +0.021 A 
ATOM     29  C   UNL     1      -1.481  -1.894  24.927  0.00  0.00    +0.001 A 
ATOM     30  C   UNL     1      -1.593  -2.686  24.729  0.00  0.00    +0.001 A 
ATOM     31  C   UNL     1      -2.337  -2.951  24.492  0.00  0.00    +0.012 A 
ATOM     32  C   UNL     1      -2.970  -2.423  24.453  0.00  0.00    +0.087 A 
BRANCH  32  33
ATOM     33  C   UNL     1      -3.715  -2.688  24.216  0.00  0.00    +0.102 C 
ATOM     34  N   UNL     1      -4.459  -2.953  23.979  0.00  0.00    -0.191 NA
ENDBRANCH  32  33
ENDBRANCH  24  27
ENDBRANCH  23  24
ENDBRANCH  19  23
TORSDOF 8
ENDMDL
MODEL 2
REMARK VINA RESULT:     -11.1      1.597      3.150
REMARK  Name = 
REMARK  8 active torsions:
REMARK  status: ('A' for Active; 'I' for Inactive)
REMARK    1  A    between atoms: N_2  and  C_4
REMARK    2  A    between atoms: C_8  and  O_9
REMARK    3  A    between atoms: O_9  and  C_10
REMARK    4  A    between atoms: N_14  and  C_15
REMARK    5  A    between atoms: C_19  and  N_23
REMARK    6  A    between atoms: N_23  and  S_24
REMARK    7  A    between atoms: S_24  and  C_27
REMARK    8  A    between atoms: C_32  and  C_33
REMARK                            x       y       z     vdW  Elec       q    Type
REMARK                         _______ _______ _______ _____ _____    ______ ____
ROOT
ATOM     15  C   UNL     1      -0.176   1.397  25.138  0.00  0.00    +0.170 C 
ATOM     16  C   UNL     1       0.038   1.241  24.357  0.00  0.00    +0.169 C 
ATOM     17  O   UNL     1      -0.299   0.520  24.140  0.00  0.00    -0.350 OA
ATOM     18  C   UNL     1      -0.722   0.231  24.786  0.00  0.00    +0.164 C 
ATOM     19  C   UNL     1      -1.191  -0.393  25.052  0.00  0.00    +0.157 C 
ATOM     20  C   UNL     1      -1.405  -0.238  25.833  0.00  0.00    +0.164 C 
ATOM     21  O   UNL     1      -1.068   0.483  26.051  0.00  0.00    -0.350 OA
ATOM     22  C   UNL     1      -0.645   0.773  25.403  0.00  0.00    +0.169 C 
ENDROOT
BRANCH  15  14
ATOM     10  C   UNL     1      -0.239   2.829  25.466  0.00  0.00    +0.343 A 
ATOM     11  N   UNL     1       0.124   3.316  26.025  0.00  0.00    -0.071 NA
ATOM     12  N   UNL     1       0.628   2.849  26.482  0.00  0.00    -0.020 NA
ATOM     13  N   UNL     1       0.577   2.073  26.206  0.00  0.00    -0.040 NA
ATOM     14  N   UNL     1       0.041   2.061  25.578  0.00  0.00    -0.180 N 
BRANCH  10   9
ATOM      9  O   UNL     1      -0.785   3.068  24.896  0.00  0.00    -0.421 OA
BRANCH   9   8
ATOM      4  C   UNL     1      -2.545   4.223  25.469  0.00  0.00    +0.051 A 
ATOM      5  C   UNL     1      -2.275   4.993  25.342  0.00  0.00    +0.015 A 
ATOM      6  C   UNL     1      -1.508   5.121  25.066  0.00  0.00    +0.004 A 
ATOM      7  C   UNL     1      -1.012   4.478  24.917  0.00  0.00    +0.038 A 
ATOM      8  C   UNL     1      -1.282   3.710  25.044  0.00  0.00    +0.150 A 
ATOM     35  C   UNL     1      -2.048   3.582  25.320  0.00  0.00    +0.052 A 
BRANCH   4   2
ATOM      1  C   UNL     1      -3.905   3.861  25.222  0.00  0.00    +0.112 C 
ATOM      2  N   UNL     1      -3.312   4.096  25.746  0.00  0.00    -0.304 N 
ATOM      3  C   UNL     1      -3.486   4.203  26.544  0.00  0.00    +0.112 C 
ENDBRANCH   4   2
ENDBRANCH   9   8
ENDBRANCH  10   9
ENDBRANCH  15  14
BRANCH  19  23
ATOM     23  N   UNL     1      -1.408  -1.057  24.613  0.00  0.00    -0.074 NA
BRANCH  23  24
ATOM     24  S   UNL     1      -2.206  -1.227  24.488  0.00  0.00    +0.078 S 
ATOM     25  O   UNL     1      -2.126  -1.012  23.695  0.00  0.00    -0.152 OA
ATOM     26  O   UNL     1      -2.285  -1.441  25.281  0.00  0.00    -0.152 OA
BRANCH  24  27
ATOM     27  C   UNL     1      -3.004  -1.396  24.362  0.00  0.00    +0.133 A 
ATOM     28  C   UNL     1      -3.561  -0.787  24.372  0.00  0.00    +0.021 A 
ATOM     29  C   UNL     1      -4.358  -0.956  24.246  0.00  0.00    +0.001 A 
ATOM     30  C   UNL     1      -4.599  -1.733  24.110  0.00  0.00    +0.001 A 
ATOM     31  C   UNL     1      -4.043  -2.341  24.100  0.00  0.00    +0.012 A 
ATOM     32  C   UNL     1      -3.245  -2.173  24.226  0.00  0.00    +0.087 A 
BRANCH  32  33
ATOM     33  C   UNL     1      -2.688  -2.782  24.216  0.00  0.00    +0.102 C 
ATOM     34  N   UNL     1      -2.132  -3.390  24.207  0.00  0.00    -0.191 NA
ENDBRANCH  32  33
ENDBRANCH  24  27
ENDBRANCH  23  24
ENDBRANCH  19  23
TORSDOF 8
ENDMDL
MODEL 3
REMARK VINA RESULT:     -10.8      1.898      5.365
REMARK  Name = 
REMARK  8 active torsions:
REMARK  status: ('A' for Active; 'I' for Inactive)
REMARK    1  A    between atoms: N_2  and  C_4
REMARK    2  A    between atoms: C_8  and  O_9
REMARK    3  A    between atoms: O_9  and  C_10
REMARK    4  A    between atoms: N_14  and  C_15
REMARK    5  A    between atoms: C_19  and  N_23
REMARK    6  A    between atoms: N_23  and  S_24
REMARK    7  A    between atoms: S_24  and  C_27
REMARK    8  A    between atoms: C_32  and  C_33
REMARK                            x       y       z     vdW  Elec       q    Type
REMARK                         _______ _______ _______ _____ _____    ______ ____
ROOT
ATOM     15  C   UNL     1      -0.605   1.080  24.338  0.00  0.00    +0.170 C 
ATOM     16  C   UNL     1      -0.393   1.454  25.042  0.00  0.00    +0.169 C 
ATOM     17  O   UNL     1      -0.912   2.083  25.162  0.00  0.00    -0.350 OA
ATOM     18  C   UNL     1      -1.445   2.098  24.533  0.00  0.00    +0.164 C 
ATOM     19  C   UNL     1      -2.096   2.496  24.218  0.00  0.00    +0.157 C 
ATOM     20  C   UNL     1      -2.308   2.121  23.514  0.00  0.00    +0.164 C 
ATOM     21  O   UNL     1      -1.788   1.492  23.394  0.00  0.00    -0.350 OA
ATOM     22  C   UNL     1      -1.255   1.478  24.024  0.00  0.00    +0.169 C 
ENDROOT
BRANCH  15  14
ATOM     10  C   UNL     1      -0.323  -0.360  24.250  0.00  0.00    +0.343 A 
ATOM     11  N   UNL     1       0.151  -0.834  23.768  0.00  0.00    -0.071 NA
ATOM     12  N   UNL     1       0.535  -0.343  23.227  0.00  0.00    -0.020 NA
ATOM     13  N   UNL     1       0.299   0.433  23.375  0.00  0.00    -0.040 NA
ATOM     14  N   UNL     1      -0.231   0.422  24.007  0.00  0.00    -0.180 N 
BRANCH  10   9
ATOM      9  O   UNL     1      -0.805  -0.624  24.866  0.00  0.00    -0.421 OA
BRANCH   9   8
ATOM      4  C   UNL     1      -2.450  -2.032  24.603  0.00  0.00    +0.051 A 
ATOM      5  C   UNL     1      -2.048  -2.752  24.639  0.00  0.00    +0.015 A 
ATOM      6  C   UNL     1      -1.231  -2.762  24.750  0.00  0.00    +0.004 A 
ATOM      7  C   UNL     1      -0.817  -2.052  24.826  0.00  0.00    +0.038 A 
ATOM      8  C   UNL     1      -1.219  -1.334  24.790  0.00  0.00    +0.150 A 
ATOM     35  C   UNL     1      -2.036  -1.324  24.679  0.00  0.00    +0.052 A 
BRANCH   4   2
ATOM      1  C   UNL     1      -3.701  -1.342  24.671  0.00  0.00    +0.112 C 
ATOM      2  N   UNL     1      -3.269  -2.022  24.492  0.00  0.00    -0.304 N 
ATOM      3  C   UNL     1      -3.653  -2.691  24.201  0.00  0.00    +0.112 C 
ENDBRANCH   4   2
ENDBRANCH   9   8
ENDBRANCH  10   9
ENDBRANCH  15  14
BRANCH  19  23
ATOM     23  N   UNL     1      -2.469   3.153  24.549  0.00  0.00    -0.074 NA
BRANCH  23  24
ATOM     24  S   UNL     1      -3.264   3.111  24.764  0.00  0.00    +0.078 S 
ATOM     25  O   UNL     1      -3.060   2.676  25.434  0.00  0.00    -0.152 OA
ATOM     26  O   UNL     1      -3.468   3.547  24.093  0.00  0.00    -0.152 OA
BRANCH  24  27
ATOM     27  C   UNL     1      -4.060   3.069  24.980  0.00  0.00    +0.133 A 
ATOM     28  C   UNL     1      -4.566   2.550  24.586  0.00  0.00    +0.021 A 
ATOM     29  C   UNL     1      -5.361   2.507  24.802  0.00  0.00    +0.001 A 
ATOM     30  C   UNL     1      -5.650   2.984  25.410  0.00  0.00    +0.001 A 
ATOM     31  C   UNL     1      -5.144   3.503  25.803  0.00  0.00    +0.012 A 
ATOM     32  C   UNL     1      -4.348   3.546  25.588  0.00  0.00    +0.087 A 
BRANCH  32  33
ATOM     33  C   UNL     1      -3.841   4.065  25.981  0.00  0.00    +0.102 C 
ATOM     34  N   UNL     1      -3.336   4.584  26.374  0.00  0.00    -0.191 NA
ENDBRANCH  32  33
ENDBRANCH  24  27
ENDBRANCH  23  24
ENDBRANCH  19  23
TORSDOF 8
ENDMDL
MODEL 4
REMARK VINA RESULT:     -10.5      1.566      2.924
REMARK  Name = 
REMARK  8 active torsions:
REMARK  status: ('A' for Active; 'I' for Inactive)
REMARK    1  A    between atoms: N_2  and  C_4
REMARK    2  A    between atoms: C_8  and  O_9
REMARK    3  A    between atoms: O_9  and  C_10
REMARK    4  A    between atoms: N_14  and  C_15
REMARK    5  A    between atoms: C_19  and  N_23
REMARK    6  A    between atoms: N_23  and  S_24
REMARK    7  A    between atoms: S_24  and  C_27
REMARK    8  A    between atoms: C_32  and  C_33
REMARK                            x       y       z     vdW  Elec       q    Type
REMARK                         _______ _______ _______ _____ _____    ______ ____
ROOT
ATOM     15  C   UNL     1      -0.836   2.255  25.306  0.00  0.00    +0.170 C 
ATOM     16  C   UNL     1      -0.533   1.914  25.993  0.00  0.00    +0.169 C 
ATOM     17  O   UNL     1      -0.599   1.095  25.920  0.00  0.00    -0.350 OA
ATOM     18  C   UNL     1      -0.942   0.930  25.189  0.00  0.00    +0.164 C 
ATOM     19  C   UNL     1      -1.196   0.323  24.692  0.00  0.00    +0.157 C 
ATOM     20  C   UNL     1      -1.498   0.665  24.005  0.00  0.00    +0.164 C 
ATOM     21  O   UNL     1      -1.432   1.484  24.078  0.00  0.00    -0.350 OA
ATOM     22  C   UNL     1      -1.088   1.648  24.810  0.00  0.00    +0.169 C 
ENDROOT
BRANCH  15  14
ATOM     10  C   UNL     1      -1.423   3.594  25.464  0.00  0.00    +0.343 A 
ATOM     11  N   UNL     1      -1.264   4.341  25.152  0.00  0.00    -0.071 NA
ATOM     12  N   UNL     1      -0.621   4.273  24.640  0.00  0.00    -0.020 NA
ATOM     13  N   UNL     1      -0.382   3.483  24.635  0.00  0.00    -0.040 NA
ATOM     14  N   UNL     1      -0.878   3.064  25.145  0.00  0.00    -0.180 N 
BRANCH  10   9
ATOM      9  O   UNL     1      -2.022   3.410  26.001  0.00  0.00    -0.421 OA
BRANCH   9   8
ATOM      4  C   UNL     1      -4.138   3.616  25.512  0.00  0.00    +0.051 A 
ATOM      5  C   UNL     1      -4.274   4.401  25.728  0.00  0.00    +0.015 A 
ATOM      6  C   UNL     1      -3.658   4.855  26.036  0.00  0.00    +0.004 A 
ATOM      7  C   UNL     1      -2.907   4.524  26.127  0.00  0.00    +0.038 A 
ATOM      8  C   UNL     1      -2.772   3.740  25.910  0.00  0.00    +0.150 A 
ATOM     35  C   UNL     1      -3.388   3.286  25.602  0.00  0.00    +0.052 A 
BRANCH   4   2
ATOM      1  C   UNL     1      -5.429   3.018  25.658  0.00  0.00    +0.112 C 
ATOM      2  N   UNL     1      -4.755   3.161  25.203  0.00  0.00    -0.304 N 
ATOM      3  C   UNL     1      -4.697   2.850  24.442  0.00  0.00    +0.112 C 
ENDBRANCH   4   2
ENDBRANCH   9   8
ENDBRANCH  10   9
ENDBRANCH  15  14
BRANCH  19  23
ATOM     23  N   UNL     1      -1.153  -0.485  24.853  0.00  0.00    -0.074 NA
BRANCH  23  24
ATOM     24  S   UNL     1      -1.815  -0.965  24.737  0.00  0.00    +0.078 S 
ATOM     25  O   UNL     1      -1.992  -0.913  25.541  0.00  0.00    -0.152 OA
ATOM     26  O   UNL     1      -1.636  -1.016  23.933  0.00  0.00    -0.152 OA
BRANCH  24  27
ATOM     27  C   UNL     1      -2.476  -1.444  24.621  0.00  0.00    +0.133 A 
ATOM     28  C   UNL     1      -3.215  -1.102  24.490  0.00  0.00    +0.021 A 
ATOM     29  C   UNL     1      -3.877  -1.581  24.374  0.00  0.00    +0.001 A 
ATOM     30  C   UNL     1      -3.799  -2.402  24.390  0.00  0.00    +0.001 A 
ATOM     31  C   UNL     1      -3.061  -2.744  24.522  0.00  0.00    +0.012 A 
ATOM     32  C   UNL     1      -2.399  -2.265  24.637  0.00  0.00    +0.087 A 
BRANCH  32  33
ATOM     33  C   UNL     1      -1.659  -2.608  24.769  0.00  0.00    +0.102 C 
ATOM     34  N   UNL     1      -0.921  -2.950  24.900  0.00  0.00    -0.191 NA
ENDBRANCH  32  33
ENDBRANCH  24  27
ENDBRANCH  23  24
ENDBRANCH  19  23
TORSDOF 8
ENDMDL
MODEL 5
REMARK VINA RESULT:     -10.3      2.142      5.907
REMARK  Name = 
REMARK  8 active torsions:
REMARK  status: ('A' for Active; 'I' for Inactive)
REMARK    1  A    between atoms: N_2  and  C_4
REMARK    2  A    between atoms: C_8  and  O_9
REMARK    3  A    between atoms: O_9  and  C_10
REMARK    4  A    between atoms: N_14  and  C_15
REMARK    5  A    between atoms: C_19  and  N_23
REMARK    6  A    between atoms: N_23  and  S_24
REMARK    7  A    between atoms: S_24  and  C_27
REMARK    8  A    between atoms: C_32  and  C_33
REMARK                            x       y       z     vdW  Elec       q    Type
REMARK                         _______ _______ _______ _____ _____    ______ ____
ROOT
ATOM     15  C   UNL     1      -0.439  -0.218  24.592  0.00  0.00    +0.170 C 
ATOM     16  C   UNL     1      -0.182   0.027  23.848  0.00  0.00    +0.169 C 
ATOM     17  O   UNL     1      -0.161   0.851  23.845  0.00  0.00    -0.350 OA
ATOM     18  C   UNL     1      -0.405   1.116  24.587  0.00  0.00    +0.164 C 
ATOM     19  C   UNL     1      -0.543   1.788  25.044  0.00  0.00    +0.157 C 
ATOM     20  C   UNL     1      -0.800   1.543  25.789  0.00  0.00    +0.164 C 
ATOM     21  O   UNL     1      -0.821   0.719  25.792  0.00  0.00    -0.350 OA
ATOM     22  C   UNL     1      -0.577   0.454  25.049  0.00  0.00    +0.169 C 
ENDROOT
BRANCH  15  14
ATOM     10  C   UNL     1      -1.140  -1.511  24.592  0.00  0.00    +0.343 A 
ATOM     11  N   UNL     1      -1.030  -2.235  24.973  0.00  0.00    -0.071 NA
ATOM     12  N   UNL     1      -0.363  -2.170  25.455  0.00  0.00    -0.020 NA
ATOM     13  N   UNL     1      -0.060  -1.407  25.371  0.00  0.00    -0.040 NA
ATOM     14  N   UNL     1      -0.541  -1.000  24.837  0.00  0.00    -0.180 N 
BRANCH  10   9
ATOM      9  O   UNL     1      -1.743  -1.330  24.058  0.00  0.00    -0.421 OA
BRANCH   9   8
ATOM      4  C   UNL     1      -3.856  -1.176  24.578  0.00  0.00    +0.051 A 
ATOM      5  C   UNL     1      -4.078  -1.971  24.570  0.00  0.00    +0.015 A 
ATOM      6  C   UNL     1      -3.521  -2.552  24.391  0.00  0.00    +0.004 A 
ATOM      7  C   UNL     1      -2.743  -2.338  24.221  0.00  0.00    +0.038 A 
ATOM      8  C   UNL     1      -2.521  -1.544  24.229  0.00  0.00    +0.150 A 
ATOM     35  C   UNL     1      -3.079  -0.963  24.408  0.00  0.00    +0.052 A 
BRANCH   4   2
ATOM      1  C   UNL     1      -5.060  -0.474  24.257  0.00  0.00    +0.112 C 
ATOM      2  N   UNL     1      -4.414  -0.594  24.757  0.00  0.00    -0.304 N 
ATOM      3  C   UNL     1      -4.326  -0.133  25.435  0.00  0.00    +0.112 C 
ENDBRANCH   4   2
ENDBRANCH   9   8
ENDBRANCH  10   9
ENDBRANCH  15  14
BRANCH  19  23
ATOM     23  N   UNL     1      -0.441   2.570  24.799  0.00  0.00    -0.074 NA
BRANCH  23  24
ATOM     24  S   UNL     1      -0.972   3.152  25.046  0.00  0.00    +0.078 S 
ATOM     25  O   UNL     1      -1.417   3.035  24.362  0.00  0.00    -0.152 OA
ATOM     26  O   UNL     1      -0.525   3.269  25.730  0.00  0.00    -0.152 OA
BRANCH  24  27
ATOM     27  C   UNL     1      -1.502   3.734  25.292  0.00  0.00    +0.133 A 
ATOM     28  C   UNL     1      -2.166   3.525  25.736  0.00  0.00    +0.021 A 
ATOM     29  C   UNL     1      -2.696   4.107  25.982  0.00  0.00    +0.001 A 
ATOM     30  C   UNL     1      -2.564   4.897  25.784  0.00  0.00    +0.001 A 
ATOM     31  C   UNL     1      -1.901   5.105  25.340  0.00  0.00    +0.012 A 
ATOM     32  C   UNL     1      -1.370   4.524  25.093  0.00  0.00    +0.087 A 
BRANCH  32  33
ATOM     33  C   UNL     1      -0.706   4.732  24.649  0.00  0.00    +0.102 C 
ATOM     34  N   UNL     1      -0.044   4.941  24.205  0.00  0.00    -0.191 NA
ENDBRANCH  32  33
ENDBRANCH  24  27
ENDBRANCH  23  24
ENDBRANCH  19  23
TORSDOF 8
ENDMDL
MODEL 6
REMARK VINA RESULT:      -9.9      2.881      5.061
REMARK  Name = 
REMARK  8 active torsions:
REMARK  status: ('A' for Active; 'I' for Inactive)
REMARK    1  A    between atoms: N_2  and  C_4
REMARK    2  A    between atoms: C_8  and  O_9
REMARK    3  A    between atoms: O_9  and  C_10
REMARK    4  A    between atoms: N_14  and  C_15
REMARK    5  A    between atoms: C_19  and  N_23
REMARK    6  A    between atoms: N_23  and  S_24
REMARK    7  A    between atoms: S_24  and  C_27
REMARK    8  A    between atoms: C_32  and  C_33
REMARK                            x       y       z     vdW  Elec       q    Type
REMARK                         _______ _______ _______ _____ _____    ______ ____
ROOT
ATOM     15  C   UNL     1      -0.900   0.575  24.580  0.00  0.00    +0.170 C 
ATOM     16  C   UNL     1      -0.614   1.243  24.969  0.00  0.00    +0.169 C 
ATOM     17  O   UNL     1      -1.211   1.812  24.970  0.00  0.00    -0.350 OA
ATOM     18  C   UNL     1      -1.866   1.497  24.582  0.00  0.00    +0.164 C 
ATOM     19  C   UNL     1      -2.639   1.652  24.342  0.00  0.00    +0.157 C 
ATOM     20  C   UNL     1      -2.926   0.984  23.953  0.00  0.00    +0.164 C 
ATOM     21  O   UNL     1      -2.329   0.415  23.952  0.00  0.00    -0.350 OA
ATOM     22  C   UNL     1      -1.674   0.731  24.341  0.00  0.00    +0.169 C 
ENDROOT
BRANCH  15  14
ATOM     10  C   UNL     1       0.140  -0.231  23.926  0.00  0.00    +0.343 A 
ATOM     11  N   UNL     1       0.389  -1.017  23.977  0.00  0.00    -0.071 NA
ATOM     12  N   UNL     1      -0.084  -1.398  24.537  0.00  0.00    -0.020 NA
ATOM     13  N   UNL     1      -0.624  -0.848  24.830  0.00  0.00    -0.040 NA
ATOM     14  N   UNL     1      -0.486  -0.127  24.453  0.00  0.00    -0.180 N 
BRANCH  10   9
ATOM      9  O   UNL     1       0.462   0.347  23.434  0.00  0.00    -0.421 OA
BRANCH   9   8
ATOM      4  C   UNL     1       2.470   0.154  22.603  0.00  0.00    +0.051 A 
ATOM      5  C   UNL     1       2.309  -0.229  21.890  0.00  0.00    +0.015 A 
ATOM      6  C   UNL     1       1.531  -0.420  21.692  0.00  0.00    +0.004 A 
ATOM      7  C   UNL     1       0.915  -0.227  22.207  0.00  0.00    +0.038 A 
ATOM      8  C   UNL     1       1.077   0.155  22.919  0.00  0.00    +0.150 A 
ATOM     35  C   UNL     1       1.855   0.346  23.117  0.00  0.00    +0.052 A 
BRANCH   4   2
ATOM      1  C   UNL     1       3.513   1.123  22.730  0.00  0.00    +0.112 C 
ATOM      2  N   UNL     1       3.249   0.345  22.801  0.00  0.00    -0.304 N 
ATOM      3  C   UNL     1       3.761  -0.242  23.071  0.00  0.00    +0.112 C 
ENDBRANCH   4   2
ENDBRANCH   9   8
ENDBRANCH  10   9
ENDBRANCH  15  14
BRANCH  19  23
ATOM     23  N   UNL     1      -3.054   2.354  24.470  0.00  0.00    -0.074 NA
BRANCH  23  24
ATOM     24  S   UNL     1      -3.844   2.330  24.709  0.00  0.00    +0.078 S 
ATOM     25  O   UNL     1      -3.605   2.134  25.474  0.00  0.00    -0.152 OA
ATOM     26  O   UNL     1      -4.081   2.525  23.943  0.00  0.00    -0.152 OA
BRANCH  24  27
ATOM     27  C   UNL     1      -4.633   2.305  24.948  0.00  0.00    +0.133 A 
ATOM     28  C   UNL     1      -5.086   1.630  24.805  0.00  0.00    +0.021 A 
ATOM     29  C   UNL     1      -5.875   1.606  25.045  0.00  0.00    +0.001 A 
ATOM     30  C   UNL     1      -6.211   2.255  25.427  0.00  0.00    +0.001 A 
ATOM     31  C   UNL     1      -5.758   2.929  25.570  0.00  0.00    +0.012 A 
ATOM     32  C   UNL     1      -4.968   2.954  25.331  0.00  0.00    +0.087 A 
BRANCH  32  33
ATOM     33  C   UNL     1      -4.515   3.629  25.474  0.00  0.00    +0.102 C 
ATOM     34  N   UNL     1      -4.062   4.303  25.617  0.00  0.00    -0.191 NA
ENDBRANCH  32  33
ENDBRANCH  24  27
ENDBRANCH  23  24
ENDBRANCH  19  23
TORSDOF 8
ENDMDL
MODEL 7
REMARK VINA RESULT:      -9.9      1.368      4.925
REMARK  Name = 
REMARK  8 active torsions:
REMARK  status: ('A' for Active; 'I' for Inactive)
REMARK    1  A    between atoms: N_2  and  C_4
REMARK    2  A    between atoms: C_8  and  O_9
REMARK    3  A    between atoms: O_9  and  C_10
REMARK    4  A    between atoms: N_14  and  C_15
REMARK    5  A    between atoms: C_19  and  N_23
REMARK    6  A    between atoms: N_23  and  S_24
REMARK    7  A    between atoms: S_24  and  C_27
REMARK    8  A    between atoms: C_32  and  C_33
REMARK                            x       y       z     vdW  Elec       q    Type
REMARK                         _______ _______ _______ _____ _____    ______ ____
ROOT
ATOM     15  C   UNL     1      -4.172  -0.038  24.665  0.00  0.00    +0.170 C 
ATOM     16  C   UNL     1      -4.503   0.156  25.394  0.00  0.00    +0.169 C 
ATOM     17  O   UNL     1      -4.431   0.972  25.497  0.00  0.00    -0.350 OA
ATOM     18  C   UNL     1      -4.056   1.281  24.831  0.00  0.00    +0.164 C 
ATOM     19  C   UNL     1      -3.779   1.975  24.482  0.00  0.00    +0.157 C 
ATOM     20  C   UNL     1      -3.448   1.780  23.752  0.00  0.00    +0.164 C 
ATOM     21  O   UNL     1      -3.520   0.965  23.650  0.00  0.00    -0.350 OA
ATOM     22  C   UNL     1      -3.896   0.656  24.316  0.00  0.00    +0.169 C 
ENDROOT
BRANCH  15  14
ATOM     10  C   UNL     1      -3.582  -1.380  24.549  0.00  0.00    +0.343 A 
ATOM     11  N   UNL     1      -3.735  -2.047  24.087  0.00  0.00    -0.071 NA
ATOM     12  N   UNL     1      -4.373  -1.875  23.593  0.00  0.00    -0.020 NA
ATOM     13  N   UNL     1      -4.614  -1.101  23.749  0.00  0.00    -0.040 NA
ATOM     14  N   UNL     1      -4.125  -0.796  24.340  0.00  0.00    -0.180 N 
BRANCH  10   9
ATOM      9  O   UNL     1      -2.990  -1.310  25.119  0.00  0.00    -0.421 OA
BRANCH   9   8
ATOM      4  C   UNL     1      -0.880  -1.251  24.565  0.00  0.00    +0.051 A 
ATOM      5  C   UNL     1      -0.685  -2.052  24.604  0.00  0.00    +0.015 A 
ATOM      6  C   UNL     1      -1.259  -2.606  24.815  0.00  0.00    +0.004 A 
ATOM      7  C   UNL     1      -2.027  -2.358  24.987  0.00  0.00    +0.038 A 
ATOM      8  C   UNL     1      -2.222  -1.558  24.947  0.00  0.00    +0.150 A 
ATOM     35  C   UNL     1      -1.648  -1.004  24.737  0.00  0.00    +0.052 A 
BRANCH   4   2
ATOM      1  C   UNL     1      -0.240   0.010  24.776  0.00  0.00    +0.112 C 
ATOM      2  N   UNL     1      -0.305  -0.697  24.354  0.00  0.00    -0.304 N 
ATOM      3  C   UNL     1       0.202  -0.849  23.723  0.00  0.00    +0.112 C 
ENDBRANCH   4   2
ENDBRANCH   9   8
ENDBRANCH  10   9
ENDBRANCH  15  14
BRANCH  19  23
ATOM     23  N   UNL     1      -3.826   2.732  24.806  0.00  0.00    -0.074 NA
BRANCH  23  24
ATOM     24  S   UNL     1      -3.147   3.197  24.870  0.00  0.00    +0.078 S 
ATOM     25  O   UNL     1      -3.412   3.667  24.245  0.00  0.00    -0.152 OA
ATOM     26  O   UNL     1      -2.883   2.726  25.494  0.00  0.00    -0.152 OA
BRANCH  24  27
ATOM     27  C   UNL     1      -2.469   3.662  24.932  0.00  0.00    +0.133 A 
ATOM     28  C   UNL     1      -1.838   3.544  24.413  0.00  0.00    +0.021 A 
ATOM     29  C   UNL     1      -1.160   4.009  24.475  0.00  0.00    +0.001 A 
ATOM     30  C   UNL     1      -1.111   4.592  25.057  0.00  0.00    +0.001 A 
ATOM     31  C   UNL     1      -1.741   4.709  25.576  0.00  0.00    +0.012 A 
ATOM     32  C   UNL     1      -2.420   4.245  25.514  0.00  0.00    +0.087 A 
BRANCH  32  33
ATOM     33  C   UNL     1      -3.050   4.363  26.034  0.00  0.00    +0.102 C 
ATOM     34  N   UNL     1      -3.679   4.481  26.553  0.00  0.00    -0.191 NA
ENDBRANCH  32  33
ENDBRANCH  24  27
ENDBRANCH  23  24
ENDBRANCH  19  23
TORSDOF 8
ENDMDL
