MODEL 1
REMARK VINA RESULT:     -11.2      0.000      0.000
REMARK  Name = 
REMARK  6 active torsions:
REMARK  status: ('A' for Active; 'I' for Inactive)
REMARK    1  A    between atoms: C_4  and  C_15
REMARK    2  A    between atoms: C_6  and  C_8
REMARK    3  A    between atoms: C_22  and  C_23
REMARK    4  A    between atoms: C_23  and  N_24
REMARK    5  A    between atoms: C_25  and  C_27
REMARK    6  A    between atoms: C_30  and  C_33
REMARK                            x       y       z     vdW  Elec       q    Type
REMARK                         _______ _______ _______ _____ _____    ______ ____
ROOT
ATOM     15  C   UNL     1      -1.204   0.769  23.920  0.00  0.00    +0.056 C 
ATOM     16  C   UNL     1      -1.050   0.998  23.192  0.00  0.00    +0.078 C 
ATOM     17  N   UNL     1      -0.569   0.523  23.666  0.00  0.00    -0.272 NA
ATOM     18  C   UNL     1      -1.061   0.402  24.584  0.00  0.00    +0.072 C 
ATOM     19  C   UNL     1      -1.083   0.154  25.188  0.00  0.00    +0.018 C 
ATOM     20  C   UNL     1      -0.726   0.303  24.379  0.00  0.00    +0.010 C 
ATOM     21  C   UNL     1       0.054  -0.069  24.227  0.00  0.00    +0.018 C 
ATOM     22  C   UNL     1       0.242   0.133  23.515  0.00  0.00    +0.079 C 
ENDROOT
BRANCH  15   4
ATOM      1  C   UNL     1      -3.884   0.224  24.751  0.00  0.00    +0.074 C 
ATOM      2  C   UNL     1      -3.255   0.751  24.669  0.00  0.00    +0.139 A 
ATOM      3  N   UNL     1      -2.544   0.497  24.336  0.00  0.00    -0.235 NA
ATOM      4  C   UNL     1      -1.915   1.024  24.254  0.00  0.00    +0.063 A 
ATOM      5  C   UNL     1      -1.996   1.805  24.505  0.00  0.00    +0.034 A 
ATOM      6  C   UNL     1      -2.706   2.059  24.839  0.00  0.00    +0.084 A 
ATOM      7  N   UNL     1      -3.336   1.533  24.921  0.00  0.00    -0.231 NA
BRANCH   6   8
ATOM      8  C   UNL     1      -2.788   2.841  25.090  0.00  0.00    +0.024 A 
ATOM      9  C   UNL     1      -3.258   3.365  24.661  0.00  0.00    +0.036 A 
ATOM     10 BR   UNL     1      -3.646   3.108  23.980  0.00  0.00    -0.049 Br
ATOM     11  C   UNL     1      -3.340   4.147  24.912  0.00  0.00    +0.007 A 
ATOM     12  C   UNL     1      -2.952   4.404  25.593  0.00  0.00    +0.001 A 
ATOM     13  C   UNL     1      -2.482   3.880  26.022  0.00  0.00    +0.000 A 
ATOM     14  C   UNL     1      -2.400   3.098  25.771  0.00  0.00    +0.002 A 
ENDBRANCH   6   8
ENDBRANCH  15   4
BRANCH  22  23
ATOM     23  C   UNL     1       0.832   0.048  22.945  0.00  0.00    +0.131 C 
BRANCH  23  24
ATOM     24  N   UNL     1       1.627   0.083  23.165  0.00  0.00    -0.200 NA
ATOM     25  C   UNL     1       2.216   0.032  22.590  0.00  0.00    +0.265 C 
ATOM     26  O   UNL     1       2.011  -0.053  21.795  0.00  0.00    -0.268 OA
BRANCH  25  27
ATOM     27  C   UNL     1       3.010   0.066  22.810  0.00  0.00    +0.055 A 
ATOM     28  C   UNL     1       3.446   0.754  22.674  0.00  0.00    +0.004 A 
ATOM     29  C   UNL     1       4.241   0.788  22.894  0.00  0.00    -0.004 A 
ATOM     30  C   UNL     1       4.599   0.135  23.249  0.00  0.00    -0.023 A 
ATOM     31  C   UNL     1       4.163  -0.552  23.384  0.00  0.00    -0.004 A 
ATOM     32  C   UNL     1       3.369  -0.586  23.165  0.00  0.00    +0.004 A 
BRANCH  30  33
ATOM     33  C   UNL     1       5.394   0.169  23.469  0.00  0.00    +0.019 C 
ATOM     34  C   UNL     1       6.188   0.202  23.688  0.00  0.00    +0.004 C 
ATOM     35  C   UNL     1       5.189   0.585  24.150  0.00  0.00    +0.004 C 
ATOM     36  C   UNL     1       5.599  -0.248  22.787  0.00  0.00    +0.004 C 
ENDBRANCH  30  33
ENDBRANCH  25  27
ENDBRANCH  23  24
ENDBRANCH  22  23
TORSDOF 6
ENDMDL
MODEL 2
REMARK VINA RESULT:     -10.8      1.985      2.935
REMARK  Name = 
REMARK  6 active torsions:
REMARK  status: ('A' for Active; 'I' for Inactive)
REMARK    1  A    between atoms: C_4  and  C_15
REMARK    2  A    between atoms: C_6  and  C_8
REMARK    3  A    between atoms: C_22  and  C_23
REMARK    4  A    between atoms: C_23  and  N_24
REMARK    5  A    between atoms: C_25  and  C_27
REMARK    6  A    between atoms: C_30  and  C_33
REMARK                            x       y       z     vdW  Elec       q    Type
REMARK                         _______ _______ _______ _____ _____    ______ ____
ROOT
ATOM     15  C   UNL     1      -0.548  -0.434  24.164  0.00  0.00    +0.056 C 
ATOM     16  C   UNL     1      -0.123  -1.002  23.844  0.00  0.00    +0.078 C 
ATOM     17  N   UNL     1      -0.020  -0.192  23.727  0.00  0.00    -0.272 NA
ATOM     18  C   UNL     1      -0.750   0.299  24.298  0.00  0.00    +0.072 C 
ATOM     19  C   UNL     1      -1.034   0.849  24.505  0.00  0.00    +0.018 C 
ATOM     20  C   UNL     1      -0.440   0.359  24.045  0.00  0.00    +0.010 C 
ATOM     21  C   UNL     1       0.137   0.808  23.560  0.00  0.00    +0.018 C 
ATOM     22  C   UNL     1       0.578   0.282  23.225  0.00  0.00    +0.079 C 
ENDROOT
BRANCH  15   4
ATOM      1  C   UNL     1      -1.572  -0.792  26.809  0.00  0.00    +0.074 C 
ATOM      2  C   UNL     1      -1.673  -0.839  25.991  0.00  0.00    +0.139 A 
ATOM      3  N   UNL     1      -1.060  -0.614  25.487  0.00  0.00    -0.235 NA
ATOM      4  C   UNL     1      -1.161  -0.660  24.669  0.00  0.00    +0.063 A 
ATOM      5  C   UNL     1      -1.874  -0.932  24.356  0.00  0.00    +0.034 A 
ATOM      6  C   UNL     1      -2.486  -1.157  24.860  0.00  0.00    +0.084 A 
ATOM      7  N   UNL     1      -2.386  -1.111  25.678  0.00  0.00    -0.231 NA
BRANCH   6   8
ATOM      8  C   UNL     1      -3.200  -1.429  24.548  0.00  0.00    +0.024 A 
ATOM      9  C   UNL     1      -3.328  -2.239  24.458  0.00  0.00    +0.036 A 
ATOM     10 BR   UNL     1      -2.743  -2.776  24.680  0.00  0.00    -0.049 Br
ATOM     11  C   UNL     1      -4.042  -2.512  24.145  0.00  0.00    +0.007 A 
ATOM     12  C   UNL     1      -4.627  -1.973  23.923  0.00  0.00    +0.001 A 
ATOM     13  C   UNL     1      -4.498  -1.164  24.013  0.00  0.00    +0.000 A 
ATOM     14  C   UNL     1      -3.785  -0.891  24.326  0.00  0.00    +0.002 A 
ENDBRANCH   6   8
ENDBRANCH  15   4
BRANCH  22  23
ATOM     23  C   UNL     1       1.217   0.193  22.712  0.00  0.00    +0.131 C 
BRANCH  23  24
ATOM     24  N   UNL     1       1.987   0.184  23.009  0.00  0.00    -0.200 NA
ATOM     25  C   UNL     1       2.627   0.125  22.493  0.00  0.00    +0.265 C 
ATOM     26  O   UNL     1       2.498   0.076  21.679  0.00  0.00    -0.268 OA
BRANCH  25  27
ATOM     27  C   UNL     1       3.396   0.115  22.789  0.00  0.00    +0.055 A 
ATOM     28  C   UNL     1       3.682  -0.556  23.175  0.00  0.00    +0.004 A 
ATOM     29  C   UNL     1       4.451  -0.566  23.471  0.00  0.00    -0.004 A 
ATOM     30  C   UNL     1       4.936   0.096  23.383  0.00  0.00    -0.023 A 
ATOM     31  C   UNL     1       4.650   0.767  22.998  0.00  0.00    -0.004 A 
ATOM     32  C   UNL     1       3.882   0.777  22.701  0.00  0.00    +0.004 A 
BRANCH  30  33
ATOM     33  C   UNL     1       5.706   0.087  23.680  0.00  0.00    +0.019 C 
ATOM     34  C   UNL     1       6.475   0.078  23.977  0.00  0.00    +0.004 C 
ATOM     35  C   UNL     1       5.960  -0.319  23.009  0.00  0.00    +0.004 C 
ATOM     36  C   UNL     1       5.451   0.493  24.351  0.00  0.00    +0.004 C 
ENDBRANCH  30  33
ENDBRANCH  25  27
ENDBRANCH  23  24
ENDBRANCH  22  23
TORSDOF 6
ENDMDL
MODEL 3
REMARK VINA RESULT:     -10.0      3.275      4.994
REMARK  Name = 
REMARK  6 active torsions:
REMARK  status: ('A' for Active; 'I' for Inactive)
REMARK    1  A    between atoms: C_4  and  C_15
REMARK    2  A    between atoms: C_6  and  C_8
REMARK    3  A    between atoms: C_22  and  C_23
REMARK    4  A    between atoms: C_23  and  N_24
REMARK    5  A    between atoms: C_25  and  C_27
REMARK    6  A    between atoms: C_30  and  C_33
REMARK                            x       y       z     vdW  Elec       q    Type
REMARK                         _______ _______ _______ _____ _____    ______ ____
ROOT
ATOM     15  C   UNL     1      -1.300   2.249  25.153  0.00  0.00    +0.056 C 
ATOM     16  C   UNL     1      -1.586   1.750  24.630  0.00  0.00    +0.078 C 
ATOM     17  N   UNL     1      -1.003   1.586  25.190  0.00  0.00    -0.272 NA
ATOM     18  C   UNL     1      -0.845   2.466  25.738  0.00  0.00    +0.072 C 
ATOM     19  C   UNL     1      -0.536   2.793  26.212  0.00  0.00    +0.018 C 
ATOM     20  C   UNL     1      -0.727   2.081  25.701  0.00  0.00    +0.010 C 
ATOM     21  C   UNL     1      -0.276   1.349  25.874  0.00  0.00    +0.018 C 
ATOM     22  C   UNL     1      -0.530   0.828  25.376  0.00  0.00    +0.079 C 
ENDROOT
BRANCH  15   4
ATOM      1  C   UNL     1      -0.914   5.068  24.873  0.00  0.00    +0.074 C 
ATOM      2  C   UNL     1      -1.413   4.425  25.011  0.00  0.00    +0.139 A 
ATOM      3  N   UNL     1      -1.108   3.659  25.013  0.00  0.00    -0.235 NA
ATOM      4  C   UNL     1      -1.606   3.016  25.151  0.00  0.00    +0.063 A 
ATOM      5  C   UNL     1      -2.410   3.139  25.286  0.00  0.00    +0.034 A 
ATOM      6  C   UNL     1      -2.716   3.905  25.284  0.00  0.00    +0.084 A 
ATOM      7  N   UNL     1      -2.218   4.548  25.146  0.00  0.00    -0.231 NA
BRANCH   6   8
ATOM      8  C   UNL     1      -3.520   4.029  25.420  0.00  0.00    +0.024 A 
ATOM      9  C   UNL     1      -4.051   4.022  24.787  0.00  0.00    +0.036 A 
ATOM     10 BR   UNL     1      -3.776   3.891  24.021  0.00  0.00    -0.049 Br
ATOM     11  C   UNL     1      -4.855   4.147  24.922  0.00  0.00    +0.007 A 
ATOM     12  C   UNL     1      -5.129   4.278  25.690  0.00  0.00    +0.001 A 
ATOM     13  C   UNL     1      -4.599   4.284  26.321  0.00  0.00    +0.000 A 
ATOM     14  C   UNL     1      -3.794   4.160  26.186  0.00  0.00    +0.002 A 
ENDBRANCH   6   8
ENDBRANCH  15   4
BRANCH  22  23
ATOM     23  C   UNL     1      -0.434   0.043  25.144  0.00  0.00    +0.131 C 
BRANCH  23  24
ATOM     24  N   UNL     1      -1.089  -0.405  24.920  0.00  0.00    -0.200 NA
ATOM     25  C   UNL     1      -1.111  -1.213  25.083  0.00  0.00    +0.265 C 
ATOM     26  O   UNL     1      -0.478  -1.573  25.470  0.00  0.00    -0.268 OA
BRANCH  25  27
ATOM     27  C   UNL     1      -1.766  -1.661  24.859  0.00  0.00    +0.055 A 
ATOM     28  C   UNL     1      -1.689  -2.243  24.279  0.00  0.00    +0.004 A 
ATOM     29  C   UNL     1      -2.345  -2.691  24.054  0.00  0.00    -0.004 A 
ATOM     30  C   UNL     1      -3.077  -2.557  24.410  0.00  0.00    -0.023 A 
ATOM     31  C   UNL     1      -3.154  -1.975  24.990  0.00  0.00    -0.004 A 
ATOM     32  C   UNL     1      -2.499  -1.527  25.214  0.00  0.00    +0.004 A 
BRANCH  30  33
ATOM     33  C   UNL     1      -3.733  -3.005  24.186  0.00  0.00    +0.019 C 
ATOM     34  C   UNL     1      -4.388  -3.453  23.963  0.00  0.00    +0.004 C 
ATOM     35  C   UNL     1      -4.057  -2.345  23.813  0.00  0.00    +0.004 C 
ATOM     36  C   UNL     1      -3.408  -3.665  24.559  0.00  0.00    +0.004 C 
ENDBRANCH  30  33
ENDBRANCH  25  27
ENDBRANCH  23  24
ENDBRANCH  22  23
TORSDOF 6
ENDMDL
MODEL 4
REMARK VINA RESULT:      -8.9      3.106      6.593
REMARK  Name = 
REMARK  6 active torsions:
REMARK  status: ('A' for Active; 'I' for Inactive)
REMARK    1  A    between atoms: C_4  and  C_15
REMARK    2  A    between atoms: C_6  and  C_8
REMARK    3  A    between atoms: C_22  and  C_23
REMARK    4  A    between atoms: C_23  and  N_24
REMARK    5  A    between atoms: C_25  and  C_27
REMARK    6  A    between atoms: C_30  and  C_33
REMARK                            x       y       z     vdW  Elec       q    Type
REMARK                         _______ _______ _______ _____ _____    ______ ____
ROOT
ATOM     15  C   UNL     1      -1.114   0.117  24.813  0.00  0.00    +0.056 C 
ATOM     16  C   UNL     1      -1.620   0.513  25.252  0.00  0.00    +0.078 C 
ATOM     17  N   UNL     1      -1.085   0.837  24.713  0.00  0.00    -0.272 NA
ATOM     18  C   UNL     1      -0.552   0.039  24.289  0.00  0.00    +0.072 C 
ATOM     19  C   UNL     1      -0.096  -0.185  23.879  0.00  0.00    +0.018 C 
ATOM     20  C   UNL     1      -0.592   0.442  24.286  0.00  0.00    +0.010 C 
ATOM     21  C   UNL     1      -0.432   1.272  24.052  0.00  0.00    +0.018 C 
ATOM     22  C   UNL     1      -0.913   1.698  24.465  0.00  0.00    +0.079 C 
ENDROOT
BRANCH  15   4
ATOM      1  C   UNL     1       0.247  -2.294  25.524  0.00  0.00    +0.074 C 
ATOM      2  C   UNL     1      -0.429  -1.910  25.246  0.00  0.00    +0.139 A 
ATOM      3  N   UNL     1      -0.434  -1.089  25.169  0.00  0.00    -0.235 NA
ATOM      4  C   UNL     1      -1.109  -0.705  24.891  0.00  0.00    +0.063 A 
ATOM      5  C   UNL     1      -1.779  -1.142  24.691  0.00  0.00    +0.034 A 
ATOM      6  C   UNL     1      -1.774  -1.963  24.768  0.00  0.00    +0.084 A 
ATOM      7  N   UNL     1      -1.100  -2.347  25.046  0.00  0.00    -0.231 NA
BRANCH   6   8
ATOM      8  C   UNL     1      -2.444  -2.401  24.568  0.00  0.00    +0.024 A 
ATOM      9  C   UNL     1      -3.074  -2.457  25.099  0.00  0.00    +0.036 A 
ATOM     10 BR   UNL     1      -3.032  -2.076  25.829  0.00  0.00    -0.049 Br
ATOM     11  C   UNL     1      -3.744  -2.895  24.900  0.00  0.00    +0.007 A 
ATOM     12  C   UNL     1      -3.785  -3.276  24.169  0.00  0.00    +0.001 A 
ATOM     13  C   UNL     1      -3.156  -3.220  23.638  0.00  0.00    +0.000 A 
ATOM     14  C   UNL     1      -2.486  -2.782  23.838  0.00  0.00    +0.002 A 
ENDBRANCH   6   8
ENDBRANCH  15   4
BRANCH  22  23
ATOM     23  C   UNL     1      -1.143   2.477  24.604  0.00  0.00    +0.131 C 
BRANCH  23  24
ATOM     24  N   UNL     1      -1.934   2.655  24.753  0.00  0.00    -0.200 NA
ATOM     25  C   UNL     1      -2.162   3.435  24.894  0.00  0.00    +0.265 C 
ATOM     26  O   UNL     1      -1.599   4.037  24.888  0.00  0.00    -0.268 OA
BRANCH  25  27
ATOM     27  C   UNL     1      -2.954   3.612  25.043  0.00  0.00    +0.055 A 
ATOM     28  C   UNL     1      -3.503   3.597  24.427  0.00  0.00    +0.004 A 
ATOM     29  C   UNL     1      -4.295   3.774  24.575  0.00  0.00    -0.004 A 
ATOM     30  C   UNL     1      -4.538   3.967  25.339  0.00  0.00    -0.023 A 
ATOM     31  C   UNL     1      -3.989   3.983  25.955  0.00  0.00    -0.004 A 
ATOM     32  C   UNL     1      -3.198   3.806  25.807  0.00  0.00    +0.004 A 
BRANCH  30  33
ATOM     33  C   UNL     1      -5.330   4.145  25.489  0.00  0.00    +0.019 C 
ATOM     34  C   UNL     1      -6.122   4.322  25.638  0.00  0.00    +0.004 C 
ATOM     35  C   UNL     1      -5.181   4.941  25.336  0.00  0.00    +0.004 C 
ATOM     36  C   UNL     1      -5.479   3.348  25.642  0.00  0.00    +0.004 C 
ENDBRANCH  30  33
ENDBRANCH  25  27
ENDBRANCH  23  24
ENDBRANCH  22  23
TORSDOF 6
ENDMDL
