MODEL 1
REMARK VINA RESULT:      -8.1      0.000      0.000
REMARK  Name = 
REMARK  1 active torsions:
REMARK  status: ('A' for Active; 'I' for Inactive)
REMARK    1  A    between atoms: C_2  and  C_3
REMARK                            x       y       z     vdW  Elec       q    Type
REMARK                         _______ _______ _______ _____ _____    ______ ____
ROOT
ATOM      1  O   UNL     1      -2.702   0.483  23.908  0.00  0.00    -0.275 OA
ATOM      2  C   UNL     1      -3.440   0.423  24.270  0.00  0.00    +0.225 C 
ATOM      6  N   UNL     1      -3.829   1.103  24.530  0.00  0.00    -0.276 N 
ATOM      7  C   UNL     1      -3.479   1.843  24.427  0.00  0.00    +0.115 C 
ATOM      8  C   UNL     1      -3.868   2.522  24.686  0.00  0.00    +0.117 C 
ATOM      9  N   UNL     1      -4.607   2.463  25.048  0.00  0.00    -0.259 N 
ATOM     10  C   UNL     1      -4.957   1.723  25.151  0.00  0.00    +0.118 C 
ATOM     11  C   UNL     1      -5.683   1.834  25.524  0.00  0.00    +0.138 C 
ATOM     12  N   UNL     1      -5.783   2.643  25.652  0.00  0.00    -0.187 NA
ATOM     13  C   UNL     1      -5.118   3.031  25.358  0.00  0.00    +0.323 C 
ATOM     14  O   UNL     1      -4.986   3.846  25.371  0.00  0.00    -0.251 OA
ATOM     15  C   UNL     1      -4.568   1.042  24.892  0.00  0.00    +0.115 C 
ENDROOT
BRANCH   2   3
ATOM      3  C   UNL     1      -3.790  -0.317  24.373  0.00  0.00    +0.077 C 
ATOM      4  C   UNL     1      -3.934  -0.980  24.843  0.00  0.00    +0.010 C 
ATOM      5  C   UNL     1      -4.251  -0.936  24.083  0.00  0.00    +0.010 C 
ENDBRANCH   2   3
TORSDOF 1
ENDMDL
MODEL 2
REMARK VINA RESULT:      -7.8      1.760      2.932
REMARK  Name = 
REMARK  1 active torsions:
REMARK  status: ('A' for Active; 'I' for Inactive)
REMARK    1  A    between atoms: C_2  and  C_3
REMARK                            x       y       z     vdW  Elec       q    Type
REMARK                         _______ _______ _______ _____ _____    ______ ____
ROOT
ATOM      1  O   UNL     1      -1.772   2.768  24.040  0.00  0.00    -0.275 OA
ATOM      2  C   UNL     1      -2.252   3.165  24.580  0.00  0.00    +0.225 C 
ATOM      6  N   UNL     1      -3.041   2.941  24.674  0.00  0.00    -0.276 N 
ATOM      7  C   UNL     1      -3.350   2.320  24.226  0.00  0.00    +0.115 C 
ATOM      8  C   UNL     1      -4.138   2.097  24.319  0.00  0.00    +0.117 C 
ATOM      9  N   UNL     1      -4.619   2.493  24.860  0.00  0.00    -0.259 N 
ATOM     10  C   UNL     1      -4.310   3.114  25.308  0.00  0.00    +0.118 C 
ATOM     11  C   UNL     1      -4.911   3.400  25.794  0.00  0.00    +0.138 C 
ATOM     12  N   UNL     1      -5.591   2.957  25.647  0.00  0.00    -0.187 NA
ATOM     13  C   UNL     1      -5.410   2.397  25.070  0.00  0.00    +0.323 C 
ATOM     14  O   UNL     1      -5.929   1.837  24.757  0.00  0.00    -0.251 OA
ATOM     15  C   UNL     1      -3.521   3.338  25.214  0.00  0.00    +0.115 C 
ENDROOT
BRANCH   2   3
ATOM      3  C   UNL     1      -1.944   3.785  25.028  0.00  0.00    +0.077 C 
ATOM      4  C   UNL     1      -1.783   4.589  25.119  0.00  0.00    +0.010 C 
ATOM      5  C   UNL     1      -1.571   4.056  25.712  0.00  0.00    +0.010 C 
ENDBRANCH   2   3
TORSDOF 1
ENDMDL
MODEL 3
REMARK VINA RESULT:      -7.7      1.354      1.936
REMARK  Name = 
REMARK  1 active torsions:
REMARK  status: ('A' for Active; 'I' for Inactive)
REMARK    1  A    between atoms: C_2  and  C_3
REMARK                            x       y       z     vdW  Elec       q    Type
REMARK                         _______ _______ _______ _____ _____    ______ ____
ROOT
ATOM      1  O   UNL     1      -1.740  -1.479  24.554  0.00  0.00    -0.275 OA
ATOM      2  C   UNL     1      -2.546  -1.326  24.636  0.00  0.00    +0.225 C 
ATOM      6  N   UNL     1      -2.815  -0.546  24.680  0.00  0.00    -0.276 N 
ATOM      7  C   UNL     1      -2.277   0.078  24.643  0.00  0.00    +0.115 C 
ATOM      8  C   UNL     1      -2.545   0.857  24.688  0.00  0.00    +0.117 C 
ATOM      9  N   UNL     1      -3.351   1.012  24.770  0.00  0.00    -0.259 N 
ATOM     10  C   UNL     1      -3.889   0.387  24.807  0.00  0.00    +0.118 C 
ATOM     11  C   UNL     1      -4.645   0.707  24.888  0.00  0.00    +0.138 C 
ATOM     12  N   UNL     1      -4.575   1.528  24.901  0.00  0.00    -0.187 NA
ATOM     13  C   UNL     1      -3.775   1.716  24.828  0.00  0.00    +0.323 C 
ATOM     14  O   UNL     1      -3.455   2.477  24.816  0.00  0.00    -0.251 OA
ATOM     15  C   UNL     1      -3.621  -0.392  24.762  0.00  0.00    +0.115 C 
ENDROOT
BRANCH   2   3
ATOM      3  C   UNL     1      -3.084  -1.950  24.673  0.00  0.00    +0.077 C 
ATOM      4  C   UNL     1      -3.618  -2.456  24.299  0.00  0.00    +0.010 C 
ATOM      5  C   UNL     1      -3.483  -2.524  25.110  0.00  0.00    +0.010 C 
ENDBRANCH   2   3
TORSDOF 1
ENDMDL
MODEL 4
REMARK VINA RESULT:      -7.6      2.697      3.693
REMARK  Name = 
REMARK  1 active torsions:
REMARK  status: ('A' for Active; 'I' for Inactive)
REMARK    1  A    between atoms: C_2  and  C_3
REMARK                            x       y       z     vdW  Elec       q    Type
REMARK                         _______ _______ _______ _____ _____    ______ ____
ROOT
ATOM      1  O   UNL     1      -4.328  -0.612  24.699  0.00  0.00    -0.275 OA
ATOM      2  C   UNL     1      -3.625  -1.041  24.655  0.00  0.00    +0.225 C 
ATOM      6  N   UNL     1      -2.900  -0.645  24.657  0.00  0.00    -0.276 N 
ATOM      7  C   UNL     1      -2.880   0.179  24.703  0.00  0.00    +0.115 C 
ATOM      8  C   UNL     1      -2.157   0.574  24.705  0.00  0.00    +0.117 C 
ATOM      9  N   UNL     1      -1.452   0.146  24.661  0.00  0.00    -0.259 N 
ATOM     10  C   UNL     1      -1.472  -0.677  24.615  0.00  0.00    +0.118 C 
ATOM     11  C   UNL     1      -0.695  -0.949  24.578  0.00  0.00    +0.138 C 
ATOM     12  N   UNL     1      -0.194  -0.295  24.601  0.00  0.00    -0.187 NA
ATOM     13  C   UNL     1      -0.663   0.382  24.652  0.00  0.00    +0.323 C 
ATOM     14  O   UNL     1      -0.389   1.160  24.689  0.00  0.00    -0.251 OA
ATOM     15  C   UNL     1      -2.197  -1.073  24.613  0.00  0.00    +0.115 C 
ENDROOT
BRANCH   2   3
ATOM      3  C   UNL     1      -3.645  -1.864  24.609  0.00  0.00    +0.077 C 
ATOM      4  C   UNL     1      -3.756  -2.552  24.168  0.00  0.00    +0.010 C 
ATOM      5  C   UNL     1      -3.569  -2.602  24.970  0.00  0.00    +0.010 C 
ENDBRANCH   2   3
TORSDOF 1
ENDMDL
MODEL 5
REMARK VINA RESULT:      -7.5      1.845      2.626
REMARK  Name = 
REMARK  1 active torsions:
REMARK  status: ('A' for Active; 'I' for Inactive)
REMARK    1  A    between atoms: C_2  and  C_3
REMARK                            x       y       z     vdW  Elec       q    Type
REMARK                         _______ _______ _______ _____ _____    ______ ____
ROOT
ATOM      1  O   UNL     1      -5.166   2.271  24.441  0.00  0.00    -0.275 OA
ATOM      2  C   UNL     1      -4.410   1.992  24.617  0.00  0.00    +0.225 C 
ATOM      6  N   UNL     1      -3.804   2.524  24.791  0.00  0.00    -0.276 N 
ATOM      7  C   UNL     1      -3.954   3.336  24.788  0.00  0.00    +0.115 C 
ATOM      8  C   UNL     1      -3.348   3.867  24.961  0.00  0.00    +0.117 C 
ATOM      9  N   UNL     1      -2.592   3.589  25.137  0.00  0.00    -0.259 N 
ATOM     10  C   UNL     1      -2.442   2.778  25.141  0.00  0.00    +0.118 C 
ATOM     11  C   UNL     1      -1.648   2.666  25.334  0.00  0.00    +0.138 C 
ATOM     12  N   UNL     1      -1.307   3.408  25.450  0.00  0.00    -0.187 NA
ATOM     13  C   UNL     1      -1.891   3.978  25.328  0.00  0.00    +0.323 C 
ATOM     14  O   UNL     1      -1.790   4.795  25.388  0.00  0.00    -0.251 OA
ATOM     15  C   UNL     1      -3.048   2.245  24.967  0.00  0.00    +0.115 C 
ENDROOT
BRANCH   2   3
ATOM      3  C   UNL     1      -4.260   1.180  24.620  0.00  0.00    +0.077 C 
ATOM      4  C   UNL     1      -4.282   0.452  25.006  0.00  0.00    +0.010 C 
ATOM      5  C   UNL     1      -3.979   0.505  24.241  0.00  0.00    +0.010 C 
ENDBRANCH   2   3
TORSDOF 1
ENDMDL
MODEL 6
REMARK VINA RESULT:      -7.5      1.191      3.144
REMARK  Name = 
REMARK  1 active torsions:
REMARK  status: ('A' for Active; 'I' for Inactive)
REMARK    1  A    between atoms: C_2  and  C_3
REMARK                            x       y       z     vdW  Elec       q    Type
REMARK                         _______ _______ _______ _____ _____    ______ ____
ROOT
ATOM      1  O   UNL     1      -4.300   2.589  24.108  0.00  0.00    -0.275 OA
ATOM      2  C   UNL     1      -4.529   1.932  24.551  0.00  0.00    +0.225 C 
ATOM      6  N   UNL     1      -4.039   1.269  24.588  0.00  0.00    -0.276 N 
ATOM      7  C   UNL     1      -3.321   1.263  24.182  0.00  0.00    +0.115 C 
ATOM      8  C   UNL     1      -2.832   0.600  24.218  0.00  0.00    +0.117 C 
ATOM      9  N   UNL     1      -3.060  -0.058  24.661  0.00  0.00    -0.259 N 
ATOM     10  C   UNL     1      -3.778  -0.052  25.068  0.00  0.00    +0.118 C 
ATOM     11  C   UNL     1      -3.857  -0.775  25.457  0.00  0.00    +0.138 C 
ATOM     12  N   UNL     1      -3.188  -1.227  25.291  0.00  0.00    -0.187 NA
ATOM     13  C   UNL     1      -2.696  -0.784  24.800  0.00  0.00    +0.323 C 
ATOM     14  O   UNL     1      -1.966  -1.025  24.499  0.00  0.00    -0.251 OA
ATOM     15  C   UNL     1      -4.268   0.612  25.031  0.00  0.00    +0.115 C 
ENDROOT
BRANCH   2   3
ATOM      3  C   UNL     1      -5.247   1.938  24.958  0.00  0.00    +0.077 C 
ATOM      4  C   UNL     1      -5.681   2.107  25.639  0.00  0.00    +0.010 C 
ATOM      5  C   UNL     1      -6.056   1.779  24.981  0.00  0.00    +0.010 C 
ENDBRANCH   2   3
TORSDOF 1
ENDMDL
