MODEL 1
REMARK VINA RESULT:     -15.2      0.000      0.000
REMARK  Name = 
REMARK  4 active torsions:
REMARK  status: ('A' for Active; 'I' for Inactive)
REMARK    1  A    between atoms: O_2  and  C_3
REMARK    2  A    between atoms: C_8  and  N_9
REMARK    3  A    between atoms: N_12  and  C_13
REMARK    4  A    between atoms: C_23  and  C_25
REMARK                            x       y       z     vdW  Elec       q    Type
REMARK                         _______ _______ _______ _____ _____    ______ ____
ROOT
ATOM     13  C   UNL     1      -3.803   1.409  24.189  0.00  0.00    +0.131 A 
ATOM     14  C   UNL     1      -4.598   1.189  24.225  0.00  0.00    +0.023 A 
ATOM     15  C   UNL     1      -5.131   1.639  24.666  0.00  0.00    +0.014 A 
ATOM     16  C   UNL     1      -4.869   2.309  25.070  0.00  0.00    +0.041 A 
ATOM     17  C   UNL     1      -5.181   2.982  25.612  0.00  0.00    +0.058 C 
ATOM     18  C   UNL     1      -5.769   3.217  25.916  0.00  0.00    +0.011 C 
ATOM     19  C   UNL     1      -4.984   3.431  25.878  0.00  0.00    +0.043 C 
ATOM     20  C   UNL     1      -4.091   3.847  25.954  0.00  0.00    +0.096 C 
ATOM     21  N   UNL     1      -3.650   3.318  25.481  0.00  0.00    -0.276 N 
ATOM     22  C   UNL     1      -4.324   3.395  25.696  0.00  0.00    +0.099 C 
ATOM     23  C   UNL     1      -2.997   2.990  25.097  0.00  0.00    +0.249 C 
ATOM     24  O   UNL     1      -3.086   2.306  24.642  0.00  0.00    -0.270 OA
ATOM     31  C   UNL     1      -4.649   2.732  25.311  0.00  0.00    +0.110 C 
ATOM     32  N   UNL     1      -4.075   2.529  25.033  0.00  0.00    -0.298 N 
ATOM     33  C   UNL     1      -3.542   2.079  24.593  0.00  0.00    +0.276 A 
ATOM     34  O   UNL     1      -2.738   2.089  24.408  0.00  0.00    -0.266 OA
ENDROOT
BRANCH  23  25
ATOM     25  C   UNL     1      -2.256   3.345  25.167  0.00  0.00    +0.054 A 
ATOM     26  C   UNL     1      -1.696   3.033  25.686  0.00  0.00    +0.005 A 
ATOM     27  C   UNL     1      -0.954   3.388  25.757  0.00  0.00    +0.000 A 
ATOM     28  C   UNL     1      -0.773   4.056  25.307  0.00  0.00    +0.000 A 
ATOM     29  C   UNL     1      -1.332   4.368  24.788  0.00  0.00    +0.000 A 
ATOM     30  C   UNL     1      -2.074   4.013  24.718  0.00  0.00    +0.005 A 
ENDBRANCH  23  25
BRANCH  13  12
ATOM      9  N   UNL     1      -3.777  -0.232  24.354  0.00  0.00    -0.158 NA
ATOM     10  C   UNL     1      -3.257   0.139  23.831  0.00  0.00    +0.348 C 
ATOM     11  O   UNL     1      -2.724  -0.312  23.390  0.00  0.00    -0.248 OA
ATOM     12  N   UNL     1      -3.271   0.959  23.749  0.00  0.00    -0.156 NA
BRANCH   9   8
ATOM      3  C   UNL     1      -3.543  -1.392  25.156  0.00  0.00    +0.154 A 
ATOM      4  C   UNL     1      -3.529  -2.213  25.239  0.00  0.00    +0.038 A 
ATOM      5  C   UNL     1      -3.734  -2.695  24.601  0.00  0.00    +0.003 A 
ATOM      6  C   UNL     1      -3.954  -2.356  23.882  0.00  0.00    +0.002 A 
ATOM      7  C   UNL     1      -3.968  -1.535  23.799  0.00  0.00    +0.020 A 
ATOM      8  C   UNL     1      -3.763  -1.054  24.436  0.00  0.00    +0.109 A 
BRANCH   3   2
ATOM      1  C   UNL     1      -3.141  -1.248  26.519  0.00  0.00    +0.253 C 
ATOM      2  O   UNL     1      -3.339  -0.910  25.793  0.00  0.00    -0.470 OA
ENDBRANCH   3   2
ENDBRANCH   9   8
ENDBRANCH  13  12
TORSDOF 4
ENDMDL
MODEL 2
REMARK VINA RESULT:     -14.2      1.204      4.061
REMARK  Name = 
REMARK  4 active torsions:
REMARK  status: ('A' for Active; 'I' for Inactive)
REMARK    1  A    between atoms: O_2  and  C_3
REMARK    2  A    between atoms: C_8  and  N_9
REMARK    3  A    between atoms: N_12  and  C_13
REMARK    4  A    between atoms: C_23  and  C_25
REMARK                            x       y       z     vdW  Elec       q    Type
REMARK                         _______ _______ _______ _____ _____    ______ ____
ROOT
ATOM     13  C   UNL     1      -3.325   1.942  23.781  0.00  0.00    +0.131 A 
ATOM     14  C   UNL     1      -3.633   2.706  23.826  0.00  0.00    +0.023 A 
ATOM     15  C   UNL     1      -4.338   2.843  24.232  0.00  0.00    +0.014 A 
ATOM     16  C   UNL     1      -4.735   2.216  24.591  0.00  0.00    +0.041 A 
ATOM     17  C   UNL     1      -5.490   2.039  25.085  0.00  0.00    +0.058 C 
ATOM     18  C   UNL     1      -6.049   2.354  25.368  0.00  0.00    +0.011 C 
ATOM     19  C   UNL     1      -5.743   1.601  25.321  0.00  0.00    +0.043 C 
ATOM     20  C   UNL     1      -5.536   0.636  25.375  0.00  0.00    +0.096 C 
ATOM     21  N   UNL     1      -4.822   0.621  24.941  0.00  0.00    -0.276 N 
ATOM     22  C   UNL     1      -5.305   1.104  25.146  0.00  0.00    +0.099 C 
ATOM     23  C   UNL     1      -4.145   0.313  24.585  0.00  0.00    +0.249 C 
ATOM     24  O   UNL     1      -3.629   0.813  24.177  0.00  0.00    -0.270 OA
ATOM     31  C   UNL     1      -4.952   1.777  24.805  0.00  0.00    +0.110 C 
ATOM     32  N   UNL     1      -4.428   1.452  24.545  0.00  0.00    -0.298 N 
ATOM     33  C   UNL     1      -3.722   1.315  24.140  0.00  0.00    +0.276 A 
ATOM     34  O   UNL     1      -3.233   0.676  23.960  0.00  0.00    -0.266 OA
ENDROOT
BRANCH  23  25
ATOM     25  C   UNL     1      -3.983  -0.494  24.636  0.00  0.00    +0.054 A 
ATOM     26  C   UNL     1      -4.232  -1.004  24.038  0.00  0.00    +0.005 A 
ATOM     27  C   UNL     1      -4.070  -1.812  24.089  0.00  0.00    +0.000 A 
ATOM     28  C   UNL     1      -3.658  -2.108  24.739  0.00  0.00    +0.000 A 
ATOM     29  C   UNL     1      -3.408  -1.599  25.337  0.00  0.00    +0.000 A 
ATOM     30  C   UNL     1      -3.570  -0.791  25.286  0.00  0.00    +0.005 A 
ENDBRANCH  23  25
BRANCH  13  12
ATOM      9  N   UNL     1      -1.953   2.750  24.215  0.00  0.00    -0.158 NA
ATOM     10  C   UNL     1      -1.934   2.209  23.592  0.00  0.00    +0.348 C 
ATOM     11  O   UNL     1      -1.228   2.073  23.186  0.00  0.00    -0.248 OA
ATOM     12  N   UNL     1      -2.620   1.806  23.375  0.00  0.00    -0.156 NA
BRANCH   9   8
ATOM      3  C   UNL     1      -0.975   3.088  25.201  0.00  0.00    +0.154 A 
ATOM      4  C   UNL     1      -0.289   3.492  25.418  0.00  0.00    +0.038 A 
ATOM      5  C   UNL     1       0.105   3.961  24.866  0.00  0.00    +0.003 A 
ATOM      6  C   UNL     1      -0.187   4.027  24.097  0.00  0.00    +0.002 A 
ATOM      7  C   UNL     1      -0.872   3.623  23.880  0.00  0.00    +0.020 A 
ATOM      8  C   UNL     1      -1.267   3.154  24.432  0.00  0.00    +0.109 A 
BRANCH   3   2
ATOM      1  C   UNL     1      -1.055   2.517  26.508  0.00  0.00    +0.253 C 
ATOM      2  O   UNL     1      -1.370   2.619  25.752  0.00  0.00    -0.470 OA
ENDBRANCH   3   2
ENDBRANCH   9   8
ENDBRANCH  13  12
TORSDOF 4
ENDMDL
MODEL 3
REMARK VINA RESULT:     -13.6      0.909      2.427
REMARK  Name = 
REMARK  4 active torsions:
REMARK  status: ('A' for Active; 'I' for Inactive)
REMARK    1  A    between atoms: O_2  and  C_3
REMARK    2  A    between atoms: C_8  and  N_9
REMARK    3  A    between atoms: N_12  and  C_13
REMARK    4  A    between atoms: C_23  and  C_25
REMARK                            x       y       z     vdW  Elec       q    Type
REMARK                         _______ _______ _______ _____ _____    ______ ____
ROOT
ATOM     13  C   UNL     1      -2.743   1.064  24.045  0.00  0.00    +0.131 A 
ATOM     14  C   UNL     1      -1.970   0.779  24.002  0.00  0.00    +0.023 A 
ATOM     15  C   UNL     1      -1.362   1.173  24.397  0.00  0.00    +0.014 A 
ATOM     16  C   UNL     1      -1.528   1.851  24.835  0.00  0.00    +0.041 A 
ATOM     17  C   UNL     1      -1.112   2.483  25.358  0.00  0.00    +0.058 C 
ATOM     18  C   UNL     1      -0.481   2.661  25.608  0.00  0.00    +0.011 C 
ATOM     19  C   UNL     1      -1.245   2.940  25.648  0.00  0.00    +0.043 C 
ATOM     20  C   UNL     1      -2.090   3.424  25.817  0.00  0.00    +0.096 C 
ATOM     21  N   UNL     1      -2.616   2.945  25.378  0.00  0.00    -0.276 N 
ATOM     22  C   UNL     1      -1.920   2.962  25.529  0.00  0.00    +0.099 C 
ATOM     23  C   UNL     1      -3.327   2.681  25.053  0.00  0.00    +0.249 C 
ATOM     24  O   UNL     1      -3.338   2.004  24.580  0.00  0.00    -0.270 OA
ATOM     31  C   UNL     1      -1.689   2.284  25.104  0.00  0.00    +0.110 C 
ATOM     32  N   UNL     1      -2.301   2.136  24.879  0.00  0.00    -0.298 N 
ATOM     33  C   UNL     1      -2.909   1.742  24.484  0.00  0.00    +0.276 A 
ATOM     34  O   UNL     1      -3.723   1.822  24.377  0.00  0.00    -0.266 OA
ENDROOT
BRANCH  23  25
ATOM     25  C   UNL     1      -4.026   3.093  25.200  0.00  0.00    +0.054 A 
ATOM     26  C   UNL     1      -4.208   3.767  24.761  0.00  0.00    +0.005 A 
ATOM     27  C   UNL     1      -4.907   4.179  24.908  0.00  0.00    +0.000 A 
ATOM     28  C   UNL     1      -5.425   3.917  25.495  0.00  0.00    +0.000 A 
ATOM     29  C   UNL     1      -5.244   3.243  25.934  0.00  0.00    +0.000 A 
ATOM     30  C   UNL     1      -4.544   2.830  25.786  0.00  0.00    +0.005 A 
ENDBRANCH  23  25
BRANCH  13  12
ATOM      9  N   UNL     1      -3.053  -0.522  24.381  0.00  0.00    -0.158 NA
ATOM     10  C   UNL     1      -3.505  -0.123  23.817  0.00  0.00    +0.348 C 
ATOM     11  O   UNL     1      -4.113  -0.518  23.421  0.00  0.00    -0.248 OA
ATOM     12  N   UNL     1      -3.350   0.669  23.650  0.00  0.00    -0.156 NA
BRANCH   9   8
ATOM      3  C   UNL     1      -3.218  -1.577  25.330  0.00  0.00    +0.154 A 
ATOM      4  C   UNL     1      -3.374  -2.370  25.498  0.00  0.00    +0.038 A 
ATOM      5  C   UNL     1      -3.520  -2.900  24.883  0.00  0.00    +0.003 A 
ATOM      6  C   UNL     1      -3.510  -2.638  24.101  0.00  0.00    +0.002 A 
ATOM      7  C   UNL     1      -3.355  -1.846  23.933  0.00  0.00    +0.020 A 
ATOM      8  C   UNL     1      -3.209  -1.315  24.548  0.00  0.00    +0.109 A 
BRANCH   3   2
ATOM      1  C   UNL     1      -3.036  -1.317  26.723  0.00  0.00    +0.253 C 
ATOM      2  O   UNL     1      -3.072  -1.047  25.944  0.00  0.00    -0.470 OA
ENDBRANCH   3   2
ENDBRANCH   9   8
ENDBRANCH  13  12
TORSDOF 4
ENDMDL
MODEL 4
REMARK VINA RESULT:     -13.1      1.519      2.831
REMARK  Name = 
REMARK  4 active torsions:
REMARK  status: ('A' for Active; 'I' for Inactive)
REMARK    1  A    between atoms: O_2  and  C_3
REMARK    2  A    between atoms: C_8  and  N_9
REMARK    3  A    between atoms: N_12  and  C_13
REMARK    4  A    between atoms: C_23  and  C_25
REMARK                            x       y       z     vdW  Elec       q    Type
REMARK                         _______ _______ _______ _____ _____    ______ ____
ROOT
ATOM     13  C   UNL     1      -2.377   0.779  24.647  0.00  0.00    +0.131 A 
ATOM     14  C   UNL     1      -1.805   0.619  24.075  0.00  0.00    +0.023 A 
ATOM     15  C   UNL     1      -1.806   1.034  23.362  0.00  0.00    +0.014 A 
ATOM     16  C   UNL     1      -2.379   1.609  23.221  0.00  0.00    +0.041 A 
ATOM     17  C   UNL     1      -2.644   2.211  22.579  0.00  0.00    +0.058 C 
ATOM     18  C   UNL     1      -2.477   2.440  21.937  0.00  0.00    +0.011 C 
ATOM     19  C   UNL     1      -3.041   2.595  22.504  0.00  0.00    +0.043 C 
ATOM     20  C   UNL     1      -3.793   2.923  23.054  0.00  0.00    +0.096 C 
ATOM     21  N   UNL     1      -3.691   2.442  23.730  0.00  0.00    -0.276 N 
ATOM     22  C   UNL     1      -3.375   2.538  23.099  0.00  0.00    +0.099 C 
ATOM     23  C   UNL     1      -3.834   2.129  24.480  0.00  0.00    +0.249 C 
ATOM     24  O   UNL     1      -3.345   1.535  24.779  0.00  0.00    -0.270 OA
ATOM     31  C   UNL     1      -2.771   1.970  23.181  0.00  0.00    +0.110 C 
ATOM     32  N   UNL     1      -2.952   1.770  23.793  0.00  0.00    -0.298 N 
ATOM     33  C   UNL     1      -2.951   1.355  24.506  0.00  0.00    +0.276 A 
ATOM     34  O   UNL     1      -3.393   1.331  25.202  0.00  0.00    -0.266 OA
ENDROOT
BRANCH  23  25
ATOM     25  C   UNL     1      -4.464   2.410  24.931  0.00  0.00    +0.054 A 
ATOM     26  C   UNL     1      -4.371   3.085  25.396  0.00  0.00    +0.005 A 
ATOM     27  C   UNL     1      -5.003   3.366  25.848  0.00  0.00    +0.000 A 
ATOM     28  C   UNL     1      -5.727   2.971  25.833  0.00  0.00    +0.000 A 
ATOM     29  C   UNL     1      -5.821   2.296  25.369  0.00  0.00    +0.000 A 
ATOM     30  C   UNL     1      -5.189   2.015  24.918  0.00  0.00    +0.005 A 
ENDBRANCH  23  25
BRANCH  13  12
ATOM      9  N   UNL     1      -2.562  -0.861  24.647  0.00  0.00    -0.158 NA
ATOM     10  C   UNL     1      -2.468  -0.456  25.360  0.00  0.00    +0.348 C 
ATOM     11  O   UNL     1      -2.466  -0.872  26.073  0.00  0.00    -0.248 OA
ATOM     12  N   UNL     1      -2.376   0.364  25.359  0.00  0.00    -0.156 NA
BRANCH   9   8
ATOM      3  C   UNL     1      -3.337  -2.019  24.331  0.00  0.00    +0.154 A 
ATOM      4  C   UNL     1      -3.430  -2.839  24.332  0.00  0.00    +0.038 A 
ATOM      5  C   UNL     1      -2.839  -3.320  24.649  0.00  0.00    +0.003 A 
ATOM      6  C   UNL     1      -2.156  -2.982  24.965  0.00  0.00    +0.002 A 
ATOM      7  C   UNL     1      -2.064  -2.162  24.964  0.00  0.00    +0.020 A 
ATOM      8  C   UNL     1      -2.654  -1.681  24.648  0.00  0.00    +0.109 A 
BRANCH   3   2
ATOM      1  C   UNL     1      -4.581  -1.877  23.644  0.00  0.00    +0.253 C 
ATOM      2  O   UNL     1      -3.926  -1.537  24.014  0.00  0.00    -0.470 OA
ENDBRANCH   3   2
ENDBRANCH   9   8
ENDBRANCH  13  12
TORSDOF 4
ENDMDL
MODEL 5
REMARK VINA RESULT:     -12.9      1.626      4.785
REMARK  Name = 
REMARK  4 active torsions:
REMARK  status: ('A' for Active; 'I' for Inactive)
REMARK    1  A    between atoms: O_2  and  C_3
REMARK    2  A    between atoms: C_8  and  N_9
REMARK    3  A    between atoms: N_12  and  C_13
REMARK    4  A    between atoms: C_23  and  C_25
REMARK                            x       y       z     vdW  Elec       q    Type
REMARK                         _______ _______ _______ _____ _____    ______ ____
ROOT
ATOM     13  C   UNL     1      -2.835   1.184  23.752  0.00  0.00    +0.131 A 
ATOM     14  C   UNL     1      -2.309   1.761  23.486  0.00  0.00    +0.023 A 
ATOM     15  C   UNL     1      -1.496   1.623  23.515  0.00  0.00    +0.014 A 
ATOM     16  C   UNL     1      -1.210   0.908  23.811  0.00  0.00    +0.041 A 
ATOM     17  C   UNL     1      -0.420   0.467  23.970  0.00  0.00    +0.058 C 
ATOM     18  C   UNL     1       0.275   0.544  23.912  0.00  0.00    +0.011 C 
ATOM     19  C   UNL     1      -0.247  -0.023  24.173  0.00  0.00    +0.043 C 
ATOM     20  C   UNL     1      -0.710  -0.819  24.531  0.00  0.00    +0.096 C 
ATOM     21  N   UNL     1      -1.503  -0.567  24.452  0.00  0.00    -0.276 N 
ATOM     22  C   UNL     1      -0.853  -0.310  24.318  0.00  0.00    +0.099 C 
ATOM     23  C   UNL     1      -2.327  -0.594  24.494  0.00  0.00    +0.249 C 
ATOM     24  O   UNL     1      -2.774   0.050  24.235  0.00  0.00    -0.270 OA
ATOM     31  C   UNL     1      -1.078   0.430  24.010  0.00  0.00    +0.110 C 
ATOM     32  N   UNL     1      -1.737   0.331  24.077  0.00  0.00    -0.298 N 
ATOM     33  C   UNL     1      -2.549   0.469  24.047  0.00  0.00    +0.276 A 
ATOM     34  O   UNL     1      -3.246   0.073  24.242  0.00  0.00    -0.266 OA
ENDROOT
BRANCH  23  25
ATOM     25  C   UNL     1      -2.703  -1.263  24.794  0.00  0.00    +0.054 A 
ATOM     26  C   UNL     1      -2.902  -1.302  25.593  0.00  0.00    +0.005 A 
ATOM     27  C   UNL     1      -3.279  -1.972  25.894  0.00  0.00    +0.000 A 
ATOM     28  C   UNL     1      -3.456  -2.604  25.394  0.00  0.00    +0.000 A 
ATOM     29  C   UNL     1      -3.257  -2.566  24.595  0.00  0.00    +0.000 A 
ATOM     30  C   UNL     1      -2.880  -1.896  24.294  0.00  0.00    +0.005 A 
ENDBRANCH  23  25
BRANCH  13  12
ATOM      9  N   UNL     1      -3.492   2.428  24.615  0.00  0.00    -0.158 NA
ATOM     10  C   UNL     1      -3.976   1.945  24.154  0.00  0.00    +0.348 C 
ATOM     11  O   UNL     1      -4.790   2.084  24.124  0.00  0.00    -0.248 OA
ATOM     12  N   UNL     1      -3.648   1.323  23.722  0.00  0.00    -0.156 NA
BRANCH   9   8
ATOM      3  C   UNL     1      -3.351   3.487  25.565  0.00  0.00    +0.154 A 
ATOM      4  C   UNL     1      -3.680   4.108  25.996  0.00  0.00    +0.038 A 
ATOM      5  C   UNL     1      -4.479   4.293  25.909  0.00  0.00    +0.003 A 
ATOM      6  C   UNL     1      -4.949   3.856  25.391  0.00  0.00    +0.002 A 
ATOM      7  C   UNL     1      -4.621   3.235  24.959  0.00  0.00    +0.020 A 
ATOM      8  C   UNL     1      -3.822   3.050  25.047  0.00  0.00    +0.109 A 
BRANCH   3   2
ATOM      1  C   UNL     1      -2.068   3.774  26.124  0.00  0.00    +0.253 C 
ATOM      2  O   UNL     1      -2.552   3.301  25.651  0.00  0.00    -0.470 OA
ENDBRANCH   3   2
ENDBRANCH   9   8
ENDBRANCH  13  12
TORSDOF 4
ENDMDL
MODEL 6
REMARK VINA RESULT:     -12.2      1.795      3.127
REMARK  Name = 
REMARK  4 active torsions:
REMARK  status: ('A' for Active; 'I' for Inactive)
REMARK    1  A    between atoms: O_2  and  C_3
REMARK    2  A    between atoms: C_8  and  N_9
REMARK    3  A    between atoms: N_12  and  C_13
REMARK    4  A    between atoms: C_23  and  C_25
REMARK                            x       y       z     vdW  Elec       q    Type
REMARK                         _______ _______ _______ _____ _____    ______ ____
ROOT
ATOM     13  C   UNL     1      -2.256   2.467  23.930  0.00  0.00    +0.131 A 
ATOM     14  C   UNL     1      -1.569   2.910  24.045  0.00  0.00    +0.023 A 
ATOM     15  C   UNL     1      -1.540   3.480  24.640  0.00  0.00    +0.014 A 
ATOM     16  C   UNL     1      -2.198   3.609  25.120  0.00  0.00    +0.041 A 
ATOM     17  C   UNL     1      -2.478   4.130  25.823  0.00  0.00    +0.058 C 
ATOM     18  C   UNL     1      -2.257   4.640  26.253  0.00  0.00    +0.011 C 
ATOM     19  C   UNL     1      -2.934   4.201  26.136  0.00  0.00    +0.043 C 
ATOM     20  C   UNL     1      -3.828   3.781  26.153  0.00  0.00    +0.096 C 
ATOM     21  N   UNL     1      -3.738   3.237  25.525  0.00  0.00    -0.276 N 
ATOM     22  C   UNL     1      -3.346   3.734  25.852  0.00  0.00    +0.099 C 
ATOM     23  C   UNL     1      -3.934   2.640  24.990  0.00  0.00    +0.249 C 
ATOM     24  O   UNL     1      -3.381   2.388  24.432  0.00  0.00    -0.270 OA
ATOM     31  C   UNL     1      -2.650   3.652  25.402  0.00  0.00    +0.110 C 
ATOM     32  N   UNL     1      -2.885   3.166  25.005  0.00  0.00    -0.298 N 
ATOM     33  C   UNL     1      -2.914   2.596  24.410  0.00  0.00    +0.276 A 
ATOM     34  O   UNL     1      -3.455   2.051  24.110  0.00  0.00    -0.266 OA
ENDROOT
BRANCH  23  25
ATOM     25  C   UNL     1      -4.683   2.296  25.012  0.00  0.00    +0.054 A 
ATOM     26  C   UNL     1      -5.323   2.676  24.657  0.00  0.00    +0.005 A 
ATOM     27  C   UNL     1      -6.073   2.332  24.680  0.00  0.00    +0.000 A 
ATOM     28  C   UNL     1      -6.182   1.607  25.059  0.00  0.00    +0.000 A 
ATOM     29  C   UNL     1      -5.543   1.227  25.414  0.00  0.00    +0.000 A 
ATOM     30  C   UNL     1      -4.793   1.571  25.391  0.00  0.00    +0.005 A 
ENDBRANCH  23  25
BRANCH  13  12
ATOM      9  N   UNL     1      -1.218   1.185  23.967  0.00  0.00    -0.158 NA
ATOM     10  C   UNL     1      -1.765   1.256  23.353  0.00  0.00    +0.348 C 
ATOM     11  O   UNL     1      -1.793   0.685  22.757  0.00  0.00    -0.248 OA
ATOM     12  N   UNL     1      -2.283   1.897  23.335  0.00  0.00    -0.156 NA
BRANCH   9   8
ATOM      3  C   UNL     1      -0.711   0.021  24.623  0.00  0.00    +0.154 A 
ATOM      4  C   UNL     1      -0.193  -0.621  24.641  0.00  0.00    +0.038 A 
ATOM      5  C   UNL     1       0.337  -0.740  24.020  0.00  0.00    +0.003 A 
ATOM      6  C   UNL     1       0.350  -0.217  23.382  0.00  0.00    +0.002 A 
ATOM      7  C   UNL     1      -0.168   0.424  23.364  0.00  0.00    +0.020 A 
ATOM      8  C   UNL     1      -0.699   0.543  23.984  0.00  0.00    +0.109 A 
BRANCH   3   2
ATOM      1  C   UNL     1      -1.260  -0.387  25.877  0.00  0.00    +0.253 C 
ATOM      2  O   UNL     1      -1.242   0.140  25.243  0.00  0.00    -0.470 OA
ENDBRANCH   3   2
ENDBRANCH   9   8
ENDBRANCH  13  12
TORSDOF 4
ENDMDL
MODEL 7
REMARK VINA RESULT:     -12.1      1.651      4.013
REMARK  Name = 
REMARK  4 active torsions:
REMARK  status: ('A' for Active; 'I' for Inactive)
REMARK    1  A    between atoms: O_2  and  C_3
REMARK    2  A    between atoms: C_8  and  N_9
REMARK    3  A    between atoms: N_12  and  C_13
REMARK    4  A    between atoms: C_23  and  C_25
REMARK                            x       y       z     vdW  Elec       q    Type
REMARK                         _______ _______ _______ _____ _____    ______ ____
ROOT
ATOM     13  C   UNL     1      -3.442   0.719  23.884  0.00  0.00    +0.131 A 
ATOM     14  C   UNL     1      -4.125   0.288  24.053  0.00  0.00    +0.023 A 
ATOM     15  C   UNL     1      -4.070  -0.435  24.448  0.00  0.00    +0.014 A 
ATOM     16  C   UNL     1      -3.332  -0.726  24.673  0.00  0.00    +0.041 A 
ATOM     17  C   UNL     1      -2.948  -1.446  25.096  0.00  0.00    +0.058 C 
ATOM     18  C   UNL     1      -3.112  -2.053  25.408  0.00  0.00    +0.011 C 
ATOM     19  C   UNL     1      -2.440  -1.625  25.239  0.00  0.00    +0.043 C 
ATOM     20  C   UNL     1      -1.527  -1.262  25.128  0.00  0.00    +0.096 C 
ATOM     21  N   UNL     1      -1.707  -0.551  24.728  0.00  0.00    -0.276 N 
ATOM     22  C   UNL     1      -2.060  -1.109  24.996  0.00  0.00    +0.099 C 
ATOM     23  C   UNL     1      -1.583   0.172  24.350  0.00  0.00    +0.249 C 
ATOM     24  O   UNL     1      -2.225   0.601  24.059  0.00  0.00    -0.270 OA
ATOM     31  C   UNL     1      -2.832  -0.869  24.796  0.00  0.00    +0.110 C 
ATOM     32  N   UNL     1      -2.649  -0.295  24.503  0.00  0.00    -0.298 N 
ATOM     33  C   UNL     1      -2.704   0.427  24.109  0.00  0.00    +0.276 A 
ATOM     34  O   UNL     1      -2.196   1.017  23.838  0.00  0.00    -0.266 OA
ENDROOT
BRANCH  23  25
ATOM     25  C   UNL     1      -0.817   0.465  24.262  0.00  0.00    +0.054 A 
ATOM     26  C   UNL     1      -0.339   0.193  23.648  0.00  0.00    +0.005 A 
ATOM     27  C   UNL     1       0.428   0.486  23.560  0.00  0.00    +0.000 A 
ATOM     28  C   UNL     1       0.715   1.052  24.087  0.00  0.00    +0.000 A 
ATOM     29  C   UNL     1       0.237   1.325  24.701  0.00  0.00    +0.000 A 
ATOM     30  C   UNL     1      -0.530   1.031  24.789  0.00  0.00    +0.005 A 
ENDBRANCH  23  25
BRANCH  13  12
ATOM      9  N   UNL     1      -4.217   1.990  24.596  0.00  0.00    -0.158 NA
ATOM     10  C   UNL     1      -3.885   2.076  23.845  0.00  0.00    +0.348 C 
ATOM     11  O   UNL     1      -3.940   2.799  23.450  0.00  0.00    -0.248 OA
ATOM     12  N   UNL     1      -3.498   1.441  23.490  0.00  0.00    -0.156 NA
BRANCH   9   8
ATOM      3  C   UNL     1      -5.321   2.507  25.341  0.00  0.00    +0.154 A 
ATOM      4  C   UNL     1      -5.709   3.143  25.696  0.00  0.00    +0.038 A 
ATOM      5  C   UNL     1      -5.379   3.898  25.661  0.00  0.00    +0.003 A 
ATOM      6  C   UNL     1      -4.662   4.018  25.271  0.00  0.00    +0.002 A 
ATOM      7  C   UNL     1      -4.274   3.382  24.916  0.00  0.00    +0.020 A 
ATOM      8  C   UNL     1      -4.604   2.627  24.951  0.00  0.00    +0.109 A 
BRANCH   3   2
ATOM      1  C   UNL     1      -6.332   1.619  25.821  0.00  0.00    +0.253 C 
ATOM      2  O   UNL     1      -5.650   1.752  25.375  0.00  0.00    -0.470 OA
ENDBRANCH   3   2
ENDBRANCH   9   8
ENDBRANCH  13  12
TORSDOF 4
ENDMDL
