MODEL 1
REMARK VINA RESULT:     -12.1      0.000      0.000
REMARK  Name = 
REMARK  5 active torsions:
REMARK  status: ('A' for Active; 'I' for Inactive)
REMARK    1  A    between atoms: C_2  and  C_4
REMARK    2  A    between atoms: C_2  and  C_8
REMARK    3  A    between atoms: C_4  and  C_5
REMARK    4  A    between atoms: C_8  and  C_9
REMARK    5  A    between atoms: N_11  and  C_12
REMARK                            x       y       z     vdW  Elec       q    Type
REMARK                         _______ _______ _______ _____ _____    ______ ____
ROOT
ATOM     12  C   UNL     1      -3.738   1.281  25.069  0.00  0.00    +0.117 C 
ATOM     13  C   UNL     1      -4.123   1.989  24.889  0.00  0.00    +0.053 C 
ATOM     14  C   UNL     1      -3.566   2.596  24.915  0.00  0.00    +0.156 C 
ATOM     15  N   UNL     1      -2.836   2.265  25.111  0.00  0.00    -0.268 N 
ATOM     16  C   UNL     1      -2.943   1.451  25.207  0.00  0.00    +0.116 C 
ATOM     17  C   UNL     1      -2.108   2.641  25.205  0.00  0.00    +0.251 C 
ATOM     18  O   UNL     1      -1.475   2.151  25.405  0.00  0.00    -0.270 OA
ATOM     19  C   UNL     1      -1.930   3.442  25.126  0.00  0.00    +0.069 A 
ATOM     20  C   UNL     1      -1.131   3.589  25.268  0.00  0.00    +0.007 A 
ATOM     21  C   UNL     1      -0.837   4.358  25.217  0.00  0.00    +0.012 A 
ATOM     22  C   UNL     1      -1.342   4.981  25.025  0.00  0.00    +0.059 A 
ATOM     23 CL   UNL     1      -1.048   5.750  24.974  0.00  0.00    -0.082 Cl
ATOM     24  C   UNL     1      -2.142   4.835  24.883  0.00  0.00    +0.028 A 
ATOM     25  C   UNL     1      -2.435   4.065  24.934  0.00  0.00    +0.079 A 
ATOM     26  N   UNL     1      -3.245   4.040  24.773  0.00  0.00    -0.178 NA
ATOM     27  C   UNL     1      -3.747   3.386  24.765  0.00  0.00    +0.264 C 
ATOM     28  O   UNL     1      -4.536   3.544  24.581  0.00  0.00    -0.271 OA
ENDROOT
BRANCH  12  11
ATOM      9  C   UNL     1      -3.937  -0.021  24.515  0.00  0.00    +0.241 C 
ATOM     10  O   UNL     1      -3.436   0.169  23.888  0.00  0.00    -0.273 OA
ATOM     11  N   UNL     1      -4.088   0.535  25.106  0.00  0.00    -0.205 NA
BRANCH   9   8
ATOM      8  C   UNL     1      -4.287  -0.767  24.551  0.00  0.00    +0.087 C 
BRANCH   8   2
ATOM      1  C   UNL     1      -3.591  -1.466  25.174  0.00  0.00    +0.001 C 
ATOM      2  C   UNL     1      -3.840  -1.441  24.389  0.00  0.00    +0.019 C 
ATOM      3  C   UNL     1      -4.089  -1.417  23.602  0.00  0.00    +0.001 C 
BRANCH   2   4
ATOM      4  C   UNL     1      -3.393  -2.115  24.226  0.00  0.00    +0.115 C 
BRANCH   4   5
ATOM      5  C   UNL     1      -3.687  -2.861  24.421  0.00  0.00    +0.365 C 
ATOM      6  O   UNL     1      -3.451  -3.228  25.121  0.00  0.00    -0.246 OA
ATOM      7  O   UNL     1      -4.218  -3.241  23.916  0.00  0.00    -0.246 OA
ENDBRANCH   4   5
ENDBRANCH   2   4
ENDBRANCH   8   2
ENDBRANCH   9   8
ENDBRANCH  12  11
TORSDOF 5
ENDMDL
MODEL 2
REMARK VINA RESULT:     -11.4      2.494      5.874
REMARK  Name = 
REMARK  5 active torsions:
REMARK  status: ('A' for Active; 'I' for Inactive)
REMARK    1  A    between atoms: C_2  and  C_4
REMARK    2  A    between atoms: C_2  and  C_8
REMARK    3  A    between atoms: C_4  and  C_5
REMARK    4  A    between atoms: C_8  and  C_9
REMARK    5  A    between atoms: N_11  and  C_12
REMARK                            x       y       z     vdW  Elec       q    Type
REMARK                         _______ _______ _______ _____ _____    ______ ____
ROOT
ATOM     12  C   UNL     1      -1.503   0.956  25.466  0.00  0.00    +0.117 C 
ATOM     13  C   UNL     1      -1.071   0.259  25.379  0.00  0.00    +0.053 C 
ATOM     14  C   UNL     1      -1.590  -0.336  25.142  0.00  0.00    +0.156 C 
ATOM     15  N   UNL     1      -2.344  -0.007  25.082  0.00  0.00    -0.268 N 
ATOM     16  C   UNL     1      -2.290   0.792  25.283  0.00  0.00    +0.116 C 
ATOM     17  C   UNL     1      -3.050  -0.374  24.865  0.00  0.00    +0.251 C 
ATOM     18  O   UNL     1      -3.718   0.110  24.858  0.00  0.00    -0.270 OA
ATOM     19  C   UNL     1      -3.177  -1.161  24.653  0.00  0.00    +0.069 A 
ATOM     20  C   UNL     1      -3.969  -1.302  24.474  0.00  0.00    +0.007 A 
ATOM     21  C   UNL     1      -4.214  -2.057  24.249  0.00  0.00    +0.012 A 
ATOM     22  C   UNL     1      -3.666  -2.671  24.203  0.00  0.00    +0.059 A 
ATOM     23 CL   UNL     1      -3.910  -3.426  23.977  0.00  0.00    -0.082 Cl
ATOM     24  C   UNL     1      -2.872  -2.531  24.382  0.00  0.00    +0.028 A 
ATOM     25  C   UNL     1      -2.629  -1.776  24.607  0.00  0.00    +0.079 A 
ATOM     26  N   UNL     1      -1.817  -1.755  24.761  0.00  0.00    -0.178 NA
ATOM     27  C   UNL     1      -1.356  -1.114  24.999  0.00  0.00    +0.264 C 
ATOM     28  O   UNL     1      -0.553  -1.273  25.108  0.00  0.00    -0.271 OA
ENDROOT
BRANCH  12  11
ATOM      9  C   UNL     1      -1.141   2.301  25.149  0.00  0.00    +0.241 C 
ATOM     10  O   UNL     1      -1.384   2.183  24.369  0.00  0.00    -0.273 OA
ATOM     11  N   UNL     1      -1.201   1.688  25.697  0.00  0.00    -0.205 NA
BRANCH   9   8
ATOM      8  C   UNL     1      -0.839   3.033  25.379  0.00  0.00    +0.087 C 
BRANCH   8   2
ATOM      1  C   UNL     1      -1.687   3.782  25.662  0.00  0.00    +0.001 C 
ATOM      2  C   UNL     1      -1.139   3.726  25.048  0.00  0.00    +0.019 C 
ATOM      3  C   UNL     1      -0.591   3.671  24.434  0.00  0.00    +0.001 C 
BRANCH   2   4
ATOM      4  C   UNL     1      -1.440   4.421  24.718  0.00  0.00    +0.115 C 
BRANCH   4   5
ATOM      5  C   UNL     1      -1.187   5.154  24.998  0.00  0.00    +0.365 C 
ATOM      6  O   UNL     1      -0.400   5.382  24.904  0.00  0.00    -0.246 OA
ATOM      7  O   UNL     1      -1.720   5.660  25.374  0.00  0.00    -0.246 OA
ENDBRANCH   4   5
ENDBRANCH   2   4
ENDBRANCH   8   2
ENDBRANCH   9   8
ENDBRANCH  12  11
TORSDOF 5
ENDMDL
MODEL 3
REMARK VINA RESULT:     -11.2      0.932      1.512
REMARK  Name = 
REMARK  5 active torsions:
REMARK  status: ('A' for Active; 'I' for Inactive)
REMARK    1  A    between atoms: C_2  and  C_4
REMARK    2  A    between atoms: C_2  and  C_8
REMARK    3  A    between atoms: C_4  and  C_5
REMARK    4  A    between atoms: C_8  and  C_9
REMARK    5  A    between atoms: N_11  and  C_12
REMARK                            x       y       z     vdW  Elec       q    Type
REMARK                         _______ _______ _______ _____ _____    ______ ____
ROOT
ATOM     12  C   UNL     1      -3.196   1.178  24.426  0.00  0.00    +0.117 C 
ATOM     13  C   UNL     1      -2.464   1.276  24.058  0.00  0.00    +0.053 C 
ATOM     14  C   UNL     1      -2.185   2.030  24.242  0.00  0.00    +0.156 C 
ATOM     15  N   UNL     1      -2.745   2.399  24.722  0.00  0.00    -0.268 N 
ATOM     16  C   UNL     1      -3.370   1.872  24.836  0.00  0.00    +0.116 C 
ATOM     17  C   UNL     1      -2.723   3.155  25.051  0.00  0.00    +0.251 C 
ATOM     18  O   UNL     1      -3.375   3.364  25.512  0.00  0.00    -0.270 OA
ATOM     19  C   UNL     1      -2.136   3.730  24.980  0.00  0.00    +0.069 A 
ATOM     20  C   UNL     1      -2.331   4.413  25.398  0.00  0.00    +0.007 A 
ATOM     21  C   UNL     1      -1.815   5.058  25.398  0.00  0.00    +0.012 A 
ATOM     22  C   UNL     1      -1.105   5.018  24.981  0.00  0.00    +0.059 A 
ATOM     23 CL   UNL     1      -0.590   5.662  24.982  0.00  0.00    -0.082 Cl
ATOM     24  C   UNL     1      -0.910   4.334  24.563  0.00  0.00    +0.028 A 
ATOM     25  C   UNL     1      -1.425   3.690  24.563  0.00  0.00    +0.079 A 
ATOM     26  N   UNL     1      -1.126   3.065  24.113  0.00  0.00    -0.178 NA
ATOM     27  C   UNL     1      -1.465   2.327  23.971  0.00  0.00    +0.264 C 
ATOM     28  O   UNL     1      -1.024   1.818  23.494  0.00  0.00    -0.271 OA
ENDROOT
BRANCH  12  11
ATOM      9  C   UNL     1      -3.498  -0.149  24.862  0.00  0.00    +0.241 C 
ATOM     10  O   UNL     1      -2.852  -0.128  25.374  0.00  0.00    -0.273 OA
ATOM     11  N   UNL     1      -3.670   0.504  24.389  0.00  0.00    -0.205 NA
BRANCH   9   8
ATOM      8  C   UNL     1      -3.973  -0.823  24.825  0.00  0.00    +0.087 C 
BRANCH   8   2
ATOM      1  C   UNL     1      -3.919  -1.447  23.842  0.00  0.00    +0.001 C 
ATOM      2  C   UNL     1      -3.644  -1.548  24.612  0.00  0.00    +0.019 C 
ATOM      3  C   UNL     1      -3.368  -1.650  25.384  0.00  0.00    +0.001 C 
BRANCH   2   4
ATOM      4  C   UNL     1      -3.315  -2.275  24.399  0.00  0.00    +0.115 C 
BRANCH   4   5
ATOM      5  C   UNL     1      -3.773  -2.960  24.432  0.00  0.00    +0.365 C 
ATOM      6  O   UNL     1      -4.337  -3.107  23.849  0.00  0.00    -0.246 OA
ATOM      7  O   UNL     1      -3.667  -3.499  25.047  0.00  0.00    -0.246 OA
ENDBRANCH   4   5
ENDBRANCH   2   4
ENDBRANCH   8   2
ENDBRANCH   9   8
ENDBRANCH  12  11
TORSDOF 5
ENDMDL
MODEL 4
REMARK VINA RESULT:     -11.0      2.261      5.553
REMARK  Name = 
REMARK  5 active torsions:
REMARK  status: ('A' for Active; 'I' for Inactive)
REMARK    1  A    between atoms: C_2  and  C_4
REMARK    2  A    between atoms: C_2  and  C_8
REMARK    3  A    between atoms: C_4  and  C_5
REMARK    4  A    between atoms: C_8  and  C_9
REMARK    5  A    between atoms: N_11  and  C_12
REMARK                            x       y       z     vdW  Elec       q    Type
REMARK                         _______ _______ _______ _____ _____    ______ ____
ROOT
ATOM     12  C   UNL     1      -3.182   1.729  24.261  0.00  0.00    +0.117 C 
ATOM     13  C   UNL     1      -3.906   1.358  24.401  0.00  0.00    +0.053 C 
ATOM     14  C   UNL     1      -3.769   0.549  24.474  0.00  0.00    +0.156 C 
ATOM     15  N   UNL     1      -2.960   0.418  24.380  0.00  0.00    -0.268 N 
ATOM     16  C   UNL     1      -2.597   1.148  24.248  0.00  0.00    +0.116 C 
ATOM     17  C   UNL     1      -2.547  -0.296  24.404  0.00  0.00    +0.251 C 
ATOM     18  O   UNL     1      -1.732  -0.243  24.288  0.00  0.00    -0.270 OA
ATOM     19  C   UNL     1      -2.842  -1.056  24.530  0.00  0.00    +0.069 A 
ATOM     20  C   UNL     1      -2.241  -1.620  24.513  0.00  0.00    +0.007 A 
ATOM     21  C   UNL     1      -2.419  -2.418  24.627  0.00  0.00    +0.012 A 
ATOM     22  C   UNL     1      -3.199  -2.651  24.759  0.00  0.00    +0.059 A 
ATOM     23 CL   UNL     1      -3.377  -3.449  24.873  0.00  0.00    -0.082 Cl
ATOM     24  C   UNL     1      -3.801  -2.087  24.776  0.00  0.00    +0.028 A 
ATOM     25  C   UNL     1      -3.622  -1.290  24.662  0.00  0.00    +0.079 A 
ATOM     26  N   UNL     1      -4.301  -0.821  24.701  0.00  0.00    -0.178 NA
ATOM     27  C   UNL     1      -4.365  -0.003  24.617  0.00  0.00    +0.264 C 
ATOM     28  O   UNL     1      -5.128   0.304  24.685  0.00  0.00    -0.271 OA
ENDROOT
BRANCH  12  11
ATOM      9  C   UNL     1      -2.851   3.013  24.794  0.00  0.00    +0.241 C 
ATOM     10  O   UNL     1      -2.755   2.679  25.541  0.00  0.00    -0.273 OA
ATOM     11  N   UNL     1      -3.065   2.538  24.154  0.00  0.00    -0.205 NA
BRANCH   9   8
ATOM      8  C   UNL     1      -2.734   3.822  24.686  0.00  0.00    +0.087 C 
BRANCH   8   2
ATOM      1  C   UNL     1      -1.599   3.966  24.456  0.00  0.00    +0.001 C 
ATOM      2  C   UNL     1      -2.106   4.202  25.063  0.00  0.00    +0.019 C 
ATOM      3  C   UNL     1      -2.612   4.438  25.670  0.00  0.00    +0.001 C 
BRANCH   2   4
ATOM      4  C   UNL     1      -1.477   4.582  25.439  0.00  0.00    +0.115 C 
BRANCH   4   5
ATOM      5  C   UNL     1      -1.136   5.251  25.097  0.00  0.00    +0.365 C 
ATOM      6  O   UNL     1      -0.393   5.199  24.743  0.00  0.00    -0.246 OA
ATOM      7  O   UNL     1      -1.537   5.972  25.109  0.00  0.00    -0.246 OA
ENDBRANCH   4   5
ENDBRANCH   2   4
ENDBRANCH   8   2
ENDBRANCH   9   8
ENDBRANCH  12  11
TORSDOF 5
ENDMDL
