MODEL 1
REMARK VINA RESULT:     -14.8      0.000      0.000
REMARK  Name = 
REMARK  5 active torsions:
REMARK  status: ('A' for Active; 'I' for Inactive)
REMARK    1  A    between atoms: N_4  and  C_5
REMARK    2  A    between atoms: C_8  and  S_11
REMARK    3  A    between atoms: S_11  and  N_14
REMARK    4  A    between atoms: N_14  and  C_15
REMARK    5  A    between atoms: C_25  and  C_27
REMARK                            x       y       z     vdW  Elec       q    Type
REMARK                         _______ _______ _______ _____ _____    ______ ____
ROOT
ATOM     15  C   UNL     1      -1.728  -0.494  24.555  0.00  0.00    +0.147 A 
ATOM     16  C   UNL     1      -1.480  -1.276  24.461  0.00  0.00    +0.024 A 
ATOM     17  C   UNL     1      -2.036  -1.872  24.337  0.00  0.00    +0.014 A 
ATOM     18  C   UNL     1      -2.839  -1.687  24.306  0.00  0.00    +0.041 A 
ATOM     19  C   UNL     1      -3.660  -2.086  24.191  0.00  0.00    +0.058 C 
ATOM     20  C   UNL     1      -3.957  -2.712  24.080  0.00  0.00    +0.011 C 
ATOM     21  C   UNL     1      -4.197  -1.939  24.173  0.00  0.00    +0.043 C 
ATOM     22  C   UNL     1      -4.678  -1.081  24.261  0.00  0.00    +0.096 C 
ATOM     23  N   UNL     1      -4.029  -0.568  24.381  0.00  0.00    -0.276 N 
ATOM     24  C   UNL     1      -4.139  -1.264  24.274  0.00  0.00    +0.099 C 
ATOM     25  C   UNL     1      -3.618   0.135  24.510  0.00  0.00    +0.249 C 
ATOM     26  O   UNL     1      -2.794   0.127  24.568  0.00  0.00    -0.270 OA
ATOM     37  C   UNL     1      -3.345  -1.514  24.294  0.00  0.00    +0.110 C 
ATOM     38  N   UNL     1      -3.087  -0.906  24.400  0.00  0.00    -0.298 N 
ATOM     39  C   UNL     1      -2.531  -0.309  24.524  0.00  0.00    +0.277 A 
ATOM     40  O   UNL     1      -2.524   0.507  24.641  0.00  0.00    -0.266 OA
ENDROOT
BRANCH  25  27
ATOM     27  C   UNL     1      -4.029   0.846  24.582  0.00  0.00    +0.054 A 
ATOM     28  C   UNL     1      -4.507   0.981  25.242  0.00  0.00    +0.005 A 
ATOM     29  C   UNL     1      -4.919   1.693  25.314  0.00  0.00    +0.000 A 
ATOM     30  C   UNL     1      -4.854   2.268  24.727  0.00  0.00    +0.000 A 
ATOM     31  C   UNL     1      -5.266   2.980  24.800  0.00  0.00    +0.000 A 
ATOM     32  C   UNL     1      -5.743   3.114  25.459  0.00  0.00    +0.000 A 
ATOM     33  C   UNL     1      -5.808   2.539  26.046  0.00  0.00    +0.000 A 
ATOM     34  C   UNL     1      -5.396   1.827  25.973  0.00  0.00    +0.000 A 
ATOM     35  C   UNL     1      -4.376   2.134  24.068  0.00  0.00    +0.000 A 
ATOM     36  C   UNL     1      -3.964   1.422  23.996  0.00  0.00    +0.005 A 
ENDBRANCH  25  27
BRANCH  15  14
ATOM     14  N   UNL     1      -1.171   0.102  24.680  0.00  0.00    -0.092 NA
BRANCH  14  11
ATOM     11  S   UNL     1      -0.474   0.113  24.240  0.00  0.00    +0.093 S 
ATOM     12  O   UNL     1      -0.823   0.628  23.699  0.00  0.00    -0.148 OA
ATOM     13  O   UNL     1      -0.124  -0.401  24.782  0.00  0.00    -0.148 OA
BRANCH  11   8
ATOM      5  C   UNL     1       1.620   0.151  22.920  0.00  0.00    +0.073 A 
ATOM      6  C   UNL     1       1.236   0.857  23.105  0.00  0.00    +0.018 A 
ATOM      7  C   UNL     1       0.538   0.845  23.544  0.00  0.00    +0.022 A 
ATOM      8  C   UNL     1       0.225   0.125  23.800  0.00  0.00    +0.127 A 
ATOM      9  C   UNL     1       0.609  -0.581  23.616  0.00  0.00    +0.022 A 
ATOM     10  C   UNL     1       1.306  -0.568  23.176  0.00  0.00    +0.018 A 
BRANCH   5   4
ATOM      1  C   UNL     1       3.676   0.580  22.327  0.00  0.00    +0.097 C 
ATOM      2  C   UNL     1       2.978   0.566  22.767  0.00  0.00    +0.246 C 
ATOM      3  O   UNL     1       2.941   0.956  23.492  0.00  0.00    -0.273 OA
ATOM      4  N   UNL     1       2.317   0.164  22.481  0.00  0.00    -0.179 NA
ENDBRANCH   5   4
ENDBRANCH  11   8
ENDBRANCH  14  11
ENDBRANCH  15  14
TORSDOF 5
ENDMDL
MODEL 2
REMARK VINA RESULT:     -14.1      1.596      2.055
REMARK  Name = 
REMARK  5 active torsions:
REMARK  status: ('A' for Active; 'I' for Inactive)
REMARK    1  A    between atoms: N_4  and  C_5
REMARK    2  A    between atoms: C_8  and  S_11
REMARK    3  A    between atoms: S_11  and  N_14
REMARK    4  A    between atoms: N_14  and  C_15
REMARK    5  A    between atoms: C_25  and  C_27
REMARK                            x       y       z     vdW  Elec       q    Type
REMARK                         _______ _______ _______ _____ _____    ______ ____
ROOT
ATOM     15  C   UNL     1      -0.138   0.125  23.704  0.00  0.00    +0.147 A 
ATOM     16  C   UNL     1       0.241  -0.583  23.894  0.00  0.00    +0.024 A 
ATOM     17  C   UNL     1      -0.143  -1.142  24.365  0.00  0.00    +0.014 A 
ATOM     18  C   UNL     1      -0.904  -0.993  24.645  0.00  0.00    +0.041 A 
ATOM     19  C   UNL     1      -1.565  -1.377  25.154  0.00  0.00    +0.058 C 
ATOM     20  C   UNL     1      -1.709  -1.957  25.523  0.00  0.00    +0.011 C 
ATOM     21  C   UNL     1      -2.079  -1.257  25.333  0.00  0.00    +0.043 C 
ATOM     22  C   UNL     1      -2.683  -0.484  25.215  0.00  0.00    +0.096 C 
ATOM     23  N   UNL     1      -2.200   0.000  24.737  0.00  0.00    -0.276 N 
ATOM     24  C   UNL     1      -2.160  -0.638  25.050  0.00  0.00    +0.099 C 
ATOM     25  C   UNL     1      -1.968   0.654  24.289  0.00  0.00    +0.249 C 
ATOM     26  O   UNL     1      -1.223   0.667  23.932  0.00  0.00    -0.270 OA
ATOM     37  C   UNL     1      -1.394  -0.847  24.799  0.00  0.00    +0.110 C 
ATOM     38  N   UNL     1      -1.282  -0.285  24.454  0.00  0.00    -0.298 N 
ATOM     39  C   UNL     1      -0.899   0.274  23.984  0.00  0.00    +0.277 A 
ATOM     40  O   UNL     1      -1.055   1.021  23.669  0.00  0.00    -0.266 OA
ENDROOT
BRANCH  25  27
ATOM     27  C   UNL     1      -2.480   1.293  24.197  0.00  0.00    +0.054 A 
ATOM     28  C   UNL     1      -2.474   1.909  24.746  0.00  0.00    +0.005 A 
ATOM     29  C   UNL     1      -2.987   2.550  24.655  0.00  0.00    +0.000 A 
ATOM     30  C   UNL     1      -3.505   2.573  24.015  0.00  0.00    +0.000 A 
ATOM     31  C   UNL     1      -4.018   3.214  23.923  0.00  0.00    +0.000 A 
ATOM     32  C   UNL     1      -4.011   3.829  24.472  0.00  0.00    +0.000 A 
ATOM     33  C   UNL     1      -3.493   3.805  25.112  0.00  0.00    +0.000 A 
ATOM     34  C   UNL     1      -2.980   3.165  25.204  0.00  0.00    +0.000 A 
ATOM     35  C   UNL     1      -3.513   1.958  23.465  0.00  0.00    +0.000 A 
ATOM     36  C   UNL     1      -3.000   1.318  23.557  0.00  0.00    +0.005 A 
ENDBRANCH  25  27
BRANCH  15  14
ATOM     14  N   UNL     1       0.246   0.684  23.234  0.00  0.00    -0.092 NA
BRANCH  14  11
ATOM     11  S   UNL     1       1.061   0.634  23.116  0.00  0.00    +0.093 S 
ATOM     12  O   UNL     1       1.183   1.160  23.740  0.00  0.00    -0.148 OA
ATOM     13  O   UNL     1       0.939   0.108  22.493  0.00  0.00    -0.148 OA
BRANCH  11   8
ATOM      5  C   UNL     1       3.507   0.489  22.765  0.00  0.00    +0.073 A 
ATOM      6  C   UNL     1       3.187   1.124  23.183  0.00  0.00    +0.018 A 
ATOM      7  C   UNL     1       2.372   1.173  23.300  0.00  0.00    +0.022 A 
ATOM      8  C   UNL     1       1.877   0.585  22.999  0.00  0.00    +0.127 A 
ATOM      9  C   UNL     1       2.196  -0.050  22.581  0.00  0.00    +0.022 A 
ATOM     10  C   UNL     1       3.011  -0.098  22.464  0.00  0.00    +0.018 A 
BRANCH   5   4
ATOM      1  C   UNL     1       5.617   0.052  23.110  0.00  0.00    +0.097 C 
ATOM      2  C   UNL     1       4.802   0.101  23.227  0.00  0.00    +0.246 C 
ATOM      3  O   UNL     1       4.467  -0.190  23.922  0.00  0.00    -0.273 OA
ATOM      4  N   UNL     1       4.322   0.440  22.648  0.00  0.00    -0.179 NA
ENDBRANCH   5   4
ENDBRANCH  11   8
ENDBRANCH  14  11
ENDBRANCH  15  14
TORSDOF 5
ENDMDL
MODEL 3
REMARK VINA RESULT:     -14.0      2.256      3.448
REMARK  Name = 
REMARK  5 active torsions:
REMARK  status: ('A' for Active; 'I' for Inactive)
REMARK    1  A    between atoms: N_4  and  C_5
REMARK    2  A    between atoms: C_8  and  S_11
REMARK    3  A    between atoms: S_11  and  N_14
REMARK    4  A    between atoms: N_14  and  C_15
REMARK    5  A    between atoms: C_25  and  C_27
REMARK                            x       y       z     vdW  Elec       q    Type
REMARK                         _______ _______ _______ _____ _____    ______ ____
ROOT
ATOM     15  C   UNL     1      -1.095   2.328  24.710  0.00  0.00    +0.147 A 
ATOM     16  C   UNL     1      -0.402   2.769  24.784  0.00  0.00    +0.024 A 
ATOM     17  C   UNL     1      -0.442   3.580  24.932  0.00  0.00    +0.014 A 
ATOM     18  C   UNL     1      -1.176   3.949  25.006  0.00  0.00    +0.041 A 
ATOM     19  C   UNL     1      -1.547   4.776  25.159  0.00  0.00    +0.058 C 
ATOM     20  C   UNL     1      -1.370   5.444  25.279  0.00  0.00    +0.011 C 
ATOM     21  C   UNL     1      -2.053   5.006  25.205  0.00  0.00    +0.043 C 
ATOM     22  C   UNL     1      -2.975   4.654  25.149  0.00  0.00    +0.096 C 
ATOM     23  N   UNL     1      -2.808   3.849  25.001  0.00  0.00    -0.276 N 
ATOM     24  C   UNL     1      -2.444   4.451  25.108  0.00  0.00    +0.099 C 
ATOM     25  C   UNL     1      -2.947   3.048  24.857  0.00  0.00    +0.249 C 
ATOM     26  O   UNL     1      -2.312   2.530  24.757  0.00  0.00    -0.270 OA
ATOM     37  C   UNL     1      -1.675   4.138  25.044  0.00  0.00    +0.110 C 
ATOM     38  N   UNL     1      -1.869   3.508  24.931  0.00  0.00    -0.298 N 
ATOM     39  C   UNL     1      -1.829   2.697  24.783  0.00  0.00    +0.277 A 
ATOM     40  O   UNL     1      -2.350   2.067  24.673  0.00  0.00    -0.266 OA
ENDROOT
BRANCH  25  27
ATOM     27  C   UNL     1      -3.721   2.765  24.812  0.00  0.00    +0.054 A 
ATOM     28  C   UNL     1      -4.162   2.659  25.501  0.00  0.00    +0.005 A 
ATOM     29  C   UNL     1      -4.936   2.376  25.456  0.00  0.00    +0.000 A 
ATOM     30  C   UNL     1      -5.268   2.200  24.723  0.00  0.00    +0.000 A 
ATOM     31  C   UNL     1      -6.043   1.917  24.678  0.00  0.00    +0.000 A 
ATOM     32  C   UNL     1      -6.483   1.811  25.367  0.00  0.00    +0.000 A 
ATOM     33  C   UNL     1      -6.151   1.988  26.101  0.00  0.00    +0.000 A 
ATOM     34  C   UNL     1      -5.376   2.271  26.146  0.00  0.00    +0.000 A 
ATOM     35  C   UNL     1      -4.828   2.306  24.033  0.00  0.00    +0.000 A 
ATOM     36  C   UNL     1      -4.054   2.589  24.078  0.00  0.00    +0.005 A 
ENDBRANCH  25  27
BRANCH  15  14
ATOM     14  N   UNL     1      -1.054   1.518  24.562  0.00  0.00    -0.092 NA
BRANCH  14  11
ATOM     11  S   UNL     1      -0.394   1.200  24.183  0.00  0.00    +0.093 S 
ATOM     12  O   UNL     1      -0.741   1.353  23.450  0.00  0.00    -0.148 OA
ATOM     13  O   UNL     1      -0.046   1.048  24.915  0.00  0.00    -0.148 OA
BRANCH  11   8
ATOM      5  C   UNL     1       1.587   0.250  23.042  0.00  0.00    +0.073 A 
ATOM      6  C   UNL     1       1.644   0.974  23.432  0.00  0.00    +0.018 A 
ATOM      7  C   UNL     1       0.984   1.291  23.812  0.00  0.00    +0.022 A 
ATOM      8  C   UNL     1       0.267   0.883  23.802  0.00  0.00    +0.127 A 
ATOM      9  C   UNL     1       0.210   0.158  23.412  0.00  0.00    +0.022 A 
ATOM     10  C   UNL     1       0.870  -0.158  23.032  0.00  0.00    +0.018 A 
BRANCH   5   4
ATOM      1  C   UNL     1       3.622   0.029  22.285  0.00  0.00    +0.097 C 
ATOM      2  C   UNL     1       2.961   0.345  22.665  0.00  0.00    +0.246 C 
ATOM      3  O   UNL     1       3.016   1.073  23.048  0.00  0.00    -0.273 OA
ATOM      4  N   UNL     1       2.247  -0.067  22.662  0.00  0.00    -0.179 NA
ENDBRANCH   5   4
ENDBRANCH  11   8
ENDBRANCH  14  11
ENDBRANCH  15  14
TORSDOF 5
ENDMDL
MODEL 4
REMARK VINA RESULT:     -13.6      2.292      4.006
REMARK  Name = 
REMARK  5 active torsions:
REMARK  status: ('A' for Active; 'I' for Inactive)
REMARK    1  A    between atoms: N_4  and  C_5
REMARK    2  A    between atoms: C_8  and  S_11
REMARK    3  A    between atoms: S_11  and  N_14
REMARK    4  A    between atoms: N_14  and  C_15
REMARK    5  A    between atoms: C_25  and  C_27
REMARK                            x       y       z     vdW  Elec       q    Type
REMARK                         _______ _______ _______ _____ _____    ______ ____
ROOT
ATOM     15  C   UNL     1      -3.038   2.295  24.530  0.00  0.00    +0.147 A 
ATOM     16  C   UNL     1      -3.271   3.058  24.738  0.00  0.00    +0.024 A 
ATOM     17  C   UNL     1      -4.038   3.197  25.007  0.00  0.00    +0.014 A 
ATOM     18  C   UNL     1      -4.572   2.572  25.069  0.00  0.00    +0.041 A 
ATOM     19  C   UNL     1      -5.440   2.397  25.317  0.00  0.00    +0.058 C 
ATOM     20  C   UNL     1      -6.018   2.713  25.557  0.00  0.00    +0.011 C 
ATOM     21  C   UNL     1      -5.785   1.960  25.351  0.00  0.00    +0.043 C 
ATOM     22  C   UNL     1      -5.695   0.996  25.154  0.00  0.00    +0.096 C 
ATOM     23  N   UNL     1      -4.901   0.979  24.896  0.00  0.00    -0.276 N 
ATOM     24  C   UNL     1      -5.369   1.462  25.131  0.00  0.00    +0.099 C 
ATOM     25  C   UNL     1      -4.189   0.670  24.615  0.00  0.00    +0.249 C 
ATOM     26  O   UNL     1      -3.542   1.168  24.494  0.00  0.00    -0.270 OA
ATOM     37  C   UNL     1      -4.878   2.134  25.091  0.00  0.00    +0.110 C 
ATOM     38  N   UNL     1      -4.340   1.808  24.861  0.00  0.00    -0.298 N 
ATOM     39  C   UNL     1      -3.572   1.669  24.592  0.00  0.00    +0.277 A 
ATOM     40  O   UNL     1      -3.119   1.030  24.335  0.00  0.00    -0.266 OA
ENDROOT
BRANCH  25  27
ATOM     27  C   UNL     1      -4.125  -0.136  24.453  0.00  0.00    +0.054 A 
ATOM     28  C   UNL     1      -3.827  -0.649  25.027  0.00  0.00    +0.005 A 
ATOM     29  C   UNL     1      -3.763  -1.456  24.866  0.00  0.00    +0.000 A 
ATOM     30  C   UNL     1      -3.997  -1.749  24.132  0.00  0.00    +0.000 A 
ATOM     31  C   UNL     1      -3.933  -2.556  23.970  0.00  0.00    +0.000 A 
ATOM     32  C   UNL     1      -3.635  -3.069  24.544  0.00  0.00    +0.000 A 
ATOM     33  C   UNL     1      -3.401  -2.775  25.279  0.00  0.00    +0.000 A 
ATOM     34  C   UNL     1      -3.466  -1.968  25.440  0.00  0.00    +0.000 A 
ATOM     35  C   UNL     1      -4.294  -1.237  23.558  0.00  0.00    +0.000 A 
ATOM     36  C   UNL     1      -4.358  -0.430  23.719  0.00  0.00    +0.005 A 
ENDBRANCH  25  27
BRANCH  15  14
ATOM     14  N   UNL     1      -2.271   2.157  24.260  0.00  0.00    -0.092 NA
BRANCH  14  11
ATOM     11  S   UNL     1      -1.627   2.299  24.756  0.00  0.00    +0.093 S 
ATOM     12  O   UNL     1      -1.519   1.486  24.848  0.00  0.00    -0.148 OA
ATOM     13  O   UNL     1      -1.735   3.111  24.664  0.00  0.00    -0.148 OA
BRANCH  11   8
ATOM      5  C   UNL     1       0.305   2.721  26.244  0.00  0.00    +0.073 A 
ATOM      6  C   UNL     1       0.184   1.968  25.929  0.00  0.00    +0.018 A 
ATOM      7  C   UNL     1      -0.460   1.827  25.433  0.00  0.00    +0.022 A 
ATOM      8  C   UNL     1      -0.983   2.440  25.252  0.00  0.00    +0.127 A 
ATOM      9  C   UNL     1      -0.862   3.192  25.568  0.00  0.00    +0.022 A 
ATOM     10  C   UNL     1      -0.218   3.333  26.064  0.00  0.00    +0.018 A 
BRANCH   5   4
ATOM      1  C   UNL     1       1.550   2.798  28.036  0.00  0.00    +0.097 C 
ATOM      2  C   UNL     1       0.906   2.658  27.539  0.00  0.00    +0.246 C 
ATOM      3  O   UNL     1       0.220   2.315  27.841  0.00  0.00    -0.273 OA
ATOM      4  N   UNL     1       0.949   2.861  26.740  0.00  0.00    -0.179 NA
ENDBRANCH   5   4
ENDBRANCH  11   8
ENDBRANCH  14  11
ENDBRANCH  15  14
TORSDOF 5
ENDMDL
MODEL 5
REMARK VINA RESULT:     -13.5      1.744      3.417
REMARK  Name = 
REMARK  5 active torsions:
REMARK  status: ('A' for Active; 'I' for Inactive)
REMARK    1  A    between atoms: N_4  and  C_5
REMARK    2  A    between atoms: C_8  and  S_11
REMARK    3  A    between atoms: S_11  and  N_14
REMARK    4  A    between atoms: N_14  and  C_15
REMARK    5  A    between atoms: C_25  and  C_27
REMARK                            x       y       z     vdW  Elec       q    Type
REMARK                         _______ _______ _______ _____ _____    ______ ____
ROOT
ATOM     15  C   UNL     1       0.068   0.907  23.861  0.00  0.00    +0.147 A 
ATOM     16  C   UNL     1       0.539   1.546  24.086  0.00  0.00    +0.024 A 
ATOM     17  C   UNL     1       0.234   2.130  24.582  0.00  0.00    +0.014 A 
ATOM     18  C   UNL     1      -0.543   2.075  24.854  0.00  0.00    +0.041 A 
ATOM     19  C   UNL     1      -1.148   2.523  25.381  0.00  0.00    +0.058 C 
ATOM     20  C   UNL     1      -1.212   3.099  25.777  0.00  0.00    +0.011 C 
ATOM     21  C   UNL     1      -1.675   2.467  25.553  0.00  0.00    +0.043 C 
ATOM     22  C   UNL     1      -2.380   1.792  25.398  0.00  0.00    +0.096 C 
ATOM     23  N   UNL     1      -1.965   1.269  24.897  0.00  0.00    -0.276 N 
ATOM     24  C   UNL     1      -1.839   1.880  25.241  0.00  0.00    +0.099 C 
ATOM     25  C   UNL     1      -1.823   0.611  24.418  0.00  0.00    +0.249 C 
ATOM     26  O   UNL     1      -1.084   0.512  24.062  0.00  0.00    -0.270 OA
ATOM     37  C   UNL     1      -1.050   1.992  25.001  0.00  0.00    +0.110 C 
ATOM     38  N   UNL     1      -1.014   1.436  24.629  0.00  0.00    -0.298 N 
ATOM     39  C   UNL     1      -0.709   0.853  24.133  0.00  0.00    +0.277 A 
ATOM     40  O   UNL     1      -0.965   0.151  23.783  0.00  0.00    -0.266 OA
ENDROOT
BRANCH  25  27
ATOM     27  C   UNL     1      -2.418   0.055  24.296  0.00  0.00    +0.054 A 
ATOM     28  C   UNL     1      -2.387  -0.675  24.681  0.00  0.00    +0.005 A 
ATOM     29  C   UNL     1      -2.983  -1.232  24.558  0.00  0.00    +0.000 A 
ATOM     30  C   UNL     1      -3.609  -1.061  24.051  0.00  0.00    +0.000 A 
ATOM     31  C   UNL     1      -4.206  -1.618  23.928  0.00  0.00    +0.000 A 
ATOM     32  C   UNL     1      -4.174  -2.347  24.314  0.00  0.00    +0.000 A 
ATOM     33  C   UNL     1      -3.548  -2.518  24.822  0.00  0.00    +0.000 A 
ATOM     34  C   UNL     1      -2.951  -1.961  24.944  0.00  0.00    +0.000 A 
ATOM     35  C   UNL     1      -3.641  -0.332  23.665  0.00  0.00    +0.000 A 
ATOM     36  C   UNL     1      -3.045   0.225  23.788  0.00  0.00    +0.005 A 
ENDBRANCH  25  27
BRANCH  15  14
ATOM     14  N   UNL     1       0.374   0.324  23.365  0.00  0.00    -0.092 NA
BRANCH  14  11
ATOM     11  S   UNL     1       1.187   0.277  23.236  0.00  0.00    +0.093 S 
ATOM     12  O   UNL     1       1.253  -0.266  23.853  0.00  0.00    -0.148 OA
ATOM     13  O   UNL     1       1.120   0.819  22.618  0.00  0.00    -0.148 OA
BRANCH  11   8
ATOM      5  C   UNL     1       3.627   0.133  22.850  0.00  0.00    +0.073 A 
ATOM      6  C   UNL     1       3.208  -0.534  23.095  0.00  0.00    +0.018 A 
ATOM      7  C   UNL     1       2.395  -0.486  23.223  0.00  0.00    +0.022 A 
ATOM      8  C   UNL     1       2.001   0.229  23.107  0.00  0.00    +0.127 A 
ATOM      9  C   UNL     1       2.420   0.896  22.862  0.00  0.00    +0.022 A 
ATOM     10  C   UNL     1       3.233   0.848  22.733  0.00  0.00    +0.018 A 
BRANCH   5   4
ATOM      1  C   UNL     1       5.779   0.187  23.211  0.00  0.00    +0.097 C 
ATOM      2  C   UNL     1       4.965   0.235  23.339  0.00  0.00    +0.246 C 
ATOM      3  O   UNL     1       4.677   0.434  24.086  0.00  0.00    -0.273 OA
ATOM      4  N   UNL     1       4.440   0.084  22.721  0.00  0.00    -0.179 NA
ENDBRANCH   5   4
ENDBRANCH  11   8
ENDBRANCH  14  11
ENDBRANCH  15  14
TORSDOF 5
ENDMDL
MODEL 6
REMARK VINA RESULT:     -12.9      1.881      5.724
REMARK  Name = 
REMARK  5 active torsions:
REMARK  status: ('A' for Active; 'I' for Inactive)
REMARK    1  A    between atoms: N_4  and  C_5
REMARK    2  A    between atoms: C_8  and  S_11
REMARK    3  A    between atoms: S_11  and  N_14
REMARK    4  A    between atoms: N_14  and  C_15
REMARK    5  A    between atoms: C_25  and  C_27
REMARK                            x       y       z     vdW  Elec       q    Type
REMARK                         _______ _______ _______ _____ _____    ______ ____
ROOT
ATOM     15  C   UNL     1      -1.481   0.910  24.318  0.00  0.00    +0.147 A 
ATOM     16  C   UNL     1      -2.071   0.663  24.839  0.00  0.00    +0.024 A 
ATOM     17  C   UNL     1      -2.035  -0.089  25.177  0.00  0.00    +0.014 A 
ATOM     18  C   UNL     1      -1.408  -0.593  24.995  0.00  0.00    +0.041 A 
ATOM     19  C   UNL     1      -1.090  -1.434  25.185  0.00  0.00    +0.058 C 
ATOM     20  C   UNL     1      -1.239  -2.007  25.563  0.00  0.00    +0.011 C 
ATOM     21  C   UNL     1      -0.658  -1.759  25.048  0.00  0.00    +0.043 C 
ATOM     22  C   UNL     1       0.126  -1.646  24.458  0.00  0.00    +0.096 C 
ATOM     23  N   UNL     1      -0.017  -0.871  24.181  0.00  0.00    -0.276 N 
ATOM     24  C   UNL     1      -0.327  -1.340  24.619  0.00  0.00    +0.099 C 
ATOM     25  C   UNL     1       0.099  -0.169  23.763  0.00  0.00    +0.249 C 
ATOM     26  O   UNL     1      -0.444   0.449  23.834  0.00  0.00    -0.270 OA
ATOM     37  C   UNL     1      -0.983  -0.879  24.843  0.00  0.00    +0.110 C 
ATOM     38  N   UNL     1      -0.818  -0.346  24.473  0.00  0.00    -0.298 N 
ATOM     39  C   UNL     1      -0.855   0.405  24.135  0.00  0.00    +0.277 A 
ATOM     40  O   UNL     1      -0.412   0.864  23.611  0.00  0.00    -0.266 OA
ENDROOT
BRANCH  25  27
ATOM     27  C   UNL     1       0.758  -0.086  23.273  0.00  0.00    +0.054 A 
ATOM     28  C   UNL     1       1.435   0.294  23.554  0.00  0.00    +0.005 A 
ATOM     29  C   UNL     1       2.094   0.378  23.065  0.00  0.00    +0.000 A 
ATOM     30  C   UNL     1       2.076   0.082  22.295  0.00  0.00    +0.000 A 
ATOM     31  C   UNL     1       2.736   0.166  21.806  0.00  0.00    +0.000 A 
ATOM     32  C   UNL     1       3.412   0.545  22.087  0.00  0.00    +0.000 A 
ATOM     33  C   UNL     1       3.430   0.841  22.856  0.00  0.00    +0.000 A 
ATOM     34  C   UNL     1       2.770   0.757  23.346  0.00  0.00    +0.000 A 
ATOM     35  C   UNL     1       1.400  -0.297  22.014  0.00  0.00    +0.000 A 
ATOM     36  C   UNL     1       0.741  -0.381  22.504  0.00  0.00    +0.005 A 
ENDBRANCH  25  27
BRANCH  15  14
ATOM     14  N   UNL     1      -1.519   1.661  23.980  0.00  0.00    -0.092 NA
BRANCH  14  11
ATOM     11  S   UNL     1      -2.147   2.164  24.161  0.00  0.00    +0.093 S 
ATOM     12  O   UNL     1      -1.725   2.458  24.806  0.00  0.00    -0.148 OA
ATOM     13  O   UNL     1      -2.568   1.870  23.515  0.00  0.00    -0.148 OA
BRANCH  11   8
ATOM      5  C   UNL     1      -4.029   3.676  24.705  0.00  0.00    +0.073 A 
ATOM      6  C   UNL     1      -3.346   3.685  25.168  0.00  0.00    +0.018 A 
ATOM      7  C   UNL     1      -2.719   3.181  24.986  0.00  0.00    +0.022 A 
ATOM      8  C   UNL     1      -2.775   2.668  24.342  0.00  0.00    +0.127 A 
ATOM      9  C   UNL     1      -3.458   2.659  23.880  0.00  0.00    +0.022 A 
ATOM     10  C   UNL     1      -4.085   3.163  24.062  0.00  0.00    +0.018 A 
BRANCH   5   4
ATOM      1  C   UNL     1      -5.883   4.429  25.577  0.00  0.00    +0.097 C 
ATOM      2  C   UNL     1      -5.255   3.926  25.394  0.00  0.00    +0.246 C 
ATOM      3  O   UNL     1      -5.227   3.169  25.720  0.00  0.00    -0.273 OA
ATOM      4  N   UNL     1      -4.656   4.179  24.887  0.00  0.00    -0.179 NA
ENDBRANCH   5   4
ENDBRANCH  11   8
ENDBRANCH  14  11
ENDBRANCH  15  14
TORSDOF 5
ENDMDL
MODEL 7
REMARK VINA RESULT:     -12.7      2.991      4.993
REMARK  Name = 
REMARK  5 active torsions:
REMARK  status: ('A' for Active; 'I' for Inactive)
REMARK    1  A    between atoms: N_4  and  C_5
REMARK    2  A    between atoms: C_8  and  S_11
REMARK    3  A    between atoms: S_11  and  N_14
REMARK    4  A    between atoms: N_14  and  C_15
REMARK    5  A    between atoms: C_25  and  C_27
REMARK                            x       y       z     vdW  Elec       q    Type
REMARK                         _______ _______ _______ _____ _____    ______ ____
ROOT
ATOM     15  C   UNL     1      -4.066   1.452  24.640  0.00  0.00    +0.147 A 
ATOM     16  C   UNL     1      -4.849   1.193  24.672  0.00  0.00    +0.024 A 
ATOM     17  C   UNL     1      -5.435   1.690  24.972  0.00  0.00    +0.014 A 
ATOM     18  C   UNL     1      -5.239   2.445  25.239  0.00  0.00    +0.041 A 
ATOM     19  C   UNL     1      -5.624   3.196  25.604  0.00  0.00    +0.058 C 
ATOM     20  C   UNL     1      -6.244   3.450  25.812  0.00  0.00    +0.011 C 
ATOM     21  C   UNL     1      -5.470   3.702  25.779  0.00  0.00    +0.043 C 
ATOM     22  C   UNL     1      -4.607   4.181  25.822  0.00  0.00    +0.096 C 
ATOM     23  N   UNL     1      -4.105   3.594  25.501  0.00  0.00    -0.276 N 
ATOM     24  C   UNL     1      -4.797   3.672  25.651  0.00  0.00    +0.099 C 
ATOM     25  C   UNL     1      -3.410   3.236  25.239  0.00  0.00    +0.249 C 
ATOM     26  O   UNL     1      -3.430   2.468  24.936  0.00  0.00    -0.270 OA
ATOM     37  C   UNL     1      -5.059   2.923  25.398  0.00  0.00    +0.110 C 
ATOM     38  N   UNL     1      -4.456   2.704  25.207  0.00  0.00    -0.298 N 
ATOM     39  C   UNL     1      -3.869   2.207  24.908  0.00  0.00    +0.277 A 
ATOM     40  O   UNL     1      -3.055   2.230  24.776  0.00  0.00    -0.266 OA
ENDROOT
BRANCH  25  27
ATOM     27  C   UNL     1      -2.695   3.645  25.278  0.00  0.00    +0.054 A 
ATOM     28  C   UNL     1      -2.546   4.267  24.757  0.00  0.00    +0.005 A 
ATOM     29  C   UNL     1      -1.830   4.677  24.797  0.00  0.00    +0.000 A 
ATOM     30  C   UNL     1      -1.265   4.464  25.357  0.00  0.00    +0.000 A 
ATOM     31  C   UNL     1      -0.549   4.873  25.397  0.00  0.00    +0.000 A 
ATOM     32  C   UNL     1      -0.401   5.495  24.875  0.00  0.00    +0.000 A 
ATOM     33  C   UNL     1      -0.966   5.708  24.315  0.00  0.00    +0.000 A 
ATOM     34  C   UNL     1      -1.682   5.298  24.275  0.00  0.00    +0.000 A 
ATOM     35  C   UNL     1      -1.413   3.842  25.879  0.00  0.00    +0.000 A 
ATOM     36  C   UNL     1      -2.129   3.433  25.839  0.00  0.00    +0.005 A 
ENDBRANCH  25  27
BRANCH  15  14
ATOM     14  N   UNL     1      -3.480   0.954  24.341  0.00  0.00    -0.092 NA
BRANCH  14  11
ATOM     11  S   UNL     1      -3.587   0.137  24.352  0.00  0.00    +0.093 S 
ATOM     12  O   UNL     1      -3.273   0.105  25.114  0.00  0.00    -0.148 OA
ATOM     13  O   UNL     1      -3.902   0.168  23.590  0.00  0.00    -0.148 OA
BRANCH  11   8
ATOM      5  C   UNL     1      -3.910  -2.317  24.384  0.00  0.00    +0.073 A 
ATOM      6  C   UNL     1      -4.167  -1.876  23.736  0.00  0.00    +0.018 A 
ATOM      7  C   UNL     1      -4.059  -1.058  23.725  0.00  0.00    +0.022 A 
ATOM      8  C   UNL     1      -3.695  -0.682  24.363  0.00  0.00    +0.127 A 
ATOM      9  C   UNL     1      -3.438  -1.123  25.011  0.00  0.00    +0.022 A 
ATOM     10  C   UNL     1      -3.545  -1.940  25.021  0.00  0.00    +0.018 A 
BRANCH   5   4
ATOM      1  C   UNL     1      -3.515  -4.452  24.159  0.00  0.00    +0.097 C 
ATOM      2  C   UNL     1      -3.408  -3.634  24.149  0.00  0.00    +0.246 C 
ATOM      3  O   UNL     1      -2.692  -3.316  23.893  0.00  0.00    -0.273 OA
ATOM      4  N   UNL     1      -4.017  -3.135  24.394  0.00  0.00    -0.179 NA
ENDBRANCH   5   4
ENDBRANCH  11   8
ENDBRANCH  14  11
ENDBRANCH  15  14
TORSDOF 5
ENDMDL
