MODEL 1
REMARK VINA RESULT:     -12.3      0.000      0.000
REMARK  Name = 
REMARK  8 active torsions:
REMARK  status: ('A' for Active; 'I' for Inactive)
REMARK    1  A    between atoms: C_2  and  C_4
REMARK    2  A    between atoms: C_4  and  C_5
REMARK    3  A    between atoms: C_4  and  N_12
REMARK    4  A    between atoms: C_5  and  C_6
REMARK    5  A    between atoms: C_13  and  C_15
REMARK    6  A    between atoms: N_20  and  S_21
REMARK    7  A    between atoms: S_21  and  C_24
REMARK    8  A    between atoms: C_30  and  C_32
REMARK                            x       y       z     vdW  Elec       q    Type
REMARK                         _______ _______ _______ _____ _____    ______ ____
ROOT
ATOM     15  C   UNL     1      -1.839   0.953  24.455  0.00  0.00    +0.177 C 
ATOM     16  C   UNL     1      -2.650   1.059  24.563  0.00  0.00    +0.121 C 
ATOM     17  N   UNL     1      -2.969   1.820  24.571  0.00  0.00    -0.273 N 
ATOM     18  C   UNL     1      -2.477   2.474  24.472  0.00  0.00    +0.113 C 
ATOM     19  C   UNL     1      -1.666   2.369  24.364  0.00  0.00    +0.118 C 
ATOM     20  N   UNL     1      -1.346   1.608  24.356  0.00  0.00    -0.145 NA
ATOM     30  C   UNL     1      -3.779   1.925  24.679  0.00  0.00    +0.249 C 
ATOM     31  O   UNL     1      -4.272   1.271  24.778  0.00  0.00    -0.270 OA
ENDROOT
BRANCH  30  32
ATOM     32  C   UNL     1      -4.099   2.687  24.687  0.00  0.00    +0.056 A 
ATOM     33  C   UNL     1      -4.210   3.095  23.978  0.00  0.00    +0.005 A 
ATOM     34  C   UNL     1      -4.530   3.855  23.986  0.00  0.00    +0.002 A 
ATOM     35  C   UNL     1      -4.737   4.209  24.703  0.00  0.00    +0.030 A 
ATOM     36  C   UNL     1      -4.625   3.800  25.411  0.00  0.00    +0.140 A 
ATOM     37  F   UNL     1      -4.832   4.153  26.127  0.00  0.00    -0.204 F 
ATOM     38  C   UNL     1      -4.306   3.039  25.403  0.00  0.00    +0.034 A 
ENDBRANCH  30  32
BRANCH  15  13
ATOM     12  N   UNL     1      -1.847  -0.398  24.922  0.00  0.00    -0.197 NA
ATOM     13  C   UNL     1      -1.520   0.193  24.447  0.00  0.00    +0.260 C 
ATOM     14  O   UNL     1      -0.874   0.021  23.964  0.00  0.00    -0.272 OA
BRANCH  12   4
ATOM      4  C   UNL     1      -1.528  -1.158  24.914  0.00  0.00    +0.174 C 
BRANCH   4   2
ATOM      1  N   UNL     1      -0.294  -1.789  25.263  0.00  0.00    -0.086 NA
ATOM      2  C   UNL     1      -0.974  -1.379  25.484  0.00  0.00    +0.281 C 
ATOM      3  O   UNL     1      -1.101  -1.188  26.278  0.00  0.00    -0.270 OA
ENDBRANCH   4   2
BRANCH   4   5
ATOM      5  C   UNL     1      -1.763  -1.697  24.336  0.00  0.00    +0.031 C 
BRANCH   5   6
ATOM      6  C   UNL     1      -2.495  -2.075  24.397  0.00  0.00    +0.002 C 
ATOM      7  C   UNL     1      -3.112  -1.862  23.892  0.00  0.00    +0.000 C 
ATOM      8  C   UNL     1      -3.843  -2.239  23.952  0.00  0.00    +0.000 C 
ATOM      9  C   UNL     1      -3.958  -2.829  24.518  0.00  0.00    +0.000 C 
ATOM     10  C   UNL     1      -3.341  -3.041  25.023  0.00  0.00    +0.000 C 
ATOM     11  C   UNL     1      -2.609  -2.664  24.962  0.00  0.00    +0.000 C 
ENDBRANCH   5   6
ENDBRANCH   4   5
ENDBRANCH  12   4
ENDBRANCH  15  13
BRANCH  20  21
ATOM     21  S   UNL     1      -0.536   1.502  24.249  0.00  0.00    +0.064 S 
ATOM     22  O   UNL     1       0.276   1.396  24.142  0.00  0.00    -0.153 OA
ATOM     23  O   UNL     1      -0.686   0.959  23.647  0.00  0.00    -0.153 OA
BRANCH  21  24
ATOM     24  C   UNL     1      -0.385   2.045  24.852  0.00  0.00    +0.122 A 
ATOM     25  C   UNL     1      -0.344   2.851  24.679  0.00  0.00    +0.020 A 
ATOM     26  C   UNL     1      -0.194   3.394  25.282  0.00  0.00    +0.001 A 
ATOM     27  C   UNL     1      -0.083   3.132  26.056  0.00  0.00    +0.000 A 
ATOM     28  C   UNL     1      -0.124   2.326  26.228  0.00  0.00    +0.001 A 
ATOM     29  C   UNL     1      -0.275   1.783  25.626  0.00  0.00    +0.020 A 
ENDBRANCH  21  24
ENDBRANCH  20  21
TORSDOF 8
ENDMDL
MODEL 2
REMARK VINA RESULT:     -12.3      2.025      4.983
REMARK  Name = 
REMARK  8 active torsions:
REMARK  status: ('A' for Active; 'I' for Inactive)
REMARK    1  A    between atoms: C_2  and  C_4
REMARK    2  A    between atoms: C_4  and  C_5
REMARK    3  A    between atoms: C_4  and  N_12
REMARK    4  A    between atoms: C_5  and  C_6
REMARK    5  A    between atoms: C_13  and  C_15
REMARK    6  A    between atoms: N_20  and  S_21
REMARK    7  A    between atoms: S_21  and  C_24
REMARK    8  A    between atoms: C_30  and  C_32
REMARK                            x       y       z     vdW  Elec       q    Type
REMARK                         _______ _______ _______ _____ _____    ______ ____
ROOT
ATOM     15  C   UNL     1      -3.406   1.921  24.601  0.00  0.00    +0.177 C 
ATOM     16  C   UNL     1      -2.979   1.218  24.671  0.00  0.00    +0.121 C 
ATOM     17  N   UNL     1      -3.363   0.492  24.591  0.00  0.00    -0.273 N 
ATOM     18  C   UNL     1      -4.173   0.469  24.441  0.00  0.00    +0.113 C 
ATOM     19  C   UNL     1      -4.601   1.171  24.370  0.00  0.00    +0.118 C 
ATOM     20  N   UNL     1      -4.217   1.897  24.450  0.00  0.00    -0.145 NA
ATOM     30  C   UNL     1      -2.936  -0.209  24.662  0.00  0.00    +0.249 C 
ATOM     31  O   UNL     1      -2.125  -0.186  24.813  0.00  0.00    -0.270 OA
ENDROOT
BRANCH  30  32
ATOM     32  C   UNL     1      -3.320  -0.936  24.582  0.00  0.00    +0.056 A 
ATOM     33  C   UNL     1      -3.689  -1.131  23.870  0.00  0.00    +0.005 A 
ATOM     34  C   UNL     1      -4.073  -1.857  23.789  0.00  0.00    +0.002 A 
ATOM     35  C   UNL     1      -4.087  -2.388  24.421  0.00  0.00    +0.030 A 
ATOM     36  C   UNL     1      -3.718  -2.193  25.132  0.00  0.00    +0.140 A 
ATOM     37  F   UNL     1      -3.732  -2.724  25.763  0.00  0.00    -0.204 F 
ATOM     38  C   UNL     1      -3.334  -1.467  25.212  0.00  0.00    +0.034 A 
ENDBRANCH  30  32
BRANCH  15  13
ATOM     12  N   UNL     1      -2.466   2.755  25.281  0.00  0.00    -0.197 NA
ATOM     13  C   UNL     1      -3.023   2.646  24.681  0.00  0.00    +0.260 C 
ATOM     14  O   UNL     1      -3.195   3.263  24.162  0.00  0.00    -0.272 OA
BRANCH  12   4
ATOM      4  C   UNL     1      -2.082   3.481  25.361  0.00  0.00    +0.174 C 
BRANCH   4   2
ATOM      1  N   UNL     1      -2.444   4.838  25.626  0.00  0.00    -0.086 NA
ATOM      2  C   UNL     1      -2.386   4.053  25.872  0.00  0.00    +0.281 C 
ATOM      3  O   UNL     1      -2.632   3.839  26.631  0.00  0.00    -0.270 OA
ENDBRANCH   4   2
BRANCH   4   5
ATOM      5  C   UNL     1      -1.396   3.634  24.931  0.00  0.00    +0.031 C 
BRANCH   5   6
ATOM      6  C   UNL     1      -0.715   3.187  25.068  0.00  0.00    +0.002 C 
ATOM      7  C   UNL     1      -0.297   2.868  24.431  0.00  0.00    +0.000 C 
ATOM      8  C   UNL     1       0.384   2.422  24.568  0.00  0.00    +0.000 C 
ATOM      9  C   UNL     1       0.646   2.294  25.340  0.00  0.00    +0.000 C 
ATOM     10  C   UNL     1       0.227   2.614  25.975  0.00  0.00    +0.000 C 
ATOM     11  C   UNL     1      -0.453   3.060  25.839  0.00  0.00    +0.000 C 
ENDBRANCH   5   6
ENDBRANCH   4   5
ENDBRANCH  12   4
ENDBRANCH  15  13
BRANCH  20  21
ATOM     21  S   UNL     1      -4.644   2.599  24.380  0.00  0.00    +0.064 S 
ATOM     22  O   UNL     1      -5.071   3.302  24.310  0.00  0.00    -0.153 OA
ATOM     23  O   UNL     1      -4.085   2.886  23.845  0.00  0.00    -0.153 OA
BRANCH  21  24
ATOM     24  C   UNL     1      -5.203   2.313  24.915  0.00  0.00    +0.122 A 
ATOM     25  C   UNL     1      -5.820   1.834  24.649  0.00  0.00    +0.020 A 
ATOM     26  C   UNL     1      -6.379   1.548  25.185  0.00  0.00    +0.001 A 
ATOM     27  C   UNL     1      -6.321   1.740  25.985  0.00  0.00    +0.000 A 
ATOM     28  C   UNL     1      -5.704   2.219  26.250  0.00  0.00    +0.001 A 
ATOM     29  C   UNL     1      -5.145   2.505  25.715  0.00  0.00    +0.020 A 
ENDBRANCH  21  24
ENDBRANCH  20  21
TORSDOF 8
ENDMDL
MODEL 3
REMARK VINA RESULT:     -11.7      1.824      4.496
REMARK  Name = 
REMARK  8 active torsions:
REMARK  status: ('A' for Active; 'I' for Inactive)
REMARK    1  A    between atoms: C_2  and  C_4
REMARK    2  A    between atoms: C_4  and  C_5
REMARK    3  A    between atoms: C_4  and  N_12
REMARK    4  A    between atoms: C_5  and  C_6
REMARK    5  A    between atoms: C_13  and  C_15
REMARK    6  A    between atoms: N_20  and  S_21
REMARK    7  A    between atoms: S_21  and  C_24
REMARK    8  A    between atoms: C_30  and  C_32
REMARK                            x       y       z     vdW  Elec       q    Type
REMARK                         _______ _______ _______ _____ _____    ______ ____
ROOT
ATOM     15  C   UNL     1      -2.101   1.025  25.111  0.00  0.00    +0.177 C 
ATOM     16  C   UNL     1      -2.841   0.683  24.985  0.00  0.00    +0.121 C 
ATOM     17  N   UNL     1      -2.902  -0.127  24.844  0.00  0.00    -0.273 N 
ATOM     18  C   UNL     1      -2.224  -0.596  24.829  0.00  0.00    +0.113 C 
ATOM     19  C   UNL     1      -1.483  -0.254  24.955  0.00  0.00    +0.118 C 
ATOM     20  N   UNL     1      -1.422   0.556  25.096  0.00  0.00    -0.145 NA
ATOM     30  C   UNL     1      -3.642  -0.469  24.718  0.00  0.00    +0.249 C 
ATOM     31  O   UNL     1      -4.321  -0.000  24.732  0.00  0.00    -0.270 OA
ENDROOT
BRANCH  30  32
ATOM     32  C   UNL     1      -3.703  -1.280  24.576  0.00  0.00    +0.056 A 
ATOM     33  C   UNL     1      -3.893  -1.554  23.821  0.00  0.00    +0.005 A 
ATOM     34  C   UNL     1      -3.954  -2.364  23.680  0.00  0.00    +0.002 A 
ATOM     35  C   UNL     1      -3.826  -2.901  24.294  0.00  0.00    +0.030 A 
ATOM     36  C   UNL     1      -3.637  -2.627  25.048  0.00  0.00    +0.140 A 
ATOM     37  F   UNL     1      -3.509  -3.163  25.661  0.00  0.00    -0.204 F 
ATOM     38  C   UNL     1      -3.576  -1.816  25.189  0.00  0.00    +0.034 A 
ENDBRANCH  30  32
BRANCH  15  13
ATOM     12  N   UNL     1      -2.525   2.363  24.844  0.00  0.00    -0.197 NA
ATOM     13  C   UNL     1      -2.040   1.835  25.252  0.00  0.00    +0.260 C 
ATOM     14  O   UNL     1      -1.493   2.118  25.801  0.00  0.00    -0.272 OA
BRANCH  12   4
ATOM      4  C   UNL     1      -2.464   3.174  24.985  0.00  0.00    +0.174 C 
BRANCH   4   2
ATOM      1  N   UNL     1      -1.468   4.193  24.872  0.00  0.00    -0.086 NA
ATOM      2  C   UNL     1      -1.964   3.637  24.519  0.00  0.00    +0.281 C 
ATOM      3  O   UNL     1      -1.961   3.542  23.699  0.00  0.00    -0.270 OA
ENDBRANCH   4   2
BRANCH   4   5
ATOM      5  C   UNL     1      -2.902   3.521  25.592  0.00  0.00    +0.031 C 
BRANCH   5   6
ATOM      6  C   UNL     1      -3.722   3.591  25.521  0.00  0.00    +0.002 C 
ATOM      7  C   UNL     1      -4.211   3.335  26.134  0.00  0.00    +0.000 C 
ATOM      8  C   UNL     1      -5.030   3.405  26.063  0.00  0.00    +0.000 C 
ATOM      9  C   UNL     1      -5.360   3.731  25.380  0.00  0.00    +0.000 C 
ATOM     10  C   UNL     1      -4.869   3.987  24.768  0.00  0.00    +0.000 C 
ATOM     11  C   UNL     1      -4.050   3.916  24.839  0.00  0.00    +0.000 C 
ENDBRANCH   5   6
ENDBRANCH   4   5
ENDBRANCH  12   4
ENDBRANCH  15  13
BRANCH  20  21
ATOM     21  S   UNL     1      -0.682   0.899  25.223  0.00  0.00    +0.064 S 
ATOM     22  O   UNL     1       0.059   1.240  25.348  0.00  0.00    -0.153 OA
ATOM     23  O   UNL     1      -0.971   1.276  25.896  0.00  0.00    -0.153 OA
BRANCH  21  24
ATOM     24  C   UNL     1      -0.392   0.520  24.548  0.00  0.00    +0.122 A 
ATOM     25  C   UNL     1      -0.141  -0.264  24.592  0.00  0.00    +0.020 A 
ATOM     26  C   UNL     1       0.149  -0.643  23.918  0.00  0.00    +0.001 A 
ATOM     27  C   UNL     1       0.187  -0.236  23.201  0.00  0.00    +0.000 A 
ATOM     28  C   UNL     1      -0.065   0.548  23.158  0.00  0.00    +0.001 A 
ATOM     29  C   UNL     1      -0.355   0.926  23.831  0.00  0.00    +0.020 A 
ENDBRANCH  21  24
ENDBRANCH  20  21
TORSDOF 8
ENDMDL
MODEL 4
REMARK VINA RESULT:     -11.6      1.759      3.313
REMARK  Name = 
REMARK  8 active torsions:
REMARK  status: ('A' for Active; 'I' for Inactive)
REMARK    1  A    between atoms: C_2  and  C_4
REMARK    2  A    between atoms: C_4  and  C_5
REMARK    3  A    between atoms: C_4  and  N_12
REMARK    4  A    between atoms: C_5  and  C_6
REMARK    5  A    between atoms: C_13  and  C_15
REMARK    6  A    between atoms: N_20  and  S_21
REMARK    7  A    between atoms: S_21  and  C_24
REMARK    8  A    between atoms: C_30  and  C_32
REMARK                            x       y       z     vdW  Elec       q    Type
REMARK                         _______ _______ _______ _____ _____    ______ ____
ROOT
ATOM     15  C   UNL     1      -3.076   1.336  24.624  0.00  0.00    +0.177 C 
ATOM     16  C   UNL     1      -2.358   1.670  24.858  0.00  0.00    +0.121 C 
ATOM     17  N   UNL     1      -2.277   2.490  24.896  0.00  0.00    -0.273 N 
ATOM     18  C   UNL     1      -2.913   2.976  24.700  0.00  0.00    +0.113 C 
ATOM     19  C   UNL     1      -3.631   2.644  24.466  0.00  0.00    +0.118 C 
ATOM     20  N   UNL     1      -3.713   1.824  24.428  0.00  0.00    -0.145 NA
ATOM     30  C   UNL     1      -1.560   2.822  25.129  0.00  0.00    +0.249 C 
ATOM     31  O   UNL     1      -0.923   2.335  25.325  0.00  0.00    -0.270 OA
ENDROOT
BRANCH  30  32
ATOM     32  C   UNL     1      -1.478   3.643  25.167  0.00  0.00    +0.056 A 
ATOM     33  C   UNL     1      -1.932   4.078  25.703  0.00  0.00    +0.005 A 
ATOM     34  C   UNL     1      -1.850   4.898  25.741  0.00  0.00    +0.002 A 
ATOM     35  C   UNL     1      -1.315   5.283  25.243  0.00  0.00    +0.030 A 
ATOM     36  C   UNL     1      -0.863   4.848  24.709  0.00  0.00    +0.140 A 
ATOM     37  F   UNL     1      -0.329   5.233  24.212  0.00  0.00    -0.204 F 
ATOM     38  C   UNL     1      -0.944   4.028  24.671  0.00  0.00    +0.034 A 
ENDBRANCH  30  32
BRANCH  15  13
ATOM     12  N   UNL     1      -2.798   0.040  25.156  0.00  0.00    -0.197 NA
ATOM     13  C   UNL     1      -3.157   0.517  24.586  0.00  0.00    +0.260 C 
ATOM     14  O   UNL     1      -3.597   0.173  23.979  0.00  0.00    -0.272 OA
BRANCH  12   4
ATOM      4  C   UNL     1      -2.880  -0.781  25.118  0.00  0.00    +0.174 C 
BRANCH   4   2
ATOM      1  N   UNL     1      -3.928  -1.722  25.358  0.00  0.00    -0.086 NA
ATOM      2  C   UNL     1      -3.386  -1.169  25.641  0.00  0.00    +0.281 C 
ATOM      3  O   UNL     1      -3.350  -1.004  26.450  0.00  0.00    -0.270 OA
ENDBRANCH   4   2
BRANCH   4   5
ATOM      5  C   UNL     1      -2.456  -1.211  24.558  0.00  0.00    +0.031 C 
BRANCH   5   6
ATOM      6  C   UNL     1      -1.724  -1.539  24.757  0.00  0.00    +0.002 C 
ATOM      7  C   UNL     1      -1.609  -2.354  24.700  0.00  0.00    +0.000 C 
ATOM      8  C   UNL     1      -0.878  -2.681  24.899  0.00  0.00    +0.000 C 
ATOM      9  C   UNL     1      -0.262  -2.194  25.153  0.00  0.00    +0.000 C 
ATOM     10  C   UNL     1      -0.379  -1.379  25.209  0.00  0.00    +0.000 C 
ATOM     11  C   UNL     1      -1.109  -1.052  25.011  0.00  0.00    +0.000 C 
ENDBRANCH   5   6
ENDBRANCH   4   5
ENDBRANCH  12   4
ENDBRANCH  15  13
BRANCH  20  21
ATOM     21  S   UNL     1      -4.430   1.491  24.195  0.00  0.00    +0.064 S 
ATOM     22  O   UNL     1      -5.148   1.158  23.962  0.00  0.00    -0.153 OA
ATOM     23  O   UNL     1      -4.034   1.022  23.644  0.00  0.00    -0.153 OA
BRANCH  21  24
ATOM     24  C   UNL     1      -4.827   1.960  24.746  0.00  0.00    +0.122 A 
ATOM     25  C   UNL     1      -5.010   2.743  24.564  0.00  0.00    +0.020 A 
ATOM     26  C   UNL     1      -5.407   3.212  25.116  0.00  0.00    +0.001 A 
ATOM     27  C   UNL     1      -5.620   2.897  25.848  0.00  0.00    +0.000 A 
ATOM     28  C   UNL     1      -5.436   2.113  26.029  0.00  0.00    +0.001 A 
ATOM     29  C   UNL     1      -5.040   1.645  25.478  0.00  0.00    +0.020 A 
ENDBRANCH  21  24
ENDBRANCH  20  21
TORSDOF 8
ENDMDL
MODEL 5
REMARK VINA RESULT:     -11.4      1.920      4.356
REMARK  Name = 
REMARK  8 active torsions:
REMARK  status: ('A' for Active; 'I' for Inactive)
REMARK    1  A    between atoms: C_2  and  C_4
REMARK    2  A    between atoms: C_4  and  C_5
REMARK    3  A    between atoms: C_4  and  N_12
REMARK    4  A    between atoms: C_5  and  C_6
REMARK    5  A    between atoms: C_13  and  C_15
REMARK    6  A    between atoms: N_20  and  S_21
REMARK    7  A    between atoms: S_21  and  C_24
REMARK    8  A    between atoms: C_30  and  C_32
REMARK                            x       y       z     vdW  Elec       q    Type
REMARK                         _______ _______ _______ _____ _____    ______ ____
ROOT
ATOM     15  C   UNL     1      -2.488   1.659  24.522  0.00  0.00    +0.177 C 
ATOM     16  C   UNL     1      -2.757   0.929  24.795  0.00  0.00    +0.121 C 
ATOM     17  N   UNL     1      -2.260   0.271  24.771  0.00  0.00    -0.273 N 
ATOM     18  C   UNL     1      -1.495   0.343  24.474  0.00  0.00    +0.113 C 
ATOM     19  C   UNL     1      -1.225   1.073  24.200  0.00  0.00    +0.118 C 
ATOM     20  N   UNL     1      -1.722   1.731  24.224  0.00  0.00    -0.145 NA
ATOM     30  C   UNL     1      -2.530  -0.459  25.045  0.00  0.00    +0.249 C 
ATOM     31  O   UNL     1      -3.296  -0.532  25.343  0.00  0.00    -0.270 OA
ENDROOT
BRANCH  30  32
ATOM     32  C   UNL     1      -2.032  -1.118  25.021  0.00  0.00    +0.056 A 
ATOM     33  C   UNL     1      -1.407  -1.182  25.556  0.00  0.00    +0.005 A 
ATOM     34  C   UNL     1      -0.911  -1.841  25.532  0.00  0.00    +0.002 A 
ATOM     35  C   UNL     1      -1.039  -2.434  24.973  0.00  0.00    +0.030 A 
ATOM     36  C   UNL     1      -1.664  -2.369  24.438  0.00  0.00    +0.140 A 
ATOM     37  F   UNL     1      -1.791  -2.963  23.880  0.00  0.00    -0.204 F 
ATOM     38  C   UNL     1      -2.161  -1.711  24.462  0.00  0.00    +0.034 A 
ENDBRANCH  30  32
BRANCH  15  13
ATOM     12  N   UNL     1      -3.472   2.442  25.200  0.00  0.00    -0.197 NA
ATOM     13  C   UNL     1      -2.985   2.317  24.546  0.00  0.00    +0.260 C 
ATOM     14  O   UNL     1      -2.995   2.850  23.917  0.00  0.00    -0.272 OA
BRANCH  12   4
ATOM      4  C   UNL     1      -3.969   3.101  25.224  0.00  0.00    +0.174 C 
BRANCH   4   2
ATOM      1  N   UNL     1      -3.797   4.519  25.265  0.00  0.00    -0.086 NA
ATOM      2  C   UNL     1      -3.733   3.781  25.627  0.00  0.00    +0.281 C 
ATOM      3  O   UNL     1      -3.431   3.722  26.394  0.00  0.00    -0.270 OA
ENDBRANCH   4   2
BRANCH   4   5
ATOM      5  C   UNL     1      -4.701   3.078  24.846  0.00  0.00    +0.031 C 
BRANCH   5   6
ATOM      6  C   UNL     1      -5.319   2.635  25.168  0.00  0.00    +0.002 C 
ATOM      7  C   UNL     1      -5.702   2.067  24.708  0.00  0.00    +0.000 C 
ATOM      8  C   UNL     1      -6.320   1.624  25.030  0.00  0.00    +0.000 C 
ATOM      9  C   UNL     1      -6.554   1.750  25.812  0.00  0.00    +0.000 C 
ATOM     10  C   UNL     1      -6.170   2.318  26.270  0.00  0.00    +0.000 C 
ATOM     11  C   UNL     1      -5.553   2.761  25.948  0.00  0.00    +0.000 C 
ENDBRANCH   5   6
ENDBRANCH   4   5
ENDBRANCH  12   4
ENDBRANCH  15  13
BRANCH  20  21
ATOM     21  S   UNL     1      -1.453   2.461  23.951  0.00  0.00    +0.064 S 
ATOM     22  O   UNL     1      -1.183   3.192  23.678  0.00  0.00    -0.153 OA
ATOM     23  O   UNL     1      -2.108   2.517  23.453  0.00  0.00    -0.153 OA
BRANCH  21  24
ATOM     24  C   UNL     1      -0.797   2.406  24.449  0.00  0.00    +0.122 A 
ATOM     25  C   UNL     1      -0.113   2.027  24.188  0.00  0.00    +0.020 A 
ATOM     26  C   UNL     1       0.543   1.971  24.686  0.00  0.00    +0.001 A 
ATOM     27  C   UNL     1       0.514   2.295  25.444  0.00  0.00    +0.000 A 
ATOM     28  C   UNL     1      -0.171   2.675  25.704  0.00  0.00    +0.001 A 
ATOM     29  C   UNL     1      -0.826   2.730  25.207  0.00  0.00    +0.020 A 
ENDBRANCH  21  24
ENDBRANCH  20  21
TORSDOF 8
ENDMDL
MODEL 6
REMARK VINA RESULT:     -11.0      1.437      4.028
REMARK  Name = 
REMARK  8 active torsions:
REMARK  status: ('A' for Active; 'I' for Inactive)
REMARK    1  A    between atoms: C_2  and  C_4
REMARK    2  A    between atoms: C_4  and  C_5
REMARK    3  A    between atoms: C_4  and  N_12
REMARK    4  A    between atoms: C_5  and  C_6
REMARK    5  A    between atoms: C_13  and  C_15
REMARK    6  A    between atoms: N_20  and  S_21
REMARK    7  A    between atoms: S_21  and  C_24
REMARK    8  A    between atoms: C_30  and  C_32
REMARK                            x       y       z     vdW  Elec       q    Type
REMARK                         _______ _______ _______ _____ _____    ______ ____
ROOT
ATOM     15  C   UNL     1      -2.555   0.486  25.063  0.00  0.00    +0.177 C 
ATOM     16  C   UNL     1      -2.998   1.177  24.984  0.00  0.00    +0.121 C 
ATOM     17  N   UNL     1      -3.813   1.162  25.110  0.00  0.00    -0.273 N 
ATOM     18  C   UNL     1      -4.185   0.455  25.314  0.00  0.00    +0.113 C 
ATOM     19  C   UNL     1      -3.743  -0.237  25.393  0.00  0.00    +0.118 C 
ATOM     20  N   UNL     1      -2.928  -0.221  25.267  0.00  0.00    -0.145 NA
ATOM     30  C   UNL     1      -4.255   1.853  25.031  0.00  0.00    +0.249 C 
ATOM     31  O   UNL     1      -3.883   2.561  24.827  0.00  0.00    -0.270 OA
ENDROOT
BRANCH  30  32
ATOM     32  C   UNL     1      -5.071   1.838  25.157  0.00  0.00    +0.056 A 
ATOM     33  C   UNL     1      -5.581   1.652  24.535  0.00  0.00    +0.005 A 
ATOM     34  C   UNL     1      -6.396   1.636  24.660  0.00  0.00    +0.002 A 
ATOM     35  C   UNL     1      -6.702   1.807  25.408  0.00  0.00    +0.030 A 
ATOM     36  C   UNL     1      -6.192   1.993  26.029  0.00  0.00    +0.140 A 
ATOM     37  F   UNL     1      -6.498   2.164  26.776  0.00  0.00    -0.204 F 
ATOM     38  C   UNL     1      -5.377   2.009  25.903  0.00  0.00    +0.034 A 
ENDBRANCH  30  32
BRANCH  15  13
ATOM     12  N   UNL     1      -1.410   1.071  24.438  0.00  0.00    -0.197 NA
ATOM     13  C   UNL     1      -1.741   0.502  24.937  0.00  0.00    +0.260 C 
ATOM     14  O   UNL     1      -1.255  -0.051  25.309  0.00  0.00    -0.272 OA
BRANCH  12   4
ATOM      4  C   UNL     1      -0.595   1.086  24.313  0.00  0.00    +0.174 C 
BRANCH   4   2
ATOM      1  N   UNL     1       0.399   0.204  23.787  0.00  0.00    -0.086 NA
ATOM      2  C   UNL     1      -0.268   0.675  23.676  0.00  0.00    +0.281 C 
ATOM      3  O   UNL     1      -0.611   0.736  22.927  0.00  0.00    -0.270 OA
ENDBRANCH   4   2
BRANCH   4   5
ATOM      5  C   UNL     1      -0.107   1.512  24.823  0.00  0.00    +0.031 C 
BRANCH   5   6
ATOM      6  C   UNL     1      -0.182   2.333  24.876  0.00  0.00    +0.002 C 
ATOM      7  C   UNL     1      -0.262   2.692  25.615  0.00  0.00    +0.000 C 
ATOM      8  C   UNL     1      -0.336   3.512  25.668  0.00  0.00    +0.000 C 
ATOM      9  C   UNL     1      -0.331   3.973  24.982  0.00  0.00    +0.000 C 
ATOM     10  C   UNL     1      -0.251   3.612  24.245  0.00  0.00    +0.000 C 
ATOM     11  C   UNL     1      -0.177   2.792  24.192  0.00  0.00    +0.000 C 
ENDBRANCH   5   6
ENDBRANCH   4   5
ENDBRANCH  12   4
ENDBRANCH  15  13
BRANCH  20  21
ATOM     21  S   UNL     1      -2.485  -0.913  25.346  0.00  0.00    +0.064 S 
ATOM     22  O   UNL     1      -2.042  -1.605  25.423  0.00  0.00    -0.153 OA
ATOM     23  O   UNL     1      -1.948  -0.515  25.828  0.00  0.00    -0.153 OA
BRANCH  21  24
ATOM     24  C   UNL     1      -3.023  -1.312  24.863  0.00  0.00    +0.122 A 
ATOM     25  C   UNL     1      -3.616  -1.774  25.202  0.00  0.00    +0.020 A 
ATOM     26  C   UNL     1      -4.154  -2.173  24.719  0.00  0.00    +0.001 A 
ATOM     27  C   UNL     1      -4.098  -2.109  23.898  0.00  0.00    +0.000 A 
ATOM     28  C   UNL     1      -3.504  -1.647  23.560  0.00  0.00    +0.001 A 
ATOM     29  C   UNL     1      -2.967  -1.248  24.042  0.00  0.00    +0.020 A 
ENDBRANCH  21  24
ENDBRANCH  20  21
TORSDOF 8
ENDMDL
