MODEL 1
REMARK VINA RESULT:     -10.9      0.000      0.000
REMARK  Name = 
REMARK  6 active torsions:
REMARK  status: ('A' for Active; 'I' for Inactive)
REMARK    1  A    between atoms: O_2  and  C_3
REMARK    2  A    between atoms: C_3  and  C_5
REMARK    3  A    between atoms: C_5  and  N_7
REMARK    4  A    between atoms: C_8  and  C_10
REMARK    5  A    between atoms: N_18  and  C_19
REMARK    6  A    between atoms: C_25  and  C_27
REMARK                            x       y       z     vdW  Elec       q    Type
REMARK                         _______ _______ _______ _____ _____    ______ ____
ROOT
ATOM     10  C   UNL     1      -1.438   0.762  24.760  0.00  0.00    +0.175 C 
ATOM     11  C   UNL     1      -1.231   1.551  24.879  0.00  0.00    +0.123 C 
ATOM     12  N   UNL     1      -1.814   2.111  25.045  0.00  0.00    -0.272 N 
ATOM     13  C   UNL     1      -2.605   1.880  25.091  0.00  0.00    +0.115 C 
ATOM     14  C   UNL     1      -2.813   1.090  24.972  0.00  0.00    +0.117 C 
ATOM     15  N   UNL     1      -2.229   0.531  24.807  0.00  0.00    -0.253 N 
ATOM     16  C   UNL     1      -2.437  -0.259  24.688  0.00  0.00    +0.324 C 
ATOM     17  O   UNL     1      -1.853  -0.818  24.522  0.00  0.00    -0.251 OA
ATOM     18  N   UNL     1      -3.226  -0.489  24.735  0.00  0.00    -0.190 NA
ATOM     25  C   UNL     1      -1.607   2.900  25.163  0.00  0.00    +0.251 C 
ATOM     26  O   UNL     1      -0.815   3.130  25.116  0.00  0.00    -0.270 OA
ENDROOT
BRANCH  18  19
ATOM     19  C   UNL     1      -3.434  -1.278  24.616  0.00  0.00    +0.097 C 
ATOM     20  C   UNL     1      -3.301  -1.834  25.210  0.00  0.00    +0.022 C 
ATOM     21  C   UNL     1      -3.510  -2.624  25.090  0.00  0.00    +0.002 C 
ATOM     22  C   UNL     1      -3.851  -2.857  24.377  0.00  0.00    +0.000 C 
ATOM     23  C   UNL     1      -3.984  -2.301  23.783  0.00  0.00    +0.002 C 
ATOM     24  C   UNL     1      -3.776  -1.511  23.901  0.00  0.00    +0.022 C 
ENDBRANCH  18  19
BRANCH  25  27
ATOM     27  C   UNL     1      -2.190   3.460  25.329  0.00  0.00    +0.073 A 
ATOM     28  C   UNL     1      -2.633   3.788  24.717  0.00  0.00    +0.103 A 
ATOM     29  N   UNL     1      -3.215   4.348  24.883  0.00  0.00    -0.242 NA
ATOM     30  C   UNL     1      -3.355   4.578  25.662  0.00  0.00    +0.099 A 
ATOM     31  C   UNL     1      -2.912   4.250  26.276  0.00  0.00    +0.021 A 
ATOM     32  C   UNL     1      -2.329   3.690  26.109  0.00  0.00    +0.008 A 
ENDBRANCH  25  27
BRANCH  10   8
ATOM      7  N   UNL     1      -0.425   0.249  23.892  0.00  0.00    -0.194 NA
ATOM      8  C   UNL     1      -0.855   0.202  24.594  0.00  0.00    +0.262 C 
ATOM      9  O   UNL     1      -0.702  -0.407  25.132  0.00  0.00    -0.271 OA
BRANCH   7   5
ATOM      5  C   UNL     1       0.158  -0.311  23.727  0.00  0.00    +0.194 C 
ATOM      6  C   UNL     1       0.236  -0.979  24.206  0.00  0.00    +0.035 C 
BRANCH   5   3
ATOM      3  C   UNL     1       0.663  -0.204  23.083  0.00  0.00    +0.337 C 
ATOM      4  O   UNL     1       0.379  -0.305  22.315  0.00  0.00    -0.248 OA
BRANCH   3   2
ATOM      1  C   UNL     1       1.974   0.037  22.570  0.00  0.00    +0.256 C 
ATOM      2  O   UNL     1       1.452   0.004  23.207  0.00  0.00    -0.443 OA
ENDBRANCH   3   2
ENDBRANCH   5   3
ENDBRANCH   7   5
ENDBRANCH  10   8
TORSDOF 6
ENDMDL
MODEL 2
REMARK VINA RESULT:     -10.7      0.884      1.078
REMARK  Name = 
REMARK  6 active torsions:
REMARK  status: ('A' for Active; 'I' for Inactive)
REMARK    1  A    between atoms: O_2  and  C_3
REMARK    2  A    between atoms: C_3  and  C_5
REMARK    3  A    between atoms: C_5  and  N_7
REMARK    4  A    between atoms: C_8  and  C_10
REMARK    5  A    between atoms: N_18  and  C_19
REMARK    6  A    between atoms: C_25  and  C_27
REMARK                            x       y       z     vdW  Elec       q    Type
REMARK                         _______ _______ _______ _____ _____    ______ ____
ROOT
ATOM     10  C   UNL     1      -2.153   0.850  24.835  0.00  0.00    +0.175 C 
ATOM     11  C   UNL     1      -2.118   1.669  24.925  0.00  0.00    +0.123 C 
ATOM     12  N   UNL     1      -2.814   2.110  24.965  0.00  0.00    -0.272 N 
ATOM     13  C   UNL     1      -3.546   1.732  24.915  0.00  0.00    +0.115 C 
ATOM     14  C   UNL     1      -3.581   0.912  24.824  0.00  0.00    +0.117 C 
ATOM     15  N   UNL     1      -2.885   0.472  24.784  0.00  0.00    -0.253 N 
ATOM     16  C   UNL     1      -2.920  -0.348  24.694  0.00  0.00    +0.324 C 
ATOM     17  O   UNL     1      -2.224  -0.789  24.654  0.00  0.00    -0.251 OA
ATOM     18  N   UNL     1      -3.651  -0.726  24.644  0.00  0.00    -0.190 NA
ATOM     25  C   UNL     1      -2.779   2.929  25.056  0.00  0.00    +0.251 C 
ATOM     26  O   UNL     1      -2.047   3.308  25.106  0.00  0.00    -0.270 OA
ENDROOT
BRANCH  18  19
ATOM     19  C   UNL     1      -3.687  -1.545  24.553  0.00  0.00    +0.097 C 
ATOM     20  C   UNL     1      -3.481  -2.039  25.181  0.00  0.00    +0.022 C 
ATOM     21  C   UNL     1      -3.518  -2.859  25.089  0.00  0.00    +0.002 C 
ATOM     22  C   UNL     1      -3.759  -3.183  24.371  0.00  0.00    +0.000 C 
ATOM     23  C   UNL     1      -3.965  -2.689  23.743  0.00  0.00    +0.002 C 
ATOM     24  C   UNL     1      -3.929  -1.870  23.834  0.00  0.00    +0.022 C 
ENDBRANCH  18  19
BRANCH  25  27
ATOM     27  C   UNL     1      -3.475   3.371  25.096  0.00  0.00    +0.073 A 
ATOM     28  C   UNL     1      -3.843   3.497  25.823  0.00  0.00    +0.103 A 
ATOM     29  N   UNL     1      -4.538   3.938  25.862  0.00  0.00    -0.242 NA
ATOM     30  C   UNL     1      -4.866   4.254  25.174  0.00  0.00    +0.099 A 
ATOM     31  C   UNL     1      -4.498   4.128  24.446  0.00  0.00    +0.021 A 
ATOM     32  C   UNL     1      -3.803   3.687  24.407  0.00  0.00    +0.008 A 
ENDBRANCH  25  27
BRANCH  10   8
ATOM      7  N   UNL     1      -0.952   0.492  24.149  0.00  0.00    -0.194 NA
ATOM      8  C   UNL     1      -1.458   0.408  24.795  0.00  0.00    +0.262 C 
ATOM      9  O   UNL     1      -1.267  -0.118  25.403  0.00  0.00    -0.271 OA
BRANCH   7   5
ATOM      5  C   UNL     1      -0.256   0.050  24.109  0.00  0.00    +0.194 C 
ATOM      6  C   UNL     1      -0.152  -0.601  24.607  0.00  0.00    +0.035 C 
BRANCH   5   3
ATOM      3  C   UNL     1       0.334   0.257  23.572  0.00  0.00    +0.337 C 
ATOM      4  O   UNL     1       0.667   1.012  23.597  0.00  0.00    -0.248 OA
BRANCH   3   2
ATOM      1  C   UNL     1       1.260  -0.128  22.554  0.00  0.00    +0.256 C 
ATOM      2  O   UNL     1       0.592  -0.289  23.010  0.00  0.00    -0.443 OA
ENDBRANCH   3   2
ENDBRANCH   5   3
ENDBRANCH   7   5
ENDBRANCH  10   8
TORSDOF 6
ENDMDL
MODEL 3
REMARK VINA RESULT:     -10.4      2.077      5.496
REMARK  Name = 
REMARK  6 active torsions:
REMARK  status: ('A' for Active; 'I' for Inactive)
REMARK    1  A    between atoms: O_2  and  C_3
REMARK    2  A    between atoms: C_3  and  C_5
REMARK    3  A    between atoms: C_5  and  N_7
REMARK    4  A    between atoms: C_8  and  C_10
REMARK    5  A    between atoms: N_18  and  C_19
REMARK    6  A    between atoms: C_25  and  C_27
REMARK                            x       y       z     vdW  Elec       q    Type
REMARK                         _______ _______ _______ _____ _____    ______ ____
ROOT
ATOM     10  C   UNL     1      -3.284   1.010  24.402  0.00  0.00    +0.175 C 
ATOM     11  C   UNL     1      -3.813   0.390  24.282  0.00  0.00    +0.123 C 
ATOM     12  N   UNL     1      -3.581  -0.387  24.433  0.00  0.00    -0.272 N 
ATOM     13  C   UNL     1      -2.818  -0.544  24.703  0.00  0.00    +0.115 C 
ATOM     14  C   UNL     1      -2.286   0.077  24.824  0.00  0.00    +0.117 C 
ATOM     15  N   UNL     1      -2.520   0.853  24.673  0.00  0.00    -0.253 N 
ATOM     16  C   UNL     1      -1.989   1.474  24.793  0.00  0.00    +0.324 C 
ATOM     17  O   UNL     1      -2.223   2.251  24.643  0.00  0.00    -0.251 OA
ATOM     18  N   UNL     1      -1.226   1.317  25.064  0.00  0.00    -0.190 NA
ATOM     25  C   UNL     1      -4.111  -1.007  24.313  0.00  0.00    +0.251 C 
ATOM     26  O   UNL     1      -4.875  -0.850  24.042  0.00  0.00    -0.270 OA
ENDROOT
BRANCH  18  19
ATOM     19  C   UNL     1      -0.696   1.937  25.184  0.00  0.00    +0.097 C 
ATOM     20  C   UNL     1      -0.231   2.210  24.559  0.00  0.00    +0.022 C 
ATOM     21  C   UNL     1       0.300   2.830  24.681  0.00  0.00    +0.002 C 
ATOM     22  C   UNL     1       0.366   3.177  25.426  0.00  0.00    +0.000 C 
ATOM     23  C   UNL     1      -0.099   2.904  26.051  0.00  0.00    +0.002 C 
ATOM     24  C   UNL     1      -0.630   2.284  25.930  0.00  0.00    +0.022 C 
ENDBRANCH  18  19
BRANCH  25  27
ATOM     27  C   UNL     1      -3.879  -1.785  24.463  0.00  0.00    +0.073 A 
ATOM     28  C   UNL     1      -3.711  -2.024  25.234  0.00  0.00    +0.103 A 
ATOM     29  N   UNL     1      -3.479  -2.801  25.383  0.00  0.00    -0.242 NA
ATOM     30  C   UNL     1      -3.414  -3.339  24.761  0.00  0.00    +0.099 A 
ATOM     31  C   UNL     1      -3.581  -3.100  23.989  0.00  0.00    +0.021 A 
ATOM     32  C   UNL     1      -3.814  -2.323  23.841  0.00  0.00    +0.008 A 
ENDBRANCH  25  27
BRANCH  10   8
ATOM      7  N   UNL     1      -4.054   2.161  24.752  0.00  0.00    -0.194 NA
ATOM      8  C   UNL     1      -3.516   1.787  24.252  0.00  0.00    +0.262 C 
ATOM      9  O   UNL     1      -3.209   2.191  23.600  0.00  0.00    -0.271 OA
BRANCH   7   5
ATOM      5  C   UNL     1      -4.287   2.939  24.602  0.00  0.00    +0.194 C 
ATOM      6  C   UNL     1      -4.113   3.288  23.874  0.00  0.00    +0.035 C 
BRANCH   5   3
ATOM      3  C   UNL     1      -4.692   3.367  25.178  0.00  0.00    +0.337 C 
ATOM      4  O   UNL     1      -4.291   3.924  25.636  0.00  0.00    -0.248 OA
BRANCH   3   2
ATOM      1  C   UNL     1      -5.931   3.750  25.779  0.00  0.00    +0.256 C 
ATOM      2  O   UNL     1      -5.499   3.239  25.297  0.00  0.00    -0.443 OA
ENDBRANCH   3   2
ENDBRANCH   5   3
ENDBRANCH   7   5
ENDBRANCH  10   8
TORSDOF 6
ENDMDL
MODEL 4
REMARK VINA RESULT:      -9.8      1.641      4.620
REMARK  Name = 
REMARK  6 active torsions:
REMARK  status: ('A' for Active; 'I' for Inactive)
REMARK    1  A    between atoms: O_2  and  C_3
REMARK    2  A    between atoms: C_3  and  C_5
REMARK    3  A    between atoms: C_5  and  N_7
REMARK    4  A    between atoms: C_8  and  C_10
REMARK    5  A    between atoms: N_18  and  C_19
REMARK    6  A    between atoms: C_25  and  C_27
REMARK                            x       y       z     vdW  Elec       q    Type
REMARK                         _______ _______ _______ _____ _____    ______ ____
ROOT
ATOM     10  C   UNL     1      -1.894   0.721  24.581  0.00  0.00    +0.175 C 
ATOM     11  C   UNL     1      -1.680  -0.074  24.574  0.00  0.00    +0.123 C 
ATOM     12  N   UNL     1      -2.259  -0.659  24.633  0.00  0.00    -0.272 N 
ATOM     13  C   UNL     1      -3.053  -0.448  24.700  0.00  0.00    +0.115 C 
ATOM     14  C   UNL     1      -3.269   0.349  24.708  0.00  0.00    +0.117 C 
ATOM     15  N   UNL     1      -2.689   0.933  24.648  0.00  0.00    -0.253 N 
ATOM     16  C   UNL     1      -2.905   1.730  24.656  0.00  0.00    +0.324 C 
ATOM     17  O   UNL     1      -2.325   2.314  24.597  0.00  0.00    -0.251 OA
ATOM     18  N   UNL     1      -3.698   1.942  24.723  0.00  0.00    -0.190 NA
ATOM     25  C   UNL     1      -2.044  -1.455  24.625  0.00  0.00    +0.251 C 
ATOM     26  O   UNL     1      -1.248  -1.667  24.558  0.00  0.00    -0.270 OA
ENDROOT
BRANCH  18  19
ATOM     19  C   UNL     1      -3.914   2.738  24.731  0.00  0.00    +0.097 C 
ATOM     20  C   UNL     1      -4.037   3.140  24.021  0.00  0.00    +0.022 C 
ATOM     21  C   UNL     1      -4.253   3.936  24.030  0.00  0.00    +0.002 C 
ATOM     22  C   UNL     1      -4.346   4.331  24.748  0.00  0.00    +0.000 C 
ATOM     23  C   UNL     1      -4.222   3.929  25.458  0.00  0.00    +0.002 C 
ATOM     24  C   UNL     1      -4.006   3.133  25.450  0.00  0.00    +0.022 C 
ENDBRANCH  18  19
BRANCH  25  27
ATOM     27  C   UNL     1      -2.623  -2.040  24.685  0.00  0.00    +0.073 A 
ATOM     28  C   UNL     1      -2.857  -2.315  25.426  0.00  0.00    +0.103 A 
ATOM     29  N   UNL     1      -3.436  -2.900  25.484  0.00  0.00    -0.242 NA
ATOM     30  C   UNL     1      -3.780  -3.210  24.802  0.00  0.00    +0.099 A 
ATOM     31  C   UNL     1      -3.545  -2.935  24.060  0.00  0.00    +0.021 A 
ATOM     32  C   UNL     1      -2.967  -2.350  24.002  0.00  0.00    +0.008 A 
ENDBRANCH  25  27
BRANCH  10   8
ATOM      7  N   UNL     1      -0.816   1.460  25.160  0.00  0.00    -0.194 NA
ATOM      8  C   UNL     1      -1.316   1.306  24.522  0.00  0.00    +0.262 C 
ATOM      9  O   UNL     1      -1.237   1.739  23.823  0.00  0.00    -0.271 OA
BRANCH   7   5
ATOM      5  C   UNL     1      -0.237   2.045  25.100  0.00  0.00    +0.194 C 
ATOM      6  C   UNL     1       0.142   2.178  24.379  0.00  0.00    +0.035 C 
BRANCH   5   3
ATOM      3  C   UNL     1      -0.038   2.496  25.760  0.00  0.00    +0.337 C 
ATOM      4  O   UNL     1      -0.067   3.320  25.721  0.00  0.00    -0.248 OA
BRANCH   3   2
ATOM      1  C   UNL     1       0.471   2.575  27.094  0.00  0.00    +0.256 C 
ATOM      2  O   UNL     1       0.192   2.126  26.461  0.00  0.00    -0.443 OA
ENDBRANCH   3   2
ENDBRANCH   5   3
ENDBRANCH   7   5
ENDBRANCH  10   8
TORSDOF 6
ENDMDL
MODEL 5
REMARK VINA RESULT:      -9.1      1.301      4.663
REMARK  Name = 
REMARK  6 active torsions:
REMARK  status: ('A' for Active; 'I' for Inactive)
REMARK    1  A    between atoms: O_2  and  C_3
REMARK    2  A    between atoms: C_3  and  C_5
REMARK    3  A    between atoms: C_5  and  N_7
REMARK    4  A    between atoms: C_8  and  C_10
REMARK    5  A    between atoms: N_18  and  C_19
REMARK    6  A    between atoms: C_25  and  C_27
REMARK                            x       y       z     vdW  Elec       q    Type
REMARK                         _______ _______ _______ _____ _____    ______ ____
ROOT
ATOM     10  C   UNL     1      -1.581   0.227  24.463  0.00  0.00    +0.175 C 
ATOM     11  C   UNL     1      -0.926  -0.245  24.296  0.00  0.00    +0.123 C 
ATOM     12  N   UNL     1      -0.274   0.077  23.905  0.00  0.00    -0.272 N 
ATOM     13  C   UNL     1      -0.279   0.871  23.680  0.00  0.00    +0.115 C 
ATOM     14  C   UNL     1      -0.935   1.343  23.847  0.00  0.00    +0.117 C 
ATOM     15  N   UNL     1      -1.586   1.021  24.239  0.00  0.00    -0.253 N 
ATOM     16  C   UNL     1      -2.242   1.493  24.406  0.00  0.00    +0.324 C 
ATOM     17  O   UNL     1      -2.893   1.171  24.797  0.00  0.00    -0.251 OA
ATOM     18  N   UNL     1      -2.247   2.286  24.182  0.00  0.00    -0.190 NA
ATOM     25  C   UNL     1       0.381  -0.395  23.738  0.00  0.00    +0.251 C 
ATOM     26  O   UNL     1       0.386  -1.190  23.962  0.00  0.00    -0.270 OA
ENDROOT
BRANCH  18  19
ATOM     19  C   UNL     1      -2.902   2.758  24.348  0.00  0.00    +0.097 C 
ATOM     20  C   UNL     1      -3.539   2.781  23.824  0.00  0.00    +0.022 C 
ATOM     21  C   UNL     1      -4.194   3.254  23.992  0.00  0.00    +0.002 C 
ATOM     22  C   UNL     1      -4.213   3.704  24.683  0.00  0.00    +0.000 C 
ATOM     23  C   UNL     1      -3.576   3.681  25.207  0.00  0.00    +0.002 C 
ATOM     24  C   UNL     1      -2.921   3.209  25.040  0.00  0.00    +0.022 C 
ENDBRANCH  18  19
BRANCH  25  27
ATOM     27  C   UNL     1       1.032  -0.073  23.346  0.00  0.00    +0.073 A 
ATOM     28  C   UNL     1       1.510   0.481  23.726  0.00  0.00    +0.103 A 
ATOM     29  N   UNL     1       2.161   0.802  23.335  0.00  0.00    -0.242 NA
ATOM     30  C   UNL     1       2.334   0.568  22.563  0.00  0.00    +0.099 A 
ATOM     31  C   UNL     1       1.856   0.014  22.182  0.00  0.00    +0.021 A 
ATOM     32  C   UNL     1       1.205  -0.307  22.574  0.00  0.00    +0.008 A 
ENDBRANCH  25  27
BRANCH  10   8
ATOM      7  N   UNL     1      -2.698  -0.665  24.482  0.00  0.00    -0.194 NA
ATOM      8  C   UNL     1      -2.233  -0.095  24.854  0.00  0.00    +0.262 C 
ATOM      9  O   UNL     1      -2.419   0.155  25.619  0.00  0.00    -0.271 OA
BRANCH   7   5
ATOM      5  C   UNL     1      -3.350  -0.986  24.873  0.00  0.00    +0.194 C 
ATOM      6  C   UNL     1      -3.451  -0.855  25.683  0.00  0.00    +0.035 C 
BRANCH   5   3
ATOM      3  C   UNL     1      -3.900  -1.438  24.457  0.00  0.00    +0.337 C 
ATOM      4  O   UNL     1      -4.591  -1.088  24.174  0.00  0.00    -0.248 OA
BRANCH   3   2
ATOM      1  C   UNL     1      -4.274  -2.676  23.851  0.00  0.00    +0.256 C 
ATOM      2  O   UNL     1      -3.759  -2.240  24.324  0.00  0.00    -0.443 OA
ENDBRANCH   3   2
ENDBRANCH   5   3
ENDBRANCH   7   5
ENDBRANCH  10   8
TORSDOF 6
ENDMDL
MODEL 6
REMARK VINA RESULT:      -9.1      2.356      4.110
REMARK  Name = 
REMARK  6 active torsions:
REMARK  status: ('A' for Active; 'I' for Inactive)
REMARK    1  A    between atoms: O_2  and  C_3
REMARK    2  A    between atoms: C_3  and  C_5
REMARK    3  A    between atoms: C_5  and  N_7
REMARK    4  A    between atoms: C_8  and  C_10
REMARK    5  A    between atoms: N_18  and  C_19
REMARK    6  A    between atoms: C_25  and  C_27
REMARK                            x       y       z     vdW  Elec       q    Type
REMARK                         _______ _______ _______ _____ _____    ______ ____
ROOT
ATOM     10  C   UNL     1      -3.663   1.753  24.806  0.00  0.00    +0.175 C 
ATOM     11  C   UNL     1      -3.314   2.497  24.875  0.00  0.00    +0.123 C 
ATOM     12  N   UNL     1      -2.492   2.571  24.856  0.00  0.00    -0.272 N 
ATOM     13  C   UNL     1      -2.020   1.901  24.768  0.00  0.00    +0.115 C 
ATOM     14  C   UNL     1      -2.370   1.156  24.699  0.00  0.00    +0.117 C 
ATOM     15  N   UNL     1      -3.191   1.083  24.718  0.00  0.00    -0.253 N 
ATOM     16  C   UNL     1      -3.540   0.338  24.649  0.00  0.00    +0.324 C 
ATOM     17  O   UNL     1      -4.362   0.265  24.669  0.00  0.00    -0.251 OA
ATOM     18  N   UNL     1      -3.069  -0.332  24.561  0.00  0.00    -0.190 NA
ATOM     25  C   UNL     1      -2.143   3.315  24.924  0.00  0.00    +0.251 C 
ATOM     26  O   UNL     1      -2.616   3.986  25.013  0.00  0.00    -0.270 OA
ENDROOT
BRANCH  18  19
ATOM     19  C   UNL     1      -3.417  -1.077  24.493  0.00  0.00    +0.097 C 
ATOM     20  C   UNL     1      -3.802  -1.290  23.795  0.00  0.00    +0.022 C 
ATOM     21  C   UNL     1      -4.150  -2.035  23.727  0.00  0.00    +0.002 C 
ATOM     22  C   UNL     1      -4.114  -2.566  24.356  0.00  0.00    +0.000 C 
ATOM     23  C   UNL     1      -3.729  -2.353  25.054  0.00  0.00    +0.002 C 
ATOM     24  C   UNL     1      -3.381  -1.609  25.123  0.00  0.00    +0.022 C 
ENDBRANCH  18  19
BRANCH  25  27
ATOM     27  C   UNL     1      -1.322   3.389  24.905  0.00  0.00    +0.073 A 
ATOM     28  C   UNL     1      -0.934   3.509  24.188  0.00  0.00    +0.103 A 
ATOM     29  N   UNL     1      -0.114   3.583  24.169  0.00  0.00    -0.242 NA
ATOM     30  C   UNL     1       0.321   3.537  24.869  0.00  0.00    +0.099 A 
ATOM     31  C   UNL     1      -0.066   3.417  25.588  0.00  0.00    +0.021 A 
ATOM     32  C   UNL     1      -0.887   3.343  25.605  0.00  0.00    +0.008 A 
ENDBRANCH  25  27
BRANCH  10   8
ATOM      7  N   UNL     1      -4.910   1.960  25.474  0.00  0.00    -0.194 NA
ATOM      8  C   UNL     1      -4.485   1.679  24.825  0.00  0.00    +0.262 C 
ATOM      9  O   UNL     1      -4.882   1.324  24.194  0.00  0.00    -0.271 OA
BRANCH   7   5
ATOM      5  C   UNL     1      -5.731   1.885  25.493  0.00  0.00    +0.194 C 
ATOM      6  C   UNL     1      -6.146   1.706  24.801  0.00  0.00    +0.035 C 
BRANCH   5   3
ATOM      3  C   UNL     1      -6.139   1.990  26.201  0.00  0.00    +0.337 C 
ATOM      4  O   UNL     1      -6.158   2.733  26.560  0.00  0.00    -0.248 OA
BRANCH   3   2
ATOM      1  C   UNL     1      -6.821   1.420  27.320  0.00  0.00    +0.256 C 
ATOM      2  O   UNL     1      -6.528   1.353  26.553  0.00  0.00    -0.443 OA
ENDBRANCH   3   2
ENDBRANCH   5   3
ENDBRANCH   7   5
ENDBRANCH  10   8
TORSDOF 6
ENDMDL
MODEL 7
REMARK VINA RESULT:      -9.0      2.100      2.833
REMARK  Name = 
REMARK  6 active torsions:
REMARK  status: ('A' for Active; 'I' for Inactive)
REMARK    1  A    between atoms: O_2  and  C_3
REMARK    2  A    between atoms: C_3  and  C_5
REMARK    3  A    between atoms: C_5  and  N_7
REMARK    4  A    between atoms: C_8  and  C_10
REMARK    5  A    between atoms: N_18  and  C_19
REMARK    6  A    between atoms: C_25  and  C_27
REMARK                            x       y       z     vdW  Elec       q    Type
REMARK                         _______ _______ _______ _____ _____    ______ ____
ROOT
ATOM     10  C   UNL     1      -2.539   1.507  24.614  0.00  0.00    +0.175 C 
ATOM     11  C   UNL     1      -3.097   2.113  24.650  0.00  0.00    +0.123 C 
ATOM     12  N   UNL     1      -3.873   1.947  24.875  0.00  0.00    -0.272 N 
ATOM     13  C   UNL     1      -4.091   1.174  25.064  0.00  0.00    +0.115 C 
ATOM     14  C   UNL     1      -3.532   0.567  25.028  0.00  0.00    +0.117 C 
ATOM     15  N   UNL     1      -2.756   0.734  24.803  0.00  0.00    -0.253 N 
ATOM     16  C   UNL     1      -2.198   0.127  24.767  0.00  0.00    +0.324 C 
ATOM     17  O   UNL     1      -1.422   0.294  24.542  0.00  0.00    -0.251 OA
ATOM     18  N   UNL     1      -2.415  -0.645  24.956  0.00  0.00    -0.190 NA
ATOM     25  C   UNL     1      -4.431   2.553  24.911  0.00  0.00    +0.251 C 
ATOM     26  O   UNL     1      -4.213   3.327  24.721  0.00  0.00    -0.270 OA
ENDROOT
BRANCH  18  19
ATOM     19  C   UNL     1      -1.857  -1.251  24.921  0.00  0.00    +0.097 C 
ATOM     20  C   UNL     1      -1.234  -1.272  25.461  0.00  0.00    +0.022 C 
ATOM     21  C   UNL     1      -0.677  -1.879  25.424  0.00  0.00    +0.002 C 
ATOM     22  C   UNL     1      -0.742  -2.465  24.848  0.00  0.00    +0.000 C 
ATOM     23  C   UNL     1      -1.366  -2.445  24.308  0.00  0.00    +0.002 C 
ATOM     24  C   UNL     1      -1.924  -1.839  24.344  0.00  0.00    +0.022 C 
ENDBRANCH  18  19
BRANCH  25  27
ATOM     27  C   UNL     1      -5.207   2.387  25.136  0.00  0.00    +0.073 A 
ATOM     28  C   UNL     1      -5.741   2.085  24.585  0.00  0.00    +0.103 A 
ATOM     29  N   UNL     1      -6.517   1.919  24.811  0.00  0.00    -0.242 NA
ATOM     30  C   UNL     1      -6.758   2.056  25.588  0.00  0.00    +0.099 A 
ATOM     31  C   UNL     1      -6.225   2.358  26.139  0.00  0.00    +0.021 A 
ATOM     32  C   UNL     1      -5.449   2.523  25.913  0.00  0.00    +0.008 A 
ENDBRANCH  25  27
BRANCH  10   8
ATOM      7  N   UNL     1      -1.272   2.110  24.887  0.00  0.00    -0.194 NA
ATOM      8  C   UNL     1      -1.762   1.673  24.389  0.00  0.00    +0.262 C 
ATOM      9  O   UNL     1      -1.476   1.401  23.663  0.00  0.00    -0.271 OA
BRANCH   7   5
ATOM      5  C   UNL     1      -0.496   2.276  24.662  0.00  0.00    +0.194 C 
ATOM      6  C   UNL     1      -0.312   2.385  23.864  0.00  0.00    +0.035 C 
BRANCH   5   3
ATOM      3  C   UNL     1       0.097   2.332  25.233  0.00  0.00    +0.337 C 
ATOM      4  O   UNL     1       0.848   2.028  25.079  0.00  0.00    -0.248 OA
BRANCH   3   2
ATOM      1  C   UNL     1       0.459   2.594  26.590  0.00  0.00    +0.256 C 
ATOM      2  O   UNL     1      -0.061   2.693  25.958  0.00  0.00    -0.443 OA
ENDBRANCH   3   2
ENDBRANCH   5   3
ENDBRANCH   7   5
ENDBRANCH  10   8
TORSDOF 6
ENDMDL
MODEL 8
REMARK VINA RESULT:      -8.8      2.034      4.529
REMARK  Name = 
REMARK  6 active torsions:
REMARK  status: ('A' for Active; 'I' for Inactive)
REMARK    1  A    between atoms: O_2  and  C_3
REMARK    2  A    between atoms: C_3  and  C_5
REMARK    3  A    between atoms: C_5  and  N_7
REMARK    4  A    between atoms: C_8  and  C_10
REMARK    5  A    between atoms: N_18  and  C_19
REMARK    6  A    between atoms: C_25  and  C_27
REMARK                            x       y       z     vdW  Elec       q    Type
REMARK                         _______ _______ _______ _____ _____    ______ ____
ROOT
ATOM     10  C   UNL     1      -2.527   1.495  24.511  0.00  0.00    +0.175 C 
ATOM     11  C   UNL     1      -1.811   1.101  24.401  0.00  0.00    +0.123 C 
ATOM     12  N   UNL     1      -1.750   0.297  24.579  0.00  0.00    -0.272 N 
ATOM     13  C   UNL     1      -2.406  -0.112  24.868  0.00  0.00    +0.115 C 
ATOM     14  C   UNL     1      -3.123   0.283  24.979  0.00  0.00    +0.117 C 
ATOM     15  N   UNL     1      -3.182   1.086  24.801  0.00  0.00    -0.253 N 
ATOM     16  C   UNL     1      -3.899   1.481  24.912  0.00  0.00    +0.324 C 
ATOM     17  O   UNL     1      -3.959   2.284  24.733  0.00  0.00    -0.251 OA
ATOM     18  N   UNL     1      -4.554   1.073  25.201  0.00  0.00    -0.190 NA
ATOM     25  C   UNL     1      -1.035  -0.097  24.468  0.00  0.00    +0.251 C 
ATOM     26  O   UNL     1      -0.378   0.312  24.179  0.00  0.00    -0.270 OA
ENDROOT
BRANCH  18  19
ATOM     19  C   UNL     1      -5.270   1.466  25.312  0.00  0.00    +0.097 C 
ATOM     20  C   UNL     1      -5.414   1.871  26.016  0.00  0.00    +0.022 C 
ATOM     21  C   UNL     1      -6.131   2.265  26.126  0.00  0.00    +0.002 C 
ATOM     22  C   UNL     1      -6.703   2.254  25.533  0.00  0.00    +0.000 C 
ATOM     23  C   UNL     1      -6.559   1.849  24.829  0.00  0.00    +0.002 C 
ATOM     24  C   UNL     1      -5.843   1.455  24.718  0.00  0.00    +0.022 C 
ENDBRANCH  18  19
BRANCH  25  27
ATOM     27  C   UNL     1      -0.974  -0.900  24.647  0.00  0.00    +0.073 A 
ATOM     28  C   UNL     1      -0.662  -1.140  25.371  0.00  0.00    +0.103 A 
ATOM     29  N   UNL     1      -0.601  -1.943  25.549  0.00  0.00    -0.242 NA
ATOM     30  C   UNL     1      -0.852  -2.506  25.001  0.00  0.00    +0.099 A 
ATOM     31  C   UNL     1      -1.164  -2.268  24.276  0.00  0.00    +0.021 A 
ATOM     32  C   UNL     1      -1.225  -1.464  24.099  0.00  0.00    +0.008 A 
ENDBRANCH  25  27
BRANCH  10   8
ATOM      7  N   UNL     1      -2.238   2.859  24.826  0.00  0.00    -0.194 NA
ATOM      8  C   UNL     1      -2.588   2.298  24.333  0.00  0.00    +0.262 C 
ATOM      9  O   UNL     1      -3.001   2.541  23.660  0.00  0.00    -0.271 OA
BRANCH   7   5
ATOM      5  C   UNL     1      -2.299   3.662  24.648  0.00  0.00    +0.194 C 
ATOM      6  C   UNL     1      -2.804   3.913  24.045  0.00  0.00    +0.035 C 
BRANCH   5   3
ATOM      3  C   UNL     1      -1.856   4.214  25.070  0.00  0.00    +0.337 C 
ATOM      4  O   UNL     1      -2.160   4.544  25.763  0.00  0.00    -0.248 OA
BRANCH   3   2
ATOM      1  C   UNL     1      -0.786   5.161  25.030  0.00  0.00    +0.256 C 
ATOM      2  O   UNL     1      -1.108   4.436  24.802  0.00  0.00    -0.443 OA
ENDBRANCH   3   2
ENDBRANCH   5   3
ENDBRANCH   7   5
ENDBRANCH  10   8
TORSDOF 6
ENDMDL
