MODEL 1
REMARK VINA RESULT:     -11.2      0.000      0.000
REMARK  Name = 
REMARK  6 active torsions:
REMARK  status: ('A' for Active; 'I' for Inactive)
REMARK    1  A    between atoms: O_2  and  C_3
REMARK    2  A    between atoms: C_4  and  C_9
REMARK    3  A    between atoms: C_13  and  C_15
REMARK    4  A    between atoms: C_22  and  C_23
REMARK    5  A    between atoms: C_23  and  N_24
REMARK    6  A    between atoms: N_24  and  S_25
REMARK                            x       y       z     vdW  Elec       q    Type
REMARK                         _______ _______ _______ _____ _____    ______ ____
ROOT
ATOM      9  C   UNL     1      -4.110  -0.325  24.621  0.00  0.00    +0.105 A 
ATOM     10  N   UNL     1      -4.830   0.044  24.780  0.00  0.00    -0.169 NA
ATOM     11  N   UNL     1      -4.695   0.856  24.824  0.00  0.00    -0.253 N 
ATOM     12  C   UNL     1      -5.264   1.435  24.973  0.00  0.00    +0.153 C 
ATOM     13  C   UNL     1      -3.892   0.989  24.691  0.00  0.00    +0.058 A 
ATOM     14  C   UNL     1      -3.530   0.259  24.566  0.00  0.00    +0.035 A 
ENDROOT
BRANCH  13  15
ATOM     15  C   UNL     1      -3.516   1.725  24.686  0.00  0.00    +0.056 C 
ATOM     16  C   UNL     1      -3.533   2.138  25.345  0.00  0.00    +0.078 C 
ATOM     17  N   UNL     1      -3.174   2.364  24.636  0.00  0.00    -0.272 NA
ATOM     18  C   UNL     1      -3.331   1.589  23.949  0.00  0.00    +0.072 C 
ATOM     19  C   UNL     1      -3.254   1.335  23.352  0.00  0.00    +0.018 C 
ATOM     20  C   UNL     1      -3.162   1.953  23.994  0.00  0.00    +0.010 C 
ATOM     21  C   UNL     1      -2.718   2.677  23.773  0.00  0.00    +0.018 C 
ATOM     22  C   UNL     1      -2.712   3.114  24.399  0.00  0.00    +0.077 C 
BRANCH  22  23
ATOM     23  C   UNL     1      -2.444   3.838  24.689  0.00  0.00    +0.131 C 
BRANCH  23  24
ATOM     24  N   UNL     1      -1.662   3.918  24.941  0.00  0.00    -0.081 NA
BRANCH  24  25
ATOM     25  S   UNL     1      -1.324   4.668  25.001  0.00  0.00    +0.059 S 
ATOM     26  C   UNL     1      -0.986   5.418  25.061  0.00  0.00    +0.197 C 
ATOM     27  O   UNL     1      -0.683   4.414  24.549  0.00  0.00    -0.156 OA
ATOM     28  O   UNL     1      -1.965   4.922  25.453  0.00  0.00    -0.156 OA
ENDBRANCH  24  25
ENDBRANCH  23  24
ENDBRANCH  22  23
ENDBRANCH  13  15
BRANCH   9   4
ATOM      3  C   UNL     1      -3.646  -1.573  25.141  0.00  0.00    +0.140 A 
ATOM      4  C   UNL     1      -3.991  -1.137  24.532  0.00  0.00    +0.053 A 
ATOM      5  C   UNL     1      -4.217  -1.513  23.833  0.00  0.00    +0.005 A 
ATOM      6  C   UNL     1      -4.097  -2.325  23.743  0.00  0.00    +0.000 A 
ATOM      7  C   UNL     1      -3.752  -2.760  24.353  0.00  0.00    +0.003 A 
ATOM      8  C   UNL     1      -3.526  -2.384  25.052  0.00  0.00    +0.037 A 
BRANCH   3   2
ATOM      1  C   UNL     1      -3.053  -1.628  26.439  0.00  0.00    +0.252 C 
ATOM      2  O   UNL     1      -3.420  -1.197  25.840  0.00  0.00    -0.471 OA
ENDBRANCH   3   2
ENDBRANCH   9   4
TORSDOF 6
ENDMDL
MODEL 2
REMARK VINA RESULT:     -10.1      1.840      5.187
REMARK  Name = 
REMARK  6 active torsions:
REMARK  status: ('A' for Active; 'I' for Inactive)
REMARK    1  A    between atoms: O_2  and  C_3
REMARK    2  A    between atoms: C_4  and  C_9
REMARK    3  A    between atoms: C_13  and  C_15
REMARK    4  A    between atoms: C_22  and  C_23
REMARK    5  A    between atoms: C_23  and  N_24
REMARK    6  A    between atoms: N_24  and  S_25
REMARK                            x       y       z     vdW  Elec       q    Type
REMARK                         _______ _______ _______ _____ _____    ______ ____
ROOT
ATOM      9  C   UNL     1      -2.633   3.013  24.364  0.00  0.00    +0.105 A 
ATOM     10  N   UNL     1      -2.913   3.067  23.590  0.00  0.00    -0.169 NA
ATOM     11  N   UNL     1      -3.204   2.326  23.373  0.00  0.00    -0.253 N 
ATOM     12  C   UNL     1      -3.537   2.130  22.644  0.00  0.00    +0.153 C 
ATOM     13  C   UNL     1      -3.104   1.815  24.013  0.00  0.00    +0.058 A 
ATOM     14  C   UNL     1      -2.751   2.240  24.626  0.00  0.00    +0.035 A 
ENDROOT
BRANCH  13  15
ATOM     15  C   UNL     1      -3.320   1.018  24.036  0.00  0.00    +0.056 C 
ATOM     16  C   UNL     1      -2.902   0.524  23.603  0.00  0.00    +0.078 C 
ATOM     17  N   UNL     1      -3.543   0.328  24.086  0.00  0.00    -0.272 NA
ATOM     18  C   UNL     1      -3.880   1.217  24.529  0.00  0.00    +0.072 C 
ATOM     19  C   UNL     1      -4.292   1.533  24.924  0.00  0.00    +0.018 C 
ATOM     20  C   UNL     1      -3.947   0.818  24.507  0.00  0.00    +0.010 C 
ATOM     21  C   UNL     1      -4.335   0.049  24.675  0.00  0.00    +0.018 C 
ATOM     22  C   UNL     1      -3.951  -0.468  24.265  0.00  0.00    +0.077 C 
BRANCH  22  23
ATOM     23  C   UNL     1      -3.923  -1.273  24.089  0.00  0.00    +0.131 C 
BRANCH  23  24
ATOM     24  N   UNL     1      -3.916  -1.829  24.698  0.00  0.00    -0.081 NA
BRANCH  24  25
ATOM     25  S   UNL     1      -3.692  -2.608  24.542  0.00  0.00    +0.059 S 
ATOM     26  C   UNL     1      -3.467  -3.386  24.387  0.00  0.00    +0.197 C 
ATOM     27  O   UNL     1      -3.155  -2.577  25.168  0.00  0.00    -0.156 OA
ATOM     28  O   UNL     1      -4.228  -2.638  23.917  0.00  0.00    -0.156 OA
ENDBRANCH  24  25
ENDBRANCH  23  24
ENDBRANCH  22  23
ENDBRANCH  13  15
BRANCH   9   4
ATOM      3  C   UNL     1      -1.478   3.739  24.789  0.00  0.00    +0.140 A 
ATOM      4  C   UNL     1      -2.295   3.626  24.800  0.00  0.00    +0.053 A 
ATOM      5  C   UNL     1      -2.774   4.127  25.248  0.00  0.00    +0.005 A 
ATOM      6  C   UNL     1      -2.435   4.741  25.685  0.00  0.00    +0.000 A 
ATOM      7  C   UNL     1      -1.619   4.853  25.673  0.00  0.00    +0.003 A 
ATOM      8  C   UNL     1      -1.139   4.352  25.225  0.00  0.00    +0.037 A 
BRANCH   3   2
ATOM      1  C   UNL     1      -0.180   3.334  24.351  0.00  0.00    +0.252 C 
ATOM      2  O   UNL     1      -0.999   3.239  24.341  0.00  0.00    -0.471 OA
ENDBRANCH   3   2
ENDBRANCH   9   4
TORSDOF 6
ENDMDL
MODEL 3
REMARK VINA RESULT:      -9.7      2.049      5.329
REMARK  Name = 
REMARK  6 active torsions:
REMARK  status: ('A' for Active; 'I' for Inactive)
REMARK    1  A    between atoms: O_2  and  C_3
REMARK    2  A    between atoms: C_4  and  C_9
REMARK    3  A    between atoms: C_13  and  C_15
REMARK    4  A    between atoms: C_22  and  C_23
REMARK    5  A    between atoms: C_23  and  N_24
REMARK    6  A    between atoms: N_24  and  S_25
REMARK                            x       y       z     vdW  Elec       q    Type
REMARK                         _______ _______ _______ _____ _____    ______ ____
ROOT
ATOM      9  C   UNL     1      -1.966   3.000  24.407  0.00  0.00    +0.105 A 
ATOM     10  N   UNL     1      -2.132   2.830  23.617  0.00  0.00    -0.169 NA
ATOM     11  N   UNL     1      -2.349   2.036  23.568  0.00  0.00    -0.253 N 
ATOM     12  C   UNL     1      -2.561   1.633  22.880  0.00  0.00    +0.153 C 
ATOM     13  C   UNL     1      -2.317   1.715  24.327  0.00  0.00    +0.058 A 
ATOM     14  C   UNL     1      -2.080   2.311  24.846  0.00  0.00    +0.035 A 
ENDROOT
BRANCH  13  15
ATOM     15  C   UNL     1      -2.491   0.934  24.532  0.00  0.00    +0.056 C 
ATOM     16  C   UNL     1      -3.220   0.689  24.411  0.00  0.00    +0.078 C 
ATOM     17  N   UNL     1      -2.601   0.242  24.725  0.00  0.00    -0.272 NA
ATOM     18  C   UNL     1      -1.756   0.863  24.757  0.00  0.00    +0.072 C 
ATOM     19  C   UNL     1      -1.126   0.957  24.900  0.00  0.00    +0.018 C 
ATOM     20  C   UNL     1      -1.889   0.490  24.841  0.00  0.00    +0.010 C 
ATOM     21  C   UNL     1      -1.855  -0.342  25.119  0.00  0.00    +0.018 C 
ATOM     22  C   UNL     1      -2.558  -0.622  25.016  0.00  0.00    +0.077 C 
BRANCH  22  23
ATOM     23  C   UNL     1      -3.011  -1.304  25.112  0.00  0.00    +0.131 C 
BRANCH  23  24
ATOM     24  N   UNL     1      -2.702  -2.039  24.900  0.00  0.00    -0.081 NA
BRANCH  24  25
ATOM     25  S   UNL     1      -3.206  -2.681  24.786  0.00  0.00    +0.059 S 
ATOM     26  C   UNL     1      -3.712  -3.323  24.673  0.00  0.00    +0.197 C 
ATOM     27  O   UNL     1      -3.493  -2.590  25.554  0.00  0.00    -0.156 OA
ATOM     28  O   UNL     1      -2.920  -2.772  24.018  0.00  0.00    -0.156 OA
ENDBRANCH  24  25
ENDBRANCH  23  24
ENDBRANCH  22  23
ENDBRANCH  13  15
BRANCH   9   4
ATOM      3  C   UNL     1      -2.257   4.194  25.138  0.00  0.00    +0.140 A 
ATOM      4  C   UNL     1      -1.728   3.731  24.706  0.00  0.00    +0.053 A 
ATOM      5  C   UNL     1      -0.959   4.000  24.573  0.00  0.00    +0.005 A 
ATOM      6  C   UNL     1      -0.720   4.732  24.872  0.00  0.00    +0.000 A 
ATOM      7  C   UNL     1      -1.250   5.194  25.303  0.00  0.00    +0.003 A 
ATOM      8  C   UNL     1      -2.018   4.924  25.437  0.00  0.00    +0.037 A 
BRANCH   3   2
ATOM      1  C   UNL     1      -3.525   4.340  25.778  0.00  0.00    +0.252 C 
ATOM      2  O   UNL     1      -3.025   3.924  25.271  0.00  0.00    -0.471 OA
ENDBRANCH   3   2
ENDBRANCH   9   4
TORSDOF 6
ENDMDL
MODEL 4
REMARK VINA RESULT:      -9.7      2.735      4.080
REMARK  Name = 
REMARK  6 active torsions:
REMARK  status: ('A' for Active; 'I' for Inactive)
REMARK    1  A    between atoms: O_2  and  C_3
REMARK    2  A    between atoms: C_4  and  C_9
REMARK    3  A    between atoms: C_13  and  C_15
REMARK    4  A    between atoms: C_22  and  C_23
REMARK    5  A    between atoms: C_23  and  N_24
REMARK    6  A    between atoms: N_24  and  S_25
REMARK                            x       y       z     vdW  Elec       q    Type
REMARK                         _______ _______ _______ _____ _____    ______ ____
ROOT
ATOM      9  C   UNL     1      -3.833   2.150  24.346  0.00  0.00    +0.105 A 
ATOM     10  N   UNL     1      -3.817   2.336  23.543  0.00  0.00    -0.169 NA
ATOM     11  N   UNL     1      -3.086   2.103  23.241  0.00  0.00    -0.253 N 
ATOM     12  C   UNL     1      -2.835   2.185  22.459  0.00  0.00    +0.153 C 
ATOM     13  C   UNL     1      -2.650   1.772  23.858  0.00  0.00    +0.058 A 
ATOM     14  C   UNL     1      -3.111   1.801  24.541  0.00  0.00    +0.035 A 
ENDROOT
BRANCH  13  15
ATOM     15  C   UNL     1      -1.885   1.465  23.801  0.00  0.00    +0.056 C 
ATOM     16  C   UNL     1      -1.332   1.937  23.524  0.00  0.00    +0.078 C 
ATOM     17  N   UNL     1      -1.228   1.156  23.768  0.00  0.00    -0.272 NA
ATOM     18  C   UNL     1      -2.163   0.803  24.085  0.00  0.00    +0.072 C 
ATOM     19  C   UNL     1      -2.538   0.326  24.326  0.00  0.00    +0.018 C 
ATOM     20  C   UNL     1      -1.775   0.699  24.039  0.00  0.00    +0.010 C 
ATOM     21  C   UNL     1      -1.063   0.187  24.063  0.00  0.00    +0.018 C 
ATOM     22  C   UNL     1      -0.491   0.618  23.796  0.00  0.00    +0.077 C 
BRANCH  22  23
ATOM     23  C   UNL     1       0.316   0.604  23.631  0.00  0.00    +0.131 C 
BRANCH  23  24
ATOM     24  N   UNL     1       0.639  -0.021  23.199  0.00  0.00    -0.081 NA
BRANCH  24  25
ATOM     25  S   UNL     1       1.397   0.046  22.883  0.00  0.00    +0.059 S 
ATOM     26  C   UNL     1       2.156   0.112  22.565  0.00  0.00    +0.197 C 
ATOM     27  O   UNL     1       1.137  -0.311  22.186  0.00  0.00    -0.156 OA
ATOM     28  O   UNL     1       1.658   0.402  23.579  0.00  0.00    -0.156 OA
ENDBRANCH  24  25
ENDBRANCH  23  24
ENDBRANCH  22  23
ENDBRANCH  13  15
BRANCH   9   4
ATOM      3  C   UNL     1      -4.446   2.943  25.364  0.00  0.00    +0.140 A 
ATOM      4  C   UNL     1      -4.460   2.288  24.864  0.00  0.00    +0.053 A 
ATOM      5  C   UNL     1      -5.102   1.770  24.881  0.00  0.00    +0.005 A 
ATOM      6  C   UNL     1      -5.730   1.908  25.399  0.00  0.00    +0.000 A 
ATOM      7  C   UNL     1      -5.715   2.563  25.899  0.00  0.00    +0.003 A 
ATOM      8  C   UNL     1      -5.073   3.081  25.882  0.00  0.00    +0.037 A 
BRANCH   3   2
ATOM      1  C   UNL     1      -3.758   4.079  25.891  0.00  0.00    +0.252 C 
ATOM      2  O   UNL     1      -3.804   3.461  25.347  0.00  0.00    -0.471 OA
ENDBRANCH   3   2
ENDBRANCH   9   4
TORSDOF 6
ENDMDL
MODEL 5
REMARK VINA RESULT:      -9.4      2.008      2.481
REMARK  Name = 
REMARK  6 active torsions:
REMARK  status: ('A' for Active; 'I' for Inactive)
REMARK    1  A    between atoms: O_2  and  C_3
REMARK    2  A    between atoms: C_4  and  C_9
REMARK    3  A    between atoms: C_13  and  C_15
REMARK    4  A    between atoms: C_22  and  C_23
REMARK    5  A    between atoms: C_23  and  N_24
REMARK    6  A    between atoms: N_24  and  S_25
REMARK                            x       y       z     vdW  Elec       q    Type
REMARK                         _______ _______ _______ _____ _____    ______ ____
ROOT
ATOM      9  C   UNL     1      -1.894  -0.989  24.522  0.00  0.00    +0.105 A 
ATOM     10  N   UNL     1      -1.182  -1.040  24.108  0.00  0.00    -0.169 NA
ATOM     11  N   UNL     1      -0.835  -0.292  24.106  0.00  0.00    -0.253 N 
ATOM     12  C   UNL     1      -0.116  -0.091  23.753  0.00  0.00    +0.153 C 
ATOM     13  C   UNL     1      -1.332   0.221  24.519  0.00  0.00    +0.058 A 
ATOM     14  C   UNL     1      -1.987  -0.209  24.776  0.00  0.00    +0.035 A 
ENDROOT
BRANCH  13  15
ATOM     15  C   UNL     1      -1.197   1.026  24.651  0.00  0.00    +0.056 C 
ATOM     16  C   UNL     1      -1.286   1.506  24.045  0.00  0.00    +0.078 C 
ATOM     17  N   UNL     1      -1.068   1.723  24.811  0.00  0.00    -0.272 NA
ATOM     18  C   UNL     1      -1.037   0.846  25.385  0.00  0.00    +0.072 C 
ATOM     19  C   UNL     1      -0.935   0.542  25.954  0.00  0.00    +0.018 C 
ATOM     20  C   UNL     1      -0.983   1.246  25.400  0.00  0.00    +0.010 C 
ATOM     21  C   UNL     1      -0.796   2.028  25.752  0.00  0.00    +0.018 C 
ATOM     22  C   UNL     1      -0.873   2.533  25.184  0.00  0.00    +0.077 C 
BRANCH  22  23
ATOM     23  C   UNL     1      -0.814   3.336  25.011  0.00  0.00    +0.131 C 
BRANCH  23  24
ATOM     24  N   UNL     1      -1.203   3.890  25.483  0.00  0.00    -0.081 NA
BRANCH  24  25
ATOM     25  S   UNL     1      -1.286   4.668  25.221  0.00  0.00    +0.059 S 
ATOM     26  C   UNL     1      -1.370   5.446  24.960  0.00  0.00    +0.197 C 
ATOM     27  O   UNL     1      -2.078   4.661  25.454  0.00  0.00    -0.156 OA
ATOM     28  O   UNL     1      -0.496   4.676  24.988  0.00  0.00    -0.156 OA
ENDBRANCH  24  25
ENDBRANCH  23  24
ENDBRANCH  22  23
ENDBRANCH  13  15
BRANCH   9   4
ATOM      3  C   UNL     1      -3.193  -1.565  24.371  0.00  0.00    +0.140 A 
ATOM      4  C   UNL     1      -2.421  -1.608  24.658  0.00  0.00    +0.053 A 
ATOM      5  C   UNL     1      -2.176  -2.273  25.081  0.00  0.00    +0.005 A 
ATOM      6  C   UNL     1      -2.703  -2.894  25.217  0.00  0.00    +0.000 A 
ATOM      7  C   UNL     1      -3.475  -2.849  24.930  0.00  0.00    +0.003 A 
ATOM      8  C   UNL     1      -3.720  -2.184  24.507  0.00  0.00    +0.037 A 
BRANCH   3   2
ATOM      1  C   UNL     1      -4.233  -0.810  23.745  0.00  0.00    +0.252 C 
ATOM      2  O   UNL     1      -3.439  -0.900  23.948  0.00  0.00    -0.471 OA
ENDBRANCH   3   2
ENDBRANCH   9   4
TORSDOF 6
ENDMDL
MODEL 6
REMARK VINA RESULT:      -9.3      3.553      4.315
REMARK  Name = 
REMARK  6 active torsions:
REMARK  status: ('A' for Active; 'I' for Inactive)
REMARK    1  A    between atoms: O_2  and  C_3
REMARK    2  A    between atoms: C_4  and  C_9
REMARK    3  A    between atoms: C_13  and  C_15
REMARK    4  A    between atoms: C_22  and  C_23
REMARK    5  A    between atoms: C_23  and  N_24
REMARK    6  A    between atoms: N_24  and  S_25
REMARK                            x       y       z     vdW  Elec       q    Type
REMARK                         _______ _______ _______ _____ _____    ______ ____
ROOT
ATOM      9  C   UNL     1      -2.426   0.943  24.839  0.00  0.00    +0.105 A 
ATOM     10  N   UNL     1      -1.974   1.307  25.424  0.00  0.00    -0.169 NA
ATOM     11  N   UNL     1      -1.183   1.279  25.190  0.00  0.00    -0.253 N 
ATOM     12  C   UNL     1      -0.541   1.579  25.612  0.00  0.00    +0.153 C 
ATOM     13  C   UNL     1      -1.147   0.897  24.460  0.00  0.00    +0.058 A 
ATOM     14  C   UNL     1      -1.915   0.689  24.242  0.00  0.00    +0.035 A 
ENDROOT
BRANCH  13  15
ATOM     15  C   UNL     1      -0.462   0.748  24.023  0.00  0.00    +0.056 C 
ATOM     16  C   UNL     1      -0.110   1.360  23.694  0.00  0.00    +0.078 C 
ATOM     17  N   UNL     1       0.136   0.573  23.649  0.00  0.00    -0.272 NA
ATOM     18  C   UNL     1      -0.552   0.001  24.196  0.00  0.00    +0.072 C 
ATOM     19  C   UNL     1      -0.758  -0.576  24.422  0.00  0.00    +0.018 C 
ATOM     20  C   UNL     1      -0.215  -0.021  23.974  0.00  0.00    +0.010 C 
ATOM     21  C   UNL     1       0.470  -0.394  23.571  0.00  0.00    +0.018 C 
ATOM     22  C   UNL     1       0.846   0.178  23.233  0.00  0.00    +0.077 C 
BRANCH  22  23
ATOM     23  C   UNL     1       1.505   0.343  22.766  0.00  0.00    +0.131 C 
BRANCH  23  24
ATOM     24  N   UNL     1       2.254   0.097  23.008  0.00  0.00    -0.081 NA
BRANCH  24  25
ATOM     25  S   UNL     1       2.923   0.346  22.594  0.00  0.00    +0.059 S 
ATOM     26  C   UNL     1       3.592   0.595  22.181  0.00  0.00    +0.197 C 
ATOM     27  O   UNL     1       3.179   0.761  23.260  0.00  0.00    -0.156 OA
ATOM     28  O   UNL     1       2.667  -0.069  21.929  0.00  0.00    -0.156 OA
ENDBRANCH  24  25
ENDBRANCH  23  24
ENDBRANCH  22  23
ENDBRANCH  13  15
BRANCH   9   4
ATOM      3  C   UNL     1      -3.734   1.455  24.575  0.00  0.00    +0.140 A 
ATOM      4  C   UNL     1      -3.245   0.849  24.848  0.00  0.00    +0.053 A 
ATOM      5  C   UNL     1      -3.577   0.148  25.130  0.00  0.00    +0.005 A 
ATOM      6  C   UNL     1      -4.397   0.054  25.139  0.00  0.00    +0.000 A 
ATOM      7  C   UNL     1      -4.885   0.660  24.866  0.00  0.00    +0.003 A 
ATOM      8  C   UNL     1      -4.553   1.361  24.584  0.00  0.00    +0.037 A 
BRANCH   3   2
ATOM      1  C   UNL     1      -3.889   2.756  24.005  0.00  0.00    +0.252 C 
ATOM      2  O   UNL     1      -3.402   2.156  24.293  0.00  0.00    -0.471 OA
ENDBRANCH   3   2
ENDBRANCH   9   4
TORSDOF 6
ENDMDL
MODEL 7
REMARK VINA RESULT:      -9.0      3.458      4.039
REMARK  Name = 
REMARK  6 active torsions:
REMARK  status: ('A' for Active; 'I' for Inactive)
REMARK    1  A    between atoms: O_2  and  C_3
REMARK    2  A    between atoms: C_4  and  C_9
REMARK    3  A    between atoms: C_13  and  C_15
REMARK    4  A    between atoms: C_22  and  C_23
REMARK    5  A    between atoms: C_23  and  N_24
REMARK    6  A    between atoms: N_24  and  S_25
REMARK                            x       y       z     vdW  Elec       q    Type
REMARK                         _______ _______ _______ _____ _____    ______ ____
ROOT
ATOM      9  C   UNL     1      -2.608  -0.062  24.869  0.00  0.00    +0.105 A 
ATOM     10  N   UNL     1      -2.241  -0.457  25.493  0.00  0.00    -0.169 NA
ATOM     11  N   UNL     1      -1.435  -0.506  25.325  0.00  0.00    -0.253 N 
ATOM     12  C   UNL     1      -0.861  -0.858  25.802  0.00  0.00    +0.153 C 
ATOM     13  C   UNL     1      -1.304  -0.141  24.597  0.00  0.00    +0.058 A 
ATOM     14  C   UNL     1      -2.029   0.134  24.315  0.00  0.00    +0.035 A 
ENDROOT
BRANCH  13  15
ATOM     15  C   UNL     1      -0.574  -0.064  24.218  0.00  0.00    +0.056 C 
ATOM     16  C   UNL     1      -0.208  -0.720  24.015  0.00  0.00    +0.078 C 
ATOM     17  N   UNL     1       0.063   0.049  23.887  0.00  0.00    -0.272 NA
ATOM     18  C   UNL     1      -0.661   0.701  24.275  0.00  0.00    +0.072 C 
ATOM     19  C   UNL     1      -0.873   1.307  24.396  0.00  0.00    +0.018 C 
ATOM     20  C   UNL     1      -0.303   0.687  24.088  0.00  0.00    +0.010 C 
ATOM     21  C   UNL     1       0.429   0.991  23.711  0.00  0.00    +0.018 C 
ATOM     22  C   UNL     1       0.822   0.372  23.496  0.00  0.00    +0.077 C 
BRANCH  22  23
ATOM     23  C   UNL     1       1.520   0.135  23.127  0.00  0.00    +0.131 C 
BRANCH  23  24
ATOM     24  N   UNL     1       2.059   0.701  22.862  0.00  0.00    -0.081 NA
BRANCH  24  25
ATOM     25  S   UNL     1       2.814   0.470  22.624  0.00  0.00    +0.059 S 
ATOM     26  C   UNL     1       3.569   0.238  22.385  0.00  0.00    +0.197 C 
ATOM     27  O   UNL     1       2.482  -0.021  22.050  0.00  0.00    -0.156 OA
ATOM     28  O   UNL     1       3.147   0.960  23.197  0.00  0.00    -0.156 OA
ENDBRANCH  24  25
ENDBRANCH  23  24
ENDBRANCH  22  23
ENDBRANCH  13  15
BRANCH   9   4
ATOM      3  C   UNL     1      -3.930  -0.447  24.485  0.00  0.00    +0.140 A 
ATOM      4  C   UNL     1      -3.413   0.108  24.809  0.00  0.00    +0.053 A 
ATOM      5  C   UNL     1      -3.702   0.834  25.074  0.00  0.00    +0.005 A 
ATOM      6  C   UNL     1      -4.508   1.005  25.015  0.00  0.00    +0.000 A 
ATOM      7  C   UNL     1      -5.023   0.450  24.690  0.00  0.00    +0.003 A 
ATOM      8  C   UNL     1      -4.734  -0.277  24.425  0.00  0.00    +0.037 A 
BRANCH   3   2
ATOM      1  C   UNL     1      -4.160  -1.737  23.916  0.00  0.00    +0.252 C 
ATOM      2  O   UNL     1      -3.641  -1.173  24.220  0.00  0.00    -0.471 OA
ENDBRANCH   3   2
ENDBRANCH   9   4
TORSDOF 6
ENDMDL
MODEL 8
REMARK VINA RESULT:      -8.7      2.272      4.638
REMARK  Name = 
REMARK  6 active torsions:
REMARK  status: ('A' for Active; 'I' for Inactive)
REMARK    1  A    between atoms: O_2  and  C_3
REMARK    2  A    between atoms: C_4  and  C_9
REMARK    3  A    between atoms: C_13  and  C_15
REMARK    4  A    between atoms: C_22  and  C_23
REMARK    5  A    between atoms: C_23  and  N_24
REMARK    6  A    between atoms: N_24  and  S_25
REMARK                            x       y       z     vdW  Elec       q    Type
REMARK                         _______ _______ _______ _____ _____    ______ ____
ROOT
ATOM      9  C   UNL     1      -4.061   2.355  24.580  0.00  0.00    +0.105 A 
ATOM     10  N   UNL     1      -3.807   2.453  23.802  0.00  0.00    -0.169 NA
ATOM     11  N   UNL     1      -3.311   1.822  23.614  0.00  0.00    -0.253 N 
ATOM     12  C   UNL     1      -2.934   1.700  22.890  0.00  0.00    +0.153 C 
ATOM     13  C   UNL     1      -3.257   1.333  24.276  0.00  0.00    +0.058 A 
ATOM     14  C   UNL     1      -3.721   1.662  24.874  0.00  0.00    +0.035 A 
ENDROOT
BRANCH  13  15
ATOM     15  C   UNL     1      -2.817   0.637  24.332  0.00  0.00    +0.056 C 
ATOM     16  C   UNL     1      -2.043   0.700  24.280  0.00  0.00    +0.078 C 
ATOM     17  N   UNL     1      -2.469   0.001  24.385  0.00  0.00    -0.272 NA
ATOM     18  C   UNL     1      -3.485   0.258  24.413  0.00  0.00    +0.072 C 
ATOM     19  C   UNL     1      -4.113   0.087  24.469  0.00  0.00    +0.018 C 
ATOM     20  C   UNL     1      -3.228  -0.053  24.435  0.00  0.00    +0.010 C 
ATOM     21  C   UNL     1      -2.966  -0.887  24.516  0.00  0.00    +0.018 C 
ATOM     22  C   UNL     1      -2.204  -0.869  24.470  0.00  0.00    +0.077 C 
BRANCH  22  23
ATOM     23  C   UNL     1      -1.536  -1.351  24.487  0.00  0.00    +0.131 C 
BRANCH  23  24
ATOM     24  N   UNL     1      -1.324  -1.738  25.184  0.00  0.00    -0.081 NA
BRANCH  24  25
ATOM     25  S   UNL     1      -0.611  -2.151  25.226  0.00  0.00    +0.059 S 
ATOM     26  C   UNL     1       0.101  -2.565  25.266  0.00  0.00    +0.197 C 
ATOM     27  O   UNL     1      -0.936  -2.755  24.766  0.00  0.00    -0.156 OA
ATOM     28  O   UNL     1      -0.287  -1.548  25.684  0.00  0.00    -0.156 OA
ENDBRANCH  24  25
ENDBRANCH  23  24
ENDBRANCH  22  23
ENDBRANCH  13  15
BRANCH   9   4
ATOM      3  C   UNL     1      -4.256   3.487  25.429  0.00  0.00    +0.140 A 
ATOM      4  C   UNL     1      -4.565   2.860  24.993  0.00  0.00    +0.053 A 
ATOM      5  C   UNL     1      -5.381   2.737  24.970  0.00  0.00    +0.005 A 
ATOM      6  C   UNL     1      -5.887   3.242  25.383  0.00  0.00    +0.000 A 
ATOM      7  C   UNL     1      -5.576   3.870  25.819  0.00  0.00    +0.003 A 
ATOM      8  C   UNL     1      -4.761   3.993  25.842  0.00  0.00    +0.037 A 
BRANCH   3   2
ATOM      1  C   UNL     1      -3.123   4.177  25.961  0.00  0.00    +0.252 C 
ATOM      2  O   UNL     1      -3.440   3.610  25.452  0.00  0.00    -0.471 OA
ENDBRANCH   3   2
ENDBRANCH   9   4
TORSDOF 6
ENDMDL
