MODEL 1
REMARK VINA RESULT:      -9.0      0.000      0.000
REMARK  Name = 
REMARK  6 active torsions:
REMARK  status: ('A' for Active; 'I' for Inactive)
REMARK    1  A    between atoms: C_2  and  C_4
REMARK    2  A    between atoms: C_6  and  C_7
REMARK    3  A    between atoms: C_7  and  C_8
REMARK    4  A    between atoms: C_22  and  C_23
REMARK    5  A    between atoms: C_23  and  N_24
REMARK    6  A    between atoms: C_25  and  C_27
REMARK                            x       y       z     vdW  Elec       q    Type
REMARK                         _______ _______ _______ _____ _____    ______ ____
ROOT
ATOM      4  C   UNL     1      -3.590   2.517  25.042  0.00  0.00    +0.006 C 
ATOM      5  C   UNL     1      -3.626   1.695  24.989  0.00  0.00    +0.005 C 
ATOM      6  C   UNL     1      -2.930   1.252  24.994  0.00  0.00    +0.027 C 
ATOM     19  C   UNL     1      -2.199   1.630  25.053  0.00  0.00    -0.048 C 
ATOM     20  C   UNL     1      -1.504   1.186  25.058  0.00  0.00    +0.026 C 
ATOM     21  C   UNL     1      -2.164   2.453  25.106  0.00  0.00    -0.033 C 
ATOM     22  C   UNL     1      -2.860   2.897  25.100  0.00  0.00    +0.043 C 
ENDROOT
BRANCH   4   2
ATOM      1  C   UNL     1      -4.706   3.078  25.738  0.00  0.00    +0.000 C 
ATOM      2  C   UNL     1      -4.286   2.961  25.037  0.00  0.00    +0.000 C 
ATOM      3  C   UNL     1      -4.562   3.288  24.332  0.00  0.00    +0.000 C 
ENDBRANCH   4   2
BRANCH   6   7
ATOM      7  C   UNL     1      -2.965   0.429  24.941  0.00  0.00    +0.089 C 
BRANCH   7   8
ATOM      8  C   UNL     1      -3.370   0.072  24.317  0.00  0.00    +0.226 C 
ATOM      9  O   UNL     1      -3.645   0.531  23.689  0.00  0.00    -0.275 OA
ATOM     10  N   UNL     1      -3.499  -0.742  24.321  0.00  0.00    -0.276 N 
ATOM     11  C   UNL     1      -3.224  -1.201  24.950  0.00  0.00    +0.115 C 
ATOM     12  C   UNL     1      -3.354  -2.015  24.954  0.00  0.00    +0.115 C 
ATOM     13  N   UNL     1      -3.758  -2.372  24.330  0.00  0.00    -0.276 N 
ATOM     14  C   UNL     1      -4.034  -1.914  23.701  0.00  0.00    +0.115 C 
ATOM     15  C   UNL     1      -3.904  -1.099  23.697  0.00  0.00    +0.115 C 
ATOM     16  C   UNL     1      -3.888  -3.187  24.334  0.00  0.00    +0.226 C 
ATOM     17  C   UNL     1      -4.293  -3.544  23.710  0.00  0.00    +0.095 C 
ATOM     18  O   UNL     1      -3.613  -3.645  24.963  0.00  0.00    -0.275 OA
ENDBRANCH   7   8
ENDBRANCH   6   7
BRANCH  22  23
ATOM     23  C   UNL     1      -2.825   3.719  25.153  0.00  0.00    +0.119 C 
BRANCH  23  24
ATOM     24  N   UNL     1      -2.153   4.120  24.893  0.00  0.00    -0.205 NA
ATOM     25  C   UNL     1      -1.945   4.843  25.235  0.00  0.00    +0.241 C 
ATOM     26  O   UNL     1      -2.409   5.162  25.837  0.00  0.00    -0.273 OA
BRANCH  25  27
ATOM     27  C   UNL     1      -1.273   5.244  24.974  0.00  0.00    +0.078 C 
ATOM     28  C   UNL     1      -0.508   5.232  24.668  0.00  0.00    +0.010 C 
ATOM     29  C   UNL     1      -0.876   5.953  24.829  0.00  0.00    +0.010 C 
ENDBRANCH  25  27
ENDBRANCH  23  24
ENDBRANCH  22  23
TORSDOF 6
ENDMDL
MODEL 2
REMARK VINA RESULT:      -8.9      2.783      4.490
REMARK  Name = 
REMARK  6 active torsions:
REMARK  status: ('A' for Active; 'I' for Inactive)
REMARK    1  A    between atoms: C_2  and  C_4
REMARK    2  A    between atoms: C_6  and  C_7
REMARK    3  A    between atoms: C_7  and  C_8
REMARK    4  A    between atoms: C_22  and  C_23
REMARK    5  A    between atoms: C_23  and  N_24
REMARK    6  A    between atoms: C_25  and  C_27
REMARK                            x       y       z     vdW  Elec       q    Type
REMARK                         _______ _______ _______ _____ _____    ______ ____
ROOT
ATOM      4  C   UNL     1      -2.851   1.720  23.855  0.00  0.00    +0.006 C 
ATOM      5  C   UNL     1      -2.106   1.369  23.824  0.00  0.00    +0.005 C 
ATOM      6  C   UNL     1      -1.950   0.691  24.268  0.00  0.00    +0.027 C 
ATOM     19  C   UNL     1      -2.540   0.364  24.743  0.00  0.00    -0.048 C 
ATOM     20  C   UNL     1      -2.385  -0.314  25.187  0.00  0.00    +0.026 C 
ATOM     21  C   UNL     1      -3.287   0.716  24.773  0.00  0.00    -0.033 C 
ATOM     22  C   UNL     1      -3.442   1.394  24.329  0.00  0.00    +0.043 C 
ENDROOT
BRANCH   4   2
ATOM      1  C   UNL     1      -2.967   3.142  23.766  0.00  0.00    +0.000 C 
ATOM      2  C   UNL     1      -3.006   2.398  23.411  0.00  0.00    +0.000 C 
ATOM      3  C   UNL     1      -3.201   2.333  22.612  0.00  0.00    +0.000 C 
ENDBRANCH   4   2
BRANCH   6   7
ATOM      7  C   UNL     1      -1.204   0.340  24.238  0.00  0.00    +0.089 C 
BRANCH   7   8
ATOM      8  C   UNL     1      -0.527   0.796  24.361  0.00  0.00    +0.226 C 
ATOM      9  O   UNL     1      -0.535   1.402  24.921  0.00  0.00    -0.275 OA
ATOM     10  N   UNL     1       0.156   0.646  23.924  0.00  0.00    -0.276 N 
ATOM     11  C   UNL     1       0.164   0.040  23.364  0.00  0.00    +0.115 C 
ATOM     12  C   UNL     1       0.847  -0.110  22.928  0.00  0.00    +0.115 C 
ATOM     13  N   UNL     1       1.523   0.347  23.050  0.00  0.00    -0.276 N 
ATOM     14  C   UNL     1       1.516   0.953  23.610  0.00  0.00    +0.115 C 
ATOM     15  C   UNL     1       0.832   1.102  24.047  0.00  0.00    +0.115 C 
ATOM     16  C   UNL     1       2.207   0.197  22.613  0.00  0.00    +0.226 C 
ATOM     17  C   UNL     1       2.884   0.653  22.736  0.00  0.00    +0.095 C 
ATOM     18  O   UNL     1       2.214  -0.409  22.054  0.00  0.00    -0.275 OA
ENDBRANCH   7   8
ENDBRANCH   6   7
BRANCH  22  23
ATOM     23  C   UNL     1      -4.188   1.744  24.360  0.00  0.00    +0.119 C 
BRANCH  23  24
ATOM     24  N   UNL     1      -4.608   1.758  25.069  0.00  0.00    -0.205 NA
ATOM     25  C   UNL     1      -5.419   1.915  25.066  0.00  0.00    +0.241 C 
ATOM     26  O   UNL     1      -5.807   2.058  24.353  0.00  0.00    -0.273 OA
BRANCH  25  27
ATOM     27  C   UNL     1      -5.839   1.929  25.776  0.00  0.00    +0.078 C 
ATOM     28  C   UNL     1      -6.099   2.335  26.444  0.00  0.00    +0.010 C 
ATOM     29  C   UNL     1      -6.308   1.545  26.336  0.00  0.00    +0.010 C 
ENDBRANCH  25  27
ENDBRANCH  23  24
ENDBRANCH  22  23
TORSDOF 6
ENDMDL
MODEL 3
REMARK VINA RESULT:      -8.8      3.171      5.120
REMARK  Name = 
REMARK  6 active torsions:
REMARK  status: ('A' for Active; 'I' for Inactive)
REMARK    1  A    between atoms: C_2  and  C_4
REMARK    2  A    between atoms: C_6  and  C_7
REMARK    3  A    between atoms: C_7  and  C_8
REMARK    4  A    between atoms: C_22  and  C_23
REMARK    5  A    between atoms: C_23  and  N_24
REMARK    6  A    between atoms: C_25  and  C_27
REMARK                            x       y       z     vdW  Elec       q    Type
REMARK                         _______ _______ _______ _____ _____    ______ ____
ROOT
ATOM      4  C   UNL     1      -2.044  -0.089  24.787  0.00  0.00    +0.006 C 
ATOM      5  C   UNL     1      -1.257   0.023  24.570  0.00  0.00    +0.005 C 
ATOM      6  C   UNL     1      -1.025   0.728  24.210  0.00  0.00    +0.027 C 
ATOM     19  C   UNL     1      -1.581   1.320  24.065  0.00  0.00    -0.048 C 
ATOM     20  C   UNL     1      -1.349   2.025  23.704  0.00  0.00    +0.026 C 
ATOM     21  C   UNL     1      -2.369   1.207  24.282  0.00  0.00    -0.033 C 
ATOM     22  C   UNL     1      -2.601   0.503  24.643  0.00  0.00    +0.043 C 
ENDROOT
BRANCH   4   2
ATOM      1  C   UNL     1      -2.200  -0.884  25.965  0.00  0.00    +0.000 C 
ATOM      2  C   UNL     1      -2.276  -0.794  25.148  0.00  0.00    +0.000 C 
ATOM      3  C   UNL     1      -2.584  -1.409  24.693  0.00  0.00    +0.000 C 
ENDBRANCH   4   2
BRANCH   6   7
ATOM      7  C   UNL     1      -0.237   0.841  23.993  0.00  0.00    +0.089 C 
BRANCH   7   8
ATOM      8  C   UNL     1       0.125   0.320  23.464  0.00  0.00    +0.226 C 
ATOM      9  O   UNL     1      -0.312  -0.294  23.127  0.00  0.00    -0.275 OA
ATOM     10  N   UNL     1       0.921   0.414  23.274  0.00  0.00    -0.276 N 
ATOM     11  C   UNL     1       1.358   1.027  23.611  0.00  0.00    +0.115 C 
ATOM     12  C   UNL     1       2.154   1.121  23.420  0.00  0.00    +0.115 C 
ATOM     13  N   UNL     1       2.516   0.600  22.892  0.00  0.00    -0.276 N 
ATOM     14  C   UNL     1       2.081  -0.014  22.555  0.00  0.00    +0.115 C 
ATOM     15  C   UNL     1       1.283  -0.107  22.746  0.00  0.00    +0.115 C 
ATOM     16  C   UNL     1       3.314   0.693  22.701  0.00  0.00    +0.226 C 
ATOM     17  C   UNL     1       3.675   0.173  22.173  0.00  0.00    +0.095 C 
ATOM     18  O   UNL     1       3.749   1.307  23.039  0.00  0.00    -0.275 OA
ENDBRANCH   7   8
ENDBRANCH   6   7
BRANCH  22  23
ATOM     23  C   UNL     1      -3.389   0.390  24.860  0.00  0.00    +0.119 C 
BRANCH  23  24
ATOM     24  N   UNL     1      -3.875   1.042  25.000  0.00  0.00    -0.205 NA
ATOM     25  C   UNL     1      -4.695   0.950  25.011  0.00  0.00    +0.241 C 
ATOM     26  O   UNL     1      -5.028   0.206  24.883  0.00  0.00    -0.273 OA
BRANCH  25  27
ATOM     27  C   UNL     1      -5.182   1.601  25.151  0.00  0.00    +0.078 C 
ATOM     28  C   UNL     1      -5.890   2.004  25.025  0.00  0.00    +0.010 C 
ATOM     29  C   UNL     1      -5.314   2.327  25.520  0.00  0.00    +0.010 C 
ENDBRANCH  25  27
ENDBRANCH  23  24
ENDBRANCH  22  23
TORSDOF 6
ENDMDL
MODEL 4
REMARK VINA RESULT:      -8.5      1.160      6.119
REMARK  Name = 
REMARK  6 active torsions:
REMARK  status: ('A' for Active; 'I' for Inactive)
REMARK    1  A    between atoms: C_2  and  C_4
REMARK    2  A    between atoms: C_6  and  C_7
REMARK    3  A    between atoms: C_7  and  C_8
REMARK    4  A    between atoms: C_22  and  C_23
REMARK    5  A    between atoms: C_23  and  N_24
REMARK    6  A    between atoms: C_25  and  C_27
REMARK                            x       y       z     vdW  Elec       q    Type
REMARK                         _______ _______ _______ _____ _____    ______ ____
ROOT
ATOM      4  C   UNL     1      -2.010  -0.211  25.267  0.00  0.00    +0.006 C 
ATOM      5  C   UNL     1      -1.952   0.609  25.203  0.00  0.00    +0.005 C 
ATOM      6  C   UNL     1      -2.576   1.043  24.882  0.00  0.00    +0.027 C 
ATOM     19  C   UNL     1      -3.259   0.657  24.626  0.00  0.00    -0.048 C 
ATOM     20  C   UNL     1      -3.883   1.091  24.305  0.00  0.00    +0.026 C 
ATOM     21  C   UNL     1      -3.317  -0.164  24.691  0.00  0.00    -0.033 C 
ATOM     22  C   UNL     1      -2.693  -0.598  25.012  0.00  0.00    +0.043 C 
ENDROOT
BRANCH   4   2
ATOM      1  C   UNL     1      -0.812  -0.970  25.092  0.00  0.00    +0.000 C 
ATOM      2  C   UNL     1      -1.386  -0.645  25.588  0.00  0.00    +0.000 C 
ATOM      3  C   UNL     1      -1.335  -0.753  26.404  0.00  0.00    +0.000 C 
ENDBRANCH   4   2
BRANCH   6   7
ATOM      7  C   UNL     1      -2.518   1.864  24.817  0.00  0.00    +0.089 C 
BRANCH   7   8
ATOM      8  C   UNL     1      -1.839   2.205  24.496  0.00  0.00    +0.226 C 
ATOM      9  O   UNL     1      -1.320   1.747  24.047  0.00  0.00    -0.275 OA
ATOM     10  N   UNL     1      -1.679   3.004  24.623  0.00  0.00    -0.276 N 
ATOM     11  C   UNL     1      -2.198   3.462  25.072  0.00  0.00    +0.115 C 
ATOM     12  C   UNL     1      -2.039   4.261  25.200  0.00  0.00    +0.115 C 
ATOM     13  N   UNL     1      -1.360   4.602  24.879  0.00  0.00    -0.276 N 
ATOM     14  C   UNL     1      -0.840   4.145  24.430  0.00  0.00    +0.115 C 
ATOM     15  C   UNL     1      -1.000   3.345  24.302  0.00  0.00    +0.115 C 
ATOM     16  C   UNL     1      -1.200   5.402  25.007  0.00  0.00    +0.226 C 
ATOM     17  C   UNL     1      -0.521   5.744  24.685  0.00  0.00    +0.095 C 
ATOM     18  O   UNL     1      -1.719   5.859  25.456  0.00  0.00    -0.275 OA
ENDBRANCH   7   8
ENDBRANCH   6   7
BRANCH  22  23
ATOM     23  C   UNL     1      -2.751  -1.418  25.076  0.00  0.00    +0.119 C 
BRANCH  23  24
ATOM     24  N   UNL     1      -3.160  -1.849  24.504  0.00  0.00    -0.205 NA
ATOM     25  C   UNL     1      -3.504  -2.573  24.700  0.00  0.00    +0.241 C 
ATOM     26  O   UNL     1      -3.437  -2.867  25.468  0.00  0.00    -0.273 OA
BRANCH  25  27
ATOM     27  C   UNL     1      -3.913  -3.004  24.127  0.00  0.00    +0.078 C 
ATOM     28  C   UNL     1      -4.560  -3.087  23.623  0.00  0.00    +0.010 C 
ATOM     29  C   UNL     1      -3.974  -3.668  23.641  0.00  0.00    +0.010 C 
ENDBRANCH  25  27
ENDBRANCH  23  24
ENDBRANCH  22  23
TORSDOF 6
ENDMDL
MODEL 5
REMARK VINA RESULT:      -8.1      2.714      4.772
REMARK  Name = 
REMARK  6 active torsions:
REMARK  status: ('A' for Active; 'I' for Inactive)
REMARK    1  A    between atoms: C_2  and  C_4
REMARK    2  A    between atoms: C_6  and  C_7
REMARK    3  A    between atoms: C_7  and  C_8
REMARK    4  A    between atoms: C_22  and  C_23
REMARK    5  A    between atoms: C_23  and  N_24
REMARK    6  A    between atoms: C_25  and  C_27
REMARK                            x       y       z     vdW  Elec       q    Type
REMARK                         _______ _______ _______ _____ _____    ______ ____
ROOT
ATOM      4  C   UNL     1      -1.089   0.089  24.442  0.00  0.00    +0.006 C 
ATOM      5  C   UNL     1      -1.775   0.533  24.545  0.00  0.00    +0.005 C 
ATOM      6  C   UNL     1      -1.890   1.222  24.106  0.00  0.00    +0.027 C 
ATOM     19  C   UNL     1      -1.319   1.466  23.563  0.00  0.00    -0.048 C 
ATOM     20  C   UNL     1      -1.434   2.155  23.124  0.00  0.00    +0.026 C 
ATOM     21  C   UNL     1      -0.631   1.021  23.461  0.00  0.00    -0.033 C 
ATOM     22  C   UNL     1      -0.516   0.332  23.900  0.00  0.00    +0.043 C 
ENDROOT
BRANCH   4   2
ATOM      1  C   UNL     1      -1.132  -1.337  24.544  0.00  0.00    +0.000 C 
ATOM      2  C   UNL     1      -0.974  -0.600  24.882  0.00  0.00    +0.000 C 
ATOM      3  C   UNL     1      -0.700  -0.553  25.659  0.00  0.00    +0.000 C 
ENDBRANCH   4   2
BRANCH   6   7
ATOM      7  C   UNL     1      -2.578   1.667  24.208  0.00  0.00    +0.089 C 
BRANCH   7   8
ATOM      8  C   UNL     1      -3.313   1.294  24.221  0.00  0.00    +0.226 C 
ATOM      9  O   UNL     1      -3.412   0.565  23.848  0.00  0.00    -0.275 OA
ATOM     10  N   UNL     1      -3.949   1.650  24.607  0.00  0.00    -0.276 N 
ATOM     11  C   UNL     1      -3.851   2.379  24.981  0.00  0.00    +0.115 C 
ATOM     12  C   UNL     1      -4.486   2.735  25.367  0.00  0.00    +0.115 C 
ATOM     13  N   UNL     1      -5.222   2.361  25.380  0.00  0.00    -0.276 N 
ATOM     14  C   UNL     1      -5.322   1.632  25.007  0.00  0.00    +0.115 C 
ATOM     15  C   UNL     1      -4.685   1.276  24.621  0.00  0.00    +0.115 C 
ATOM     16  C   UNL     1      -5.859   2.717  25.766  0.00  0.00    +0.226 C 
ATOM     17  C   UNL     1      -6.594   2.343  25.780  0.00  0.00    +0.095 C 
ATOM     18  O   UNL     1      -5.759   3.446  26.139  0.00  0.00    -0.275 OA
ENDBRANCH   7   8
ENDBRANCH   6   7
BRANCH  22  23
ATOM     23  C   UNL     1       0.170  -0.113  23.798  0.00  0.00    +0.119 C 
BRANCH  23  24
ATOM     24  N   UNL     1       0.792   0.187  23.345  0.00  0.00    -0.205 NA
ATOM     25  C   UNL     1       1.459  -0.277  23.201  0.00  0.00    +0.241 C 
ATOM     26  O   UNL     1       1.503  -1.041  23.509  0.00  0.00    -0.273 OA
BRANCH  25  27
ATOM     27  C   UNL     1       2.080   0.022  22.748  0.00  0.00    +0.078 C 
ATOM     28  C   UNL     1       2.466   0.094  22.023  0.00  0.00    +0.010 C 
ATOM     29  C   UNL     1       2.771   0.470  22.691  0.00  0.00    +0.010 C 
ENDBRANCH  25  27
ENDBRANCH  23  24
ENDBRANCH  22  23
TORSDOF 6
ENDMDL
