MODEL 1
REMARK VINA RESULT:     -11.3      0.000      0.000
REMARK  Name = 
REMARK  6 active torsions:
REMARK  status: ('A' for Active; 'I' for Inactive)
REMARK    1  A    between atoms: O_2  and  C_3
REMARK    2  A    between atoms: C_6  and  C_9
REMARK    3  A    between atoms: N_11  and  C_12
REMARK    4  A    between atoms: C_12  and  C_13
REMARK    5  A    between atoms: C_20  and  C_21
REMARK    6  A    between atoms: C_23  and  C_27
REMARK                            x       y       z     vdW  Elec       q    Type
REMARK                         _______ _______ _______ _____ _____    ______ ____
ROOT
ATOM     13  C   UNL     1       0.146   0.305  23.489  0.00  0.00    +0.079 C 
ATOM     14  C   UNL     1      -0.225   0.259  24.172  0.00  0.00    +0.018 C 
ATOM     15  C   UNL     1      -0.860   0.708  24.394  0.00  0.00    +0.010 C 
ATOM     16  C   UNL     1      -1.142   0.503  25.220  0.00  0.00    +0.018 C 
ATOM     17  C   UNL     1      -0.761   0.454  24.692  0.00  0.00    +0.072 C 
ATOM     18  N   UNL     1      -0.502   0.759  23.723  0.00  0.00    -0.272 NA
ATOM     19  C   UNL     1      -0.972   1.417  23.299  0.00  0.00    +0.078 C 
ATOM     20  C   UNL     1      -1.307   1.341  23.980  0.00  0.00    +0.056 C 
ENDROOT
BRANCH  20  21
ATOM     21  C   UNL     1      -1.955   1.764  24.268  0.00  0.00    +0.058 A 
ATOM     22  C   UNL     1      -2.715   1.467  24.383  0.00  0.00    +0.035 A 
ATOM     23  C   UNL     1      -3.185   2.077  24.676  0.00  0.00    +0.102 A 
ATOM     24  N   UNL     1      -2.715   2.752  24.743  0.00  0.00    -0.170 NA
ATOM     25  N   UNL     1      -1.954   2.558  24.491  0.00  0.00    -0.253 N 
ATOM     26  C   UNL     1      -1.306   3.069  24.465  0.00  0.00    +0.153 C 
BRANCH  23  27
ATOM     27  C   UNL     1      -3.985   2.024  24.870  0.00  0.00    +0.020 A 
ATOM     28  C   UNL     1      -4.383   2.683  25.170  0.00  0.00    +0.004 A 
ATOM     29  C   UNL     1      -5.183   2.630  25.363  0.00  0.00    +0.030 A 
ATOM     30  C   UNL     1      -5.587   1.918  25.257  0.00  0.00    +0.140 A 
ATOM     31  F   UNL     1      -6.387   1.866  25.451  0.00  0.00    -0.204 F 
ATOM     32  C   UNL     1      -5.190   1.259  24.958  0.00  0.00    +0.030 A 
ATOM     33  C   UNL     1      -4.389   1.313  24.764  0.00  0.00    +0.004 A 
ENDBRANCH  23  27
ENDBRANCH  20  21
BRANCH  13  12
ATOM     12  C   UNL     1       0.729   0.078  22.952  0.00  0.00    +0.131 C 
BRANCH  12  11
ATOM      9  C   UNL     1       2.105   0.043  22.567  0.00  0.00    +0.265 C 
ATOM     10  O   UNL     1       1.887  -0.203  21.811  0.00  0.00    -0.268 OA
ATOM     11  N   UNL     1       1.526   0.184  23.138  0.00  0.00    -0.200 NA
BRANCH   9   6
ATOM      3  C   UNL     1       4.494   0.362  23.126  0.00  0.00    +0.139 A 
ATOM      4  C   UNL     1       4.062   0.982  22.795  0.00  0.00    +0.037 A 
ATOM      5  C   UNL     1       3.266   0.876  22.608  0.00  0.00    +0.008 A 
ATOM      6  C   UNL     1       2.901   0.150  22.753  0.00  0.00    +0.055 A 
ATOM      7  C   UNL     1       3.333  -0.470  23.084  0.00  0.00    +0.008 A 
ATOM      8  C   UNL     1       4.130  -0.364  23.270  0.00  0.00    +0.037 A 
BRANCH   3   2
ATOM      1  C   UNL     1       5.654  -0.023  23.867  0.00  0.00    +0.252 C 
ATOM      2  O   UNL     1       5.291   0.469  23.312  0.00  0.00    -0.471 OA
ENDBRANCH   3   2
ENDBRANCH   9   6
ENDBRANCH  12  11
ENDBRANCH  13  12
TORSDOF 6
ENDMDL
MODEL 2
REMARK VINA RESULT:     -11.0      0.904      1.213
REMARK  Name = 
REMARK  6 active torsions:
REMARK  status: ('A' for Active; 'I' for Inactive)
REMARK    1  A    between atoms: O_2  and  C_3
REMARK    2  A    between atoms: C_6  and  C_9
REMARK    3  A    between atoms: N_11  and  C_12
REMARK    4  A    between atoms: C_12  and  C_13
REMARK    5  A    between atoms: C_20  and  C_21
REMARK    6  A    between atoms: C_23  and  C_27
REMARK                            x       y       z     vdW  Elec       q    Type
REMARK                         _______ _______ _______ _____ _____    ______ ____
ROOT
ATOM     13  C   UNL     1       0.100   0.464  23.581  0.00  0.00    +0.079 C 
ATOM     14  C   UNL     1      -0.107   0.813  24.245  0.00  0.00    +0.018 C 
ATOM     15  C   UNL     1      -0.867   0.957  24.485  0.00  0.00    +0.010 C 
ATOM     16  C   UNL     1      -0.893   1.370  25.280  0.00  0.00    +0.018 C 
ATOM     17  C   UNL     1      -0.606   1.094  24.762  0.00  0.00    +0.072 C 
ATOM     18  N   UNL     1      -0.671   0.614  23.833  0.00  0.00    -0.272 NA
ATOM     19  C   UNL     1      -1.482   0.438  23.453  0.00  0.00    +0.078 C 
ATOM     20  C   UNL     1      -1.643   0.785  24.114  0.00  0.00    +0.056 C 
ENDROOT
BRANCH  20  21
ATOM     21  C   UNL     1      -2.391   0.960  24.416  0.00  0.00    +0.058 A 
ATOM     22  C   UNL     1      -2.713   1.714  24.504  0.00  0.00    +0.035 A 
ATOM     23  C   UNL     1      -3.468   1.633  24.825  0.00  0.00    +0.102 A 
ATOM     24  N   UNL     1      -3.613   0.829  24.935  0.00  0.00    -0.170 NA
ATOM     25  N   UNL     1      -2.947   0.412  24.682  0.00  0.00    -0.253 N 
ATOM     26  C   UNL     1      -2.853  -0.407  24.694  0.00  0.00    +0.153 C 
BRANCH  23  27
ATOM     27  C   UNL     1      -3.988   2.248  25.004  0.00  0.00    +0.020 A 
ATOM     28  C   UNL     1      -4.773   2.081  25.199  0.00  0.00    +0.004 A 
ATOM     29  C   UNL     1      -5.293   2.696  25.378  0.00  0.00    +0.030 A 
ATOM     30  C   UNL     1      -5.029   3.478  25.364  0.00  0.00    +0.140 A 
ATOM     31  F   UNL     1      -5.549   4.092  25.544  0.00  0.00    -0.204 F 
ATOM     32  C   UNL     1      -4.244   3.644  25.170  0.00  0.00    +0.030 A 
ATOM     33  C   UNL     1      -3.724   3.030  24.990  0.00  0.00    +0.004 A 
ENDBRANCH  23  27
ENDBRANCH  20  21
BRANCH  13  12
ATOM     12  C   UNL     1       0.656   0.172  23.046  0.00  0.00    +0.131 C 
BRANCH  12  11
ATOM      9  C   UNL     1       2.013   0.079  22.610  0.00  0.00    +0.265 C 
ATOM     10  O   UNL     1       1.759  -0.200  21.877  0.00  0.00    -0.268 OA
ATOM     11  N   UNL     1       1.461   0.266  23.195  0.00  0.00    -0.200 NA
BRANCH   9   6
ATOM      3  C   UNL     1       4.431   0.360  23.057  0.00  0.00    +0.139 A 
ATOM      4  C   UNL     1       3.990   0.993  22.763  0.00  0.00    +0.037 A 
ATOM      5  C   UNL     1       3.184   0.899  22.614  0.00  0.00    +0.008 A 
ATOM      6  C   UNL     1       2.819   0.173  22.759  0.00  0.00    +0.055 A 
ATOM      7  C   UNL     1       3.260  -0.459  23.052  0.00  0.00    +0.008 A 
ATOM      8  C   UNL     1       4.066  -0.365  23.201  0.00  0.00    +0.037 A 
BRANCH   3   2
ATOM      1  C   UNL     1       5.594   0.036  23.820  0.00  0.00    +0.252 C 
ATOM      2  O   UNL     1       5.237   0.455  23.206  0.00  0.00    -0.471 OA
ENDBRANCH   3   2
ENDBRANCH   9   6
ENDBRANCH  12  11
ENDBRANCH  13  12
TORSDOF 6
ENDMDL
MODEL 3
REMARK VINA RESULT:      -9.9      3.013      7.151
REMARK  Name = 
REMARK  6 active torsions:
REMARK  status: ('A' for Active; 'I' for Inactive)
REMARK    1  A    between atoms: O_2  and  C_3
REMARK    2  A    between atoms: C_6  and  C_9
REMARK    3  A    between atoms: N_11  and  C_12
REMARK    4  A    between atoms: C_12  and  C_13
REMARK    5  A    between atoms: C_20  and  C_21
REMARK    6  A    between atoms: C_23  and  C_27
REMARK                            x       y       z     vdW  Elec       q    Type
REMARK                         _______ _______ _______ _____ _____    ______ ____
ROOT
ATOM     13  C   UNL     1      -1.045   0.312  24.166  0.00  0.00    +0.079 C 
ATOM     14  C   UNL     1      -0.474   0.841  24.142  0.00  0.00    +0.018 C 
ATOM     15  C   UNL     1       0.247   0.742  23.788  0.00  0.00    +0.010 C 
ATOM     16  C   UNL     1       0.763   1.471  23.872  0.00  0.00    +0.018 C 
ATOM     17  C   UNL     1       0.224   1.110  23.954  0.00  0.00    +0.072 C 
ATOM     18  N   UNL     1      -0.307   0.219  23.807  0.00  0.00    -0.272 NA
ATOM     19  C   UNL     1       0.066  -0.479  23.351  0.00  0.00    +0.078 C 
ATOM     20  C   UNL     1       0.599   0.068  23.351  0.00  0.00    +0.056 C 
ENDROOT
BRANCH  20  21
ATOM     21  C   UNL     1       1.351   0.032  23.010  0.00  0.00    +0.058 A 
ATOM     22  C   UNL     1       2.065   0.164  23.399  0.00  0.00    +0.035 A 
ATOM     23  C   UNL     1       2.674   0.071  22.851  0.00  0.00    +0.102 A 
ATOM     24  N   UNL     1       2.336  -0.119  22.123  0.00  0.00    -0.170 NA
ATOM     25  N   UNL     1       1.517  -0.144  22.222  0.00  0.00    -0.253 N 
ATOM     26  C   UNL     1       0.962  -0.314  21.635  0.00  0.00    +0.153 C 
BRANCH  23  27
ATOM     27  C   UNL     1       3.481   0.154  23.003  0.00  0.00    +0.020 A 
ATOM     28  C   UNL     1       3.898  -0.460  23.366  0.00  0.00    +0.004 A 
ATOM     29  C   UNL     1       4.704  -0.378  23.518  0.00  0.00    +0.030 A 
ATOM     30  C   UNL     1       5.095   0.318  23.308  0.00  0.00    +0.140 A 
ATOM     31  F   UNL     1       5.902   0.400  23.460  0.00  0.00    -0.204 F 
ATOM     32  C   UNL     1       4.678   0.932  22.945  0.00  0.00    +0.030 A 
ATOM     33  C   UNL     1       3.872   0.849  22.794  0.00  0.00    +0.004 A 
ENDBRANCH  23  27
ENDBRANCH  20  21
BRANCH  13  12
ATOM     12  C   UNL     1      -1.796   0.050  24.381  0.00  0.00    +0.131 C 
BRANCH  12  11
ATOM      9  C   UNL     1      -3.190   0.337  24.513  0.00  0.00    +0.265 C 
ATOM     10  O   UNL     1      -3.364  -0.462  24.410  0.00  0.00    -0.268 OA
ATOM     11  N   UNL     1      -2.405   0.593  24.498  0.00  0.00    -0.200 NA
BRANCH   9   6
ATOM      3  C   UNL     1      -5.016   1.968  24.866  0.00  0.00    +0.139 A 
ATOM      4  C   UNL     1      -4.392   2.152  24.359  0.00  0.00    +0.037 A 
ATOM      5  C   UNL     1      -3.783   1.609  24.242  0.00  0.00    +0.008 A 
ATOM      6  C   UNL     1      -3.798   0.881  24.631  0.00  0.00    +0.055 A 
ATOM      7  C   UNL     1      -4.423   0.698  25.137  0.00  0.00    +0.008 A 
ATOM      8  C   UNL     1      -5.032   1.242  25.255  0.00  0.00    +0.037 A 
BRANCH   3   2
ATOM      1  C   UNL     1      -5.558   3.084  25.576  0.00  0.00    +0.252 C 
ATOM      2  O   UNL     1      -5.625   2.513  24.984  0.00  0.00    -0.471 OA
ENDBRANCH   3   2
ENDBRANCH   9   6
ENDBRANCH  12  11
ENDBRANCH  13  12
TORSDOF 6
ENDMDL
