MODEL 1
REMARK VINA RESULT:      -9.6      0.000      0.000
REMARK  Name = 
REMARK  6 active torsions:
REMARK  status: ('A' for Active; 'I' for Inactive)
REMARK    1  A    between atoms: N_2  and  C_4
REMARK    2  A    between atoms: C_7  and  C_10
REMARK    3  A    between atoms: N_15  and  C_16
REMARK    4  A    between atoms: C_20  and  N_24
REMARK    5  A    between atoms: N_24  and  S_25
REMARK    6  A    between atoms: S_25  and  C_28
REMARK                            x       y       z     vdW  Elec       q    Type
REMARK                         _______ _______ _______ _____ _____    ______ ____
ROOT
ATOM     16  C   UNL     1      -0.769   0.162  24.165  0.00  0.00    +0.154 C 
ATOM     17  C   UNL     1      -0.740  -0.662  24.167  0.00  0.00    +0.166 C 
ATOM     18  O   UNL     1      -0.062  -0.894  23.757  0.00  0.00    -0.350 OA
ATOM     19  C   UNL     1       0.327  -0.213  23.503  0.00  0.00    +0.164 C 
ATOM     20  C   UNL     1       0.987   0.066  23.092  0.00  0.00    +0.157 C 
ATOM     21  C   UNL     1       0.957   0.891  23.091  0.00  0.00    +0.164 C 
ATOM     22  O   UNL     1       0.279   1.122  23.500  0.00  0.00    -0.350 OA
ATOM     23  C   UNL     1      -0.111   0.441  23.755  0.00  0.00    +0.166 C 
ENDROOT
BRANCH  16  15
ATOM     10  C   UNL     1      -3.517   0.909  24.406  0.00  0.00    +0.086 A 
ATOM     11  C   UNL     1      -3.719   0.354  23.830  0.00  0.00    +0.040 A 
ATOM     12  C   UNL     1      -3.133  -0.111  23.482  0.00  0.00    +0.103 A 
ATOM     13  N   UNL     1      -2.345  -0.020  23.710  0.00  0.00    -0.211 NA
ATOM     14  C   UNL     1      -2.143   0.535  24.286  0.00  0.00    +0.237 A 
ATOM     15  N   UNL     1      -1.356   0.626  24.513  0.00  0.00    -0.200 NA
ATOM     38  N   UNL     1      -2.730   1.000  24.634  0.00  0.00    -0.212 NA
BRANCH  10   7
ATOM      4  C   UNL     1      -5.278   2.300  25.451  0.00  0.00    +0.048 A 
ATOM      5  C   UNL     1      -4.697   2.653  24.983  0.00  0.00    +0.015 A 
ATOM      6  C   UNL     1      -4.110   2.189  24.635  0.00  0.00    +0.003 A 
ATOM      7  C   UNL     1      -4.104   1.373  24.754  0.00  0.00    +0.018 A 
ATOM      8  C   UNL     1      -4.685   1.020  25.222  0.00  0.00    +0.003 A 
ATOM      9  C   UNL     1      -5.272   1.483  25.570  0.00  0.00    +0.015 A 
BRANCH   4   2
ATOM      1  C   UNL     1      -6.492   2.404  26.198  0.00  0.00    +0.112 C 
ATOM      2  N   UNL     1      -5.865   2.763  25.799  0.00  0.00    -0.304 N 
ATOM      3  C   UNL     1      -5.825   3.586  25.749  0.00  0.00    +0.112 C 
ENDBRANCH   4   2
ENDBRANCH  10   7
ENDBRANCH  16  15
BRANCH  20  24
ATOM     24  N   UNL     1       1.573  -0.398  22.745  0.00  0.00    -0.074 NA
BRANCH  24  25
ATOM     25  S   UNL     1       2.369  -0.214  22.861  0.00  0.00    +0.077 S 
ATOM     26  O   UNL     1       2.373   0.214  22.156  0.00  0.00    -0.152 OA
ATOM     27  O   UNL     1       2.364  -0.642  23.567  0.00  0.00    -0.152 OA
BRANCH  25  28
ATOM     28  C   UNL     1       3.165  -0.031  22.978  0.00  0.00    +0.124 A 
ATOM     29  C   UNL     1       3.652  -0.550  23.393  0.00  0.00    +0.020 A 
ATOM     30  C   UNL     1       4.447  -0.366  23.509  0.00  0.00    +0.001 A 
ATOM     31  C   UNL     1       4.935  -0.886  23.925  0.00  0.00    +0.000 A 
ATOM     32  C   UNL     1       5.730  -0.702  24.041  0.00  0.00    +0.000 A 
ATOM     33  C   UNL     1       6.039   0.003  23.741  0.00  0.00    +0.000 A 
ATOM     34  C   UNL     1       5.552   0.523  23.326  0.00  0.00    +0.000 A 
ATOM     35  C   UNL     1       4.756   0.339  23.209  0.00  0.00    +0.000 A 
ATOM     36  C   UNL     1       4.268   0.858  22.794  0.00  0.00    +0.001 A 
ATOM     37  C   UNL     1       3.473   0.674  22.678  0.00  0.00    +0.020 A 
ENDBRANCH  25  28
ENDBRANCH  24  25
ENDBRANCH  20  24
TORSDOF 6
ENDMDL
MODEL 2
REMARK VINA RESULT:      -9.3      1.773      7.891
REMARK  Name = 
REMARK  6 active torsions:
REMARK  status: ('A' for Active; 'I' for Inactive)
REMARK    1  A    between atoms: N_2  and  C_4
REMARK    2  A    between atoms: C_7  and  C_10
REMARK    3  A    between atoms: N_15  and  C_16
REMARK    4  A    between atoms: C_20  and  N_24
REMARK    5  A    between atoms: N_24  and  S_25
REMARK    6  A    between atoms: S_25  and  C_28
REMARK                            x       y       z     vdW  Elec       q    Type
REMARK                         _______ _______ _______ _____ _____    ______ ____
ROOT
ATOM     16  C   UNL     1      -0.201   0.511  23.640  0.00  0.00    +0.154 C 
ATOM     17  C   UNL     1      -0.631  -0.166  23.447  0.00  0.00    +0.166 C 
ATOM     18  O   UNL     1      -1.417   0.055  23.328  0.00  0.00    -0.350 OA
ATOM     19  C   UNL     1      -1.472   0.869  23.448  0.00  0.00    +0.164 C 
ATOM     20  C   UNL     1      -1.992   1.510  23.448  0.00  0.00    +0.157 C 
ATOM     21  C   UNL     1      -1.562   2.188  23.641  0.00  0.00    +0.164 C 
ATOM     22  O   UNL     1      -0.777   1.965  23.760  0.00  0.00    -0.350 OA
ATOM     23  C   UNL     1      -0.721   1.151  23.640  0.00  0.00    +0.166 C 
ENDROOT
BRANCH  16  15
ATOM     10  C   UNL     1       2.505   0.057  22.843  0.00  0.00    +0.086 A 
ATOM     11  C   UNL     1       2.243  -0.232  22.116  0.00  0.00    +0.040 A 
ATOM     12  C   UNL     1       1.435  -0.263  21.951  0.00  0.00    +0.103 A 
ATOM     13  N   UNL     1       0.890  -0.005  22.514  0.00  0.00    -0.211 NA
ATOM     14  C   UNL     1       1.152   0.284  23.241  0.00  0.00    +0.237 A 
ATOM     15  N   UNL     1       0.607   0.541  23.803  0.00  0.00    -0.200 NA
ATOM     38  N   UNL     1       1.960   0.314  23.405  0.00  0.00    -0.212 NA
BRANCH  10   7
ATOM      4  C   UNL     1       4.930   0.147  23.334  0.00  0.00    +0.048 A 
ATOM      5  C   UNL     1       4.555   0.794  22.984  0.00  0.00    +0.015 A 
ATOM      6  C   UNL     1       3.747   0.764  22.821  0.00  0.00    +0.003 A 
ATOM      7  C   UNL     1       3.314   0.087  23.006  0.00  0.00    +0.018 A 
ATOM      8  C   UNL     1       3.688  -0.559  23.356  0.00  0.00    +0.003 A 
ATOM      9  C   UNL     1       4.496  -0.530  23.520  0.00  0.00    +0.015 A 
BRANCH   4   2
ATOM      1  C   UNL     1       6.271  -0.238  23.024  0.00  0.00    +0.112 C 
ATOM      2  N   UNL     1       5.738   0.177  23.498  0.00  0.00    -0.304 N 
ATOM      3  C   UNL     1       6.013   0.622  24.137  0.00  0.00    +0.112 C 
ENDBRANCH   4   2
ENDBRANCH  10   7
ENDBRANCH  16  15
BRANCH  20  24
ATOM     24  N   UNL     1      -2.800   1.479  23.285  0.00  0.00    -0.074 NA
BRANCH  24  25
ATOM     25  S   UNL     1      -3.335   1.880  23.768  0.00  0.00    +0.077 S 
ATOM     26  O   UNL     1      -3.343   2.510  23.235  0.00  0.00    -0.152 OA
ATOM     27  O   UNL     1      -3.327   1.251  24.301  0.00  0.00    -0.152 OA
BRANCH  25  28
ATOM     28  C   UNL     1      -3.870   2.282  24.251  0.00  0.00    +0.124 A 
ATOM     29  C   UNL     1      -4.475   1.869  24.629  0.00  0.00    +0.020 A 
ATOM     30  C   UNL     1      -5.010   2.271  25.111  0.00  0.00    +0.001 A 
ATOM     31  C   UNL     1      -5.616   1.858  25.490  0.00  0.00    +0.000 A 
ATOM     32  C   UNL     1      -6.150   2.259  25.972  0.00  0.00    +0.000 A 
ATOM     33  C   UNL     1      -6.080   3.076  26.077  0.00  0.00    +0.000 A 
ATOM     34  C   UNL     1      -5.474   3.488  25.698  0.00  0.00    +0.000 A 
ATOM     35  C   UNL     1      -4.939   3.087  25.215  0.00  0.00    +0.000 A 
ATOM     36  C   UNL     1      -4.334   3.500  24.837  0.00  0.00    +0.001 A 
ATOM     37  C   UNL     1      -3.800   3.098  24.355  0.00  0.00    +0.020 A 
ENDBRANCH  25  28
ENDBRANCH  24  25
ENDBRANCH  20  24
TORSDOF 6
ENDMDL
MODEL 3
REMARK VINA RESULT:      -8.1      2.135      7.485
REMARK  Name = 
REMARK  6 active torsions:
REMARK  status: ('A' for Active; 'I' for Inactive)
REMARK    1  A    between atoms: N_2  and  C_4
REMARK    2  A    between atoms: C_7  and  C_10
REMARK    3  A    between atoms: N_15  and  C_16
REMARK    4  A    between atoms: C_20  and  N_24
REMARK    5  A    between atoms: N_24  and  S_25
REMARK    6  A    between atoms: S_25  and  C_28
REMARK                            x       y       z     vdW  Elec       q    Type
REMARK                         _______ _______ _______ _____ _____    ______ ____
ROOT
ATOM     16  C   UNL     1       0.183   1.466  24.039  0.00  0.00    +0.154 C 
ATOM     17  C   UNL     1      -0.245   1.797  23.417  0.00  0.00    +0.166 C 
ATOM     18  O   UNL     1      -1.047   1.738  23.598  0.00  0.00    -0.350 OA
ATOM     19  C   UNL     1      -1.115   1.370  24.333  0.00  0.00    +0.164 C 
ATOM     20  C   UNL     1      -1.653   1.105  24.900  0.00  0.00    +0.157 C 
ATOM     21  C   UNL     1      -1.225   0.773  25.523  0.00  0.00    +0.164 C 
ATOM     22  O   UNL     1      -0.423   0.833  25.340  0.00  0.00    -0.350 OA
ATOM     23  C   UNL     1      -0.354   1.201  24.606  0.00  0.00    +0.166 C 
ENDROOT
BRANCH  16  15
ATOM     10  C   UNL     1       2.647   0.366  23.096  0.00  0.00    +0.086 A 
ATOM     11  C   UNL     1       2.235  -0.071  22.531  0.00  0.00    +0.040 A 
ATOM     12  C   UNL     1       1.414  -0.015  22.483  0.00  0.00    +0.103 A 
ATOM     13  N   UNL     1       1.003   0.479  23.002  0.00  0.00    -0.211 NA
ATOM     14  C   UNL     1       1.415   0.916  23.568  0.00  0.00    +0.237 A 
ATOM     15  N   UNL     1       1.005   1.409  24.086  0.00  0.00    -0.200 NA
ATOM     38  N   UNL     1       2.237   0.859  23.614  0.00  0.00    -0.212 NA
BRANCH  10   7
ATOM      4  C   UNL     1       5.112   0.194  23.237  0.00  0.00    +0.048 A 
ATOM      5  C   UNL     1       4.764   0.849  22.875  0.00  0.00    +0.015 A 
ATOM      6  C   UNL     1       3.942   0.906  22.828  0.00  0.00    +0.003 A 
ATOM      7  C   UNL     1       3.469   0.309  23.143  0.00  0.00    +0.018 A 
ATOM      8  C   UNL     1       3.816  -0.345  23.505  0.00  0.00    +0.003 A 
ATOM      9  C   UNL     1       4.638  -0.403  23.553  0.00  0.00    +0.015 A 
BRANCH   4   2
ATOM      1  C   UNL     1       6.349  -0.306  22.726  0.00  0.00    +0.112 C 
ATOM      2  N   UNL     1       5.933   0.136  23.285  0.00  0.00    -0.304 N 
ATOM      3  C   UNL     1       6.339   0.522  23.892  0.00  0.00    +0.112 C 
ENDBRANCH   4   2
ENDBRANCH  10   7
ENDBRANCH  16  15
BRANCH  20  24
ATOM     24  N   UNL     1      -2.474   1.162  24.853  0.00  0.00    -0.074 NA
BRANCH  24  25
ATOM     25  S   UNL     1      -2.925   0.496  24.664  0.00  0.00    +0.077 S 
ATOM     26  O   UNL     1      -3.028   0.784  23.897  0.00  0.00    -0.152 OA
ATOM     27  O   UNL     1      -2.821   0.209  25.430  0.00  0.00    -0.152 OA
BRANCH  25  28
ATOM     28  C   UNL     1      -3.375  -0.169  24.475  0.00  0.00    +0.124 A 
ATOM     29  C   UNL     1      -3.049  -0.922  24.548  0.00  0.00    +0.020 A 
ATOM     30  C   UNL     1      -3.499  -1.587  24.359  0.00  0.00    +0.001 A 
ATOM     31  C   UNL     1      -3.174  -2.341  24.432  0.00  0.00    +0.000 A 
ATOM     32  C   UNL     1      -3.624  -3.005  24.243  0.00  0.00    +0.000 A 
ATOM     33  C   UNL     1      -4.402  -2.916  23.980  0.00  0.00    +0.000 A 
ATOM     34  C   UNL     1      -4.728  -2.162  23.907  0.00  0.00    +0.000 A 
ATOM     35  C   UNL     1      -4.277  -1.497  24.096  0.00  0.00    +0.000 A 
ATOM     36  C   UNL     1      -4.603  -0.743  24.023  0.00  0.00    +0.001 A 
ATOM     37  C   UNL     1      -4.153  -0.079  24.212  0.00  0.00    +0.020 A 
ENDBRANCH  25  28
ENDBRANCH  24  25
ENDBRANCH  20  24
TORSDOF 6
ENDMDL
MODEL 4
REMARK VINA RESULT:      -6.9      2.564      7.795
REMARK  Name = 
REMARK  6 active torsions:
REMARK  status: ('A' for Active; 'I' for Inactive)
REMARK    1  A    between atoms: N_2  and  C_4
REMARK    2  A    between atoms: C_7  and  C_10
REMARK    3  A    between atoms: N_15  and  C_16
REMARK    4  A    between atoms: C_20  and  N_24
REMARK    5  A    between atoms: N_24  and  S_25
REMARK    6  A    between atoms: S_25  and  C_28
REMARK                            x       y       z     vdW  Elec       q    Type
REMARK                         _______ _______ _______ _____ _____    ______ ____
ROOT
ATOM     16  C   UNL     1      -0.417   2.929  25.396  0.00  0.00    +0.154 C 
ATOM     17  C   UNL     1      -0.639   2.617  26.126  0.00  0.00    +0.166 C 
ATOM     18  O   UNL     1      -1.358   2.960  26.342  0.00  0.00    -0.350 OA
ATOM     19  C   UNL     1      -1.578   3.485  25.746  0.00  0.00    +0.164 C 
ATOM     20  C   UNL     1      -2.159   4.022  25.510  0.00  0.00    +0.157 C 
ATOM     21  C   UNL     1      -1.937   4.335  24.779  0.00  0.00    +0.164 C 
ATOM     22  O   UNL     1      -1.218   3.991  24.564  0.00  0.00    -0.350 OA
ATOM     23  C   UNL     1      -0.997   3.466  25.160  0.00  0.00    +0.166 C 
ENDROOT
BRANCH  16  15
ATOM     10  C   UNL     1       1.086   1.077  23.822  0.00  0.00    +0.086 A 
ATOM     11  C   UNL     1       0.469   0.531  23.875  0.00  0.00    +0.040 A 
ATOM     12  C   UNL     1      -0.215   0.721  24.295  0.00  0.00    +0.103 A 
ATOM     13  N   UNL     1      -0.282   1.457  24.662  0.00  0.00    -0.211 NA
ATOM     14  C   UNL     1       0.335   2.003  24.609  0.00  0.00    +0.237 A 
ATOM     15  N   UNL     1       0.267   2.738  24.975  0.00  0.00    -0.200 NA
ATOM     38  N   UNL     1       1.018   1.812  24.188  0.00  0.00    -0.212 NA
BRANCH  10   7
ATOM      4  C   UNL     1       3.138   0.504  22.561  0.00  0.00    +0.048 A 
ATOM      5  C   UNL     1       2.456   0.049  22.468  0.00  0.00    +0.015 A 
ATOM      6  C   UNL     1       1.772   0.240  22.888  0.00  0.00    +0.003 A 
ATOM      7  C   UNL     1       1.770   0.885  23.401  0.00  0.00    +0.018 A 
ATOM      8  C   UNL     1       2.451   1.341  23.494  0.00  0.00    +0.003 A 
ATOM      9  C   UNL     1       3.135   1.151  23.074  0.00  0.00    +0.015 A 
BRANCH   4   2
ATOM      1  C   UNL     1       4.543   0.247  22.536  0.00  0.00    +0.112 C 
ATOM      2  N   UNL     1       3.822   0.314  22.141  0.00  0.00    -0.304 N 
ATOM      3  C   UNL     1       3.784   0.192  21.325  0.00  0.00    +0.112 C 
ENDBRANCH   4   2
ENDBRANCH  10   7
ENDBRANCH  16  15
BRANCH  20  24
ATOM     24  N   UNL     1      -2.842   4.212  25.930  0.00  0.00    -0.074 NA
BRANCH  24  25
ATOM     25  S   UNL     1      -3.548   3.815  25.774  0.00  0.00    +0.077 S 
ATOM     26  O   UNL     1      -3.544   4.109  25.003  0.00  0.00    -0.152 OA
ATOM     27  O   UNL     1      -3.553   3.520  26.545  0.00  0.00    -0.152 OA
BRANCH  25  28
ATOM     28  C   UNL     1      -4.254   3.417  25.618  0.00  0.00    +0.124 A 
ATOM     29  C   UNL     1      -4.240   2.630  25.372  0.00  0.00    +0.020 A 
ATOM     30  C   UNL     1      -4.945   2.234  25.216  0.00  0.00    +0.001 A 
ATOM     31  C   UNL     1      -4.931   1.446  24.970  0.00  0.00    +0.000 A 
ATOM     32  C   UNL     1      -5.637   1.049  24.814  0.00  0.00    +0.000 A 
ATOM     33  C   UNL     1      -6.359   1.440  24.904  0.00  0.00    +0.000 A 
ATOM     34  C   UNL     1      -6.373   2.227  25.150  0.00  0.00    +0.000 A 
ATOM     35  C   UNL     1      -5.667   2.625  25.306  0.00  0.00    +0.000 A 
ATOM     36  C   UNL     1      -5.682   3.411  25.552  0.00  0.00    +0.001 A 
ATOM     37  C   UNL     1      -4.976   3.808  25.708  0.00  0.00    +0.020 A 
ENDBRANCH  25  28
ENDBRANCH  24  25
ENDBRANCH  20  24
TORSDOF 6
ENDMDL
MODEL 5
REMARK VINA RESULT:      -6.9      2.160      7.630
REMARK  Name = 
REMARK  6 active torsions:
REMARK  status: ('A' for Active; 'I' for Inactive)
REMARK    1  A    between atoms: N_2  and  C_4
REMARK    2  A    between atoms: C_7  and  C_10
REMARK    3  A    between atoms: N_15  and  C_16
REMARK    4  A    between atoms: C_20  and  N_24
REMARK    5  A    between atoms: N_24  and  S_25
REMARK    6  A    between atoms: S_25  and  C_28
REMARK                            x       y       z     vdW  Elec       q    Type
REMARK                         _______ _______ _______ _____ _____    ______ ____
ROOT
ATOM     16  C   UNL     1      -1.509  -0.546  24.700  0.00  0.00    +0.154 C 
ATOM     17  C   UNL     1      -1.616  -0.548  25.517  0.00  0.00    +0.166 C 
ATOM     18  O   UNL     1      -2.424  -0.478  25.669  0.00  0.00    -0.350 OA
ATOM     19  C   UNL     1      -2.816  -0.432  24.945  0.00  0.00    +0.164 C 
ATOM     20  C   UNL     1      -3.558  -0.360  24.591  0.00  0.00    +0.157 C 
ATOM     21  C   UNL     1      -3.451  -0.357  23.772  0.00  0.00    +0.164 C 
ATOM     22  O   UNL     1      -2.643  -0.428  23.621  0.00  0.00    -0.350 OA
ATOM     23  C   UNL     1      -2.250  -0.474  24.345  0.00  0.00    +0.166 C 
ENDROOT
BRANCH  16  15
ATOM     10  C   UNL     1       0.901   0.663  23.753  0.00  0.00    +0.086 A 
ATOM     11  C   UNL     1       0.662   1.387  24.068  0.00  0.00    +0.040 A 
ATOM     12  C   UNL     1      -0.060   1.447  24.462  0.00  0.00    +0.103 A 
ATOM     13  N   UNL     1      -0.543   0.782  24.542  0.00  0.00    -0.211 NA
ATOM     14  C   UNL     1      -0.304   0.058  24.227  0.00  0.00    +0.237 A 
ATOM     15  N   UNL     1      -0.787  -0.605  24.306  0.00  0.00    -0.200 NA
ATOM     38  N   UNL     1       0.419  -0.001  23.833  0.00  0.00    -0.212 NA
BRANCH  10   7
ATOM      4  C   UNL     1       3.069   0.486  22.572  0.00  0.00    +0.048 A 
ATOM      5  C   UNL     1       2.480  -0.076  22.439  0.00  0.00    +0.015 A 
ATOM      6  C   UNL     1       1.758  -0.017  22.833  0.00  0.00    +0.003 A 
ATOM      7  C   UNL     1       1.624   0.603  23.359  0.00  0.00    +0.018 A 
ATOM      8  C   UNL     1       2.213   1.166  23.492  0.00  0.00    +0.003 A 
ATOM      9  C   UNL     1       2.936   1.107  23.099  0.00  0.00    +0.015 A 
BRANCH   4   2
ATOM      1  C   UNL     1       3.814   0.422  21.354  0.00  0.00    +0.112 C 
ATOM      2  N   UNL     1       3.792   0.428  22.179  0.00  0.00    -0.304 N 
ATOM      3  C   UNL     1       4.494   0.376  22.611  0.00  0.00    +0.112 C 
ENDBRANCH   4   2
ENDBRANCH  10   7
ENDBRANCH  16  15
BRANCH  20  24
ATOM     24  N   UNL     1      -4.279  -0.301  24.985  0.00  0.00    -0.074 NA
BRANCH  24  25
ATOM     25  S   UNL     1      -4.637   0.437  25.085  0.00  0.00    +0.077 S 
ATOM     26  O   UNL     1      -4.534   0.375  25.902  0.00  0.00    -0.152 OA
ATOM     27  O   UNL     1      -4.739   0.498  24.269  0.00  0.00    -0.152 OA
BRANCH  25  28
ATOM     28  C   UNL     1      -4.994   1.174  25.185  0.00  0.00    +0.124 A 
ATOM     29  C   UNL     1      -4.530   1.854  25.234  0.00  0.00    +0.020 A 
ATOM     30  C   UNL     1      -4.887   2.590  25.334  0.00  0.00    +0.001 A 
ATOM     31  C   UNL     1      -4.424   3.271  25.383  0.00  0.00    +0.000 A 
ATOM     32  C   UNL     1      -4.781   4.007  25.483  0.00  0.00    +0.000 A 
ATOM     33  C   UNL     1      -5.604   4.063  25.534  0.00  0.00    +0.000 A 
ATOM     34  C   UNL     1      -6.067   3.383  25.486  0.00  0.00    +0.000 A 
ATOM     35  C   UNL     1      -5.710   2.646  25.386  0.00  0.00    +0.000 A 
ATOM     36  C   UNL     1      -6.173   1.966  25.337  0.00  0.00    +0.001 A 
ATOM     37  C   UNL     1      -5.816   1.230  25.237  0.00  0.00    +0.020 A 
ENDBRANCH  25  28
ENDBRANCH  24  25
ENDBRANCH  20  24
TORSDOF 6
ENDMDL
MODEL 6
REMARK VINA RESULT:      -6.7     17.091     18.717
REMARK  Name = 
REMARK  6 active torsions:
REMARK  status: ('A' for Active; 'I' for Inactive)
REMARK    1  A    between atoms: N_2  and  C_4
REMARK    2  A    between atoms: C_7  and  C_10
REMARK    3  A    between atoms: N_15  and  C_16
REMARK    4  A    between atoms: C_20  and  N_24
REMARK    5  A    between atoms: N_24  and  S_25
REMARK    6  A    between atoms: S_25  and  C_28
REMARK                            x       y       z     vdW  Elec       q    Type
REMARK                         _______ _______ _______ _____ _____    ______ ____
ROOT
ATOM     16  C   UNL     1      16.834  -6.946  25.665  0.00  0.00    +0.154 C 
ATOM     17  C   UNL     1      17.051  -7.349  24.980  0.00  0.00    +0.166 C 
ATOM     18  O   UNL     1      17.234  -6.790  24.402  0.00  0.00    -0.350 OA
ATOM     19  C   UNL     1      17.130  -6.041  24.730  0.00  0.00    +0.164 C 
ATOM     20  C   UNL     1      17.179  -5.231  24.577  0.00  0.00    +0.157 C 
ATOM     21  C   UNL     1      16.961  -4.827  25.263  0.00  0.00    +0.164 C 
ATOM     22  O   UNL     1      16.778  -5.387  25.840  0.00  0.00    -0.350 OA
ATOM     23  C   UNL     1      16.882  -6.137  25.512  0.00  0.00    +0.166 C 
ENDROOT
BRANCH  16  15
ATOM     10  C   UNL     1      15.715  -9.146  27.106  0.00  0.00    +0.086 A 
ATOM     11  C   UNL     1      15.608  -9.555  26.398  0.00  0.00    +0.040 A 
ATOM     12  C   UNL     1      15.834  -9.211  25.684  0.00  0.00    +0.103 A 
ATOM     13  N   UNL     1      16.167  -8.455  25.677  0.00  0.00    -0.211 NA
ATOM     14  C   UNL     1      16.274  -8.046  26.386  0.00  0.00    +0.237 A 
ATOM     15  N   UNL     1      16.607  -7.292  26.379  0.00  0.00    -0.200 NA
ATOM     38  N   UNL     1      16.048  -8.391  27.100  0.00  0.00    -0.212 NA
BRANCH  10   7
ATOM      4  C   UNL     1      15.035 -10.184  29.248  0.00  0.00    +0.048 A 
ATOM      5  C   UNL     1      15.170  -9.371  29.208  0.00  0.00    +0.015 A 
ATOM      6  C   UNL     1      15.397  -9.025  28.494  0.00  0.00    +0.003 A 
ATOM      7  C   UNL     1      15.488  -9.491  27.820  0.00  0.00    +0.018 A 
ATOM      8  C   UNL     1      15.353 -10.304  27.860  0.00  0.00    +0.003 A 
ATOM      9  C   UNL     1      15.126 -10.651  28.573  0.00  0.00    +0.015 A 
BRANCH   4   2
ATOM      1  C   UNL     1      15.382 -10.780  30.500  0.00  0.00    +0.112 C 
ATOM      2  N   UNL     1      14.808 -10.531  29.961  0.00  0.00    -0.304 N 
ATOM      3  C   UNL     1      14.007 -10.629  30.136  0.00  0.00    +0.112 C 
ENDBRANCH   4   2
ENDBRANCH  10   7
ENDBRANCH  16  15
BRANCH  20  24
ATOM     24  N   UNL     1      17.405  -4.886  23.863  0.00  0.00    -0.074 NA
BRANCH  24  25
ATOM     25  S   UNL     1      17.040  -4.193  23.605  0.00  0.00    +0.077 S 
ATOM     26  O   UNL     1      17.404  -3.774  24.215  0.00  0.00    -0.152 OA
ATOM     27  O   UNL     1      16.676  -4.612  22.995  0.00  0.00    -0.152 OA
BRANCH  25  28
ATOM     28  C   UNL     1      16.674  -3.500  23.347  0.00  0.00    +0.124 A 
ATOM     29  C   UNL     1      17.111  -2.804  23.276  0.00  0.00    +0.020 A 
ATOM     30  C   UNL     1      16.746  -2.112  23.018  0.00  0.00    +0.001 A 
ATOM     31  C   UNL     1      17.183  -1.416  22.947  0.00  0.00    +0.000 A 
ATOM     32  C   UNL     1      16.817  -0.723  22.689  0.00  0.00    +0.000 A 
ATOM     33  C   UNL     1      16.013  -0.726  22.501  0.00  0.00    +0.000 A 
ATOM     34  C   UNL     1      15.576  -1.422  22.572  0.00  0.00    +0.000 A 
ATOM     35  C   UNL     1      15.942  -2.115  22.830  0.00  0.00    +0.000 A 
ATOM     36  C   UNL     1      15.505  -2.810  22.901  0.00  0.00    +0.001 A 
ATOM     37  C   UNL     1      15.870  -3.503  23.159  0.00  0.00    +0.020 A 
ENDBRANCH  25  28
ENDBRANCH  24  25
ENDBRANCH  20  24
TORSDOF 6
ENDMDL
