MODEL 1
REMARK VINA RESULT:     -12.2      0.000      0.000
REMARK  Name = 
REMARK  4 active torsions:
REMARK  status: ('A' for Active; 'I' for Inactive)
REMARK    1  A    between atoms: S_2  and  C_5
REMARK    2  A    between atoms: C_8  and  C_9
REMARK    3  A    between atoms: C_9  and  N_10
REMARK    4  A    between atoms: N_16  and  C_19
REMARK                            x       y       z     vdW  Elec       q    Type
REMARK                         _______ _______ _______ _____ _____    ______ ____
ROOT
ATOM     10  N   UNL     1      -4.303   1.126  24.997  0.00  0.00    -0.266 NA
ATOM     11  C   UNL     1      -4.702   1.571  24.429  0.00  0.00    +0.094 C 
ATOM     12  C   UNL     1      -4.397   2.295  24.183  0.00  0.00    +0.112 C 
ATOM     13  N   UNL     1      -3.691   2.577  24.505  0.00  0.00    -0.261 N 
ATOM     14  C   UNL     1      -3.291   2.132  25.073  0.00  0.00    +0.113 C 
ATOM     15  C   UNL     1      -2.612   2.547  25.290  0.00  0.00    +0.121 C 
ATOM     16  N   UNL     1      -2.592   3.248  24.856  0.00  0.00    -0.241 N 
ATOM     17  C   UNL     1      -3.259   3.266  24.371  0.00  0.00    +0.311 C 
ATOM     18  O   UNL     1      -3.459   3.869  23.844  0.00  0.00    -0.252 OA
ATOM     25  C   UNL     1      -3.597   1.406  25.320  0.00  0.00    +0.094 C 
ENDROOT
BRANCH  16  19
ATOM     19  C   UNL     1      -2.008   3.829  24.900  0.00  0.00    +0.055 A 
ATOM     20  C   UNL     1      -1.256   3.683  24.590  0.00  0.00    +0.015 A 
ATOM     21  C   UNL     1      -0.672   4.264  24.634  0.00  0.00    +0.001 A 
ATOM     22  C   UNL     1      -0.840   4.991  24.987  0.00  0.00    +0.000 A 
ATOM     23  C   UNL     1      -1.590   5.137  25.297  0.00  0.00    +0.001 A 
ATOM     24  C   UNL     1      -2.174   4.556  25.253  0.00  0.00    +0.015 A 
ENDBRANCH  16  19
BRANCH  10   9
ATOM      9  C   UNL     1      -4.609   0.400  25.244  0.00  0.00    +0.099 C 
BRANCH   9   8
ATOM      5  C   UNL     1      -3.410  -1.696  24.698  0.00  0.00    +0.106 A 
ATOM      6  C   UNL     1      -3.870  -1.323  24.125  0.00  0.00    +0.018 A 
ATOM      7  C   UNL     1      -4.270  -0.624  24.306  0.00  0.00    -0.002 A 
ATOM      8  C   UNL     1      -4.209  -0.299  25.062  0.00  0.00    -0.006 A 
ATOM     26  C   UNL     1      -3.749  -0.672  25.636  0.00  0.00    -0.002 A 
ATOM     27  C   UNL     1      -3.349  -1.371  25.454  0.00  0.00    +0.018 A 
BRANCH   5   2
ATOM      1  C   UNL     1      -2.609  -3.092  24.335  0.00  0.00    +0.182 C 
ATOM      2  S   UNL     1      -3.010  -2.394  24.517  0.00  0.00    +0.010 S 
ATOM      3  O   UNL     1      -3.691  -2.828  24.682  0.00  0.00    -0.169 OA
ATOM      4  O   UNL     1      -2.328  -1.960  24.351  0.00  0.00    -0.169 OA
ENDBRANCH   5   2
ENDBRANCH   9   8
ENDBRANCH  10   9
TORSDOF 4
ENDMDL
MODEL 2
REMARK VINA RESULT:     -11.5      1.801      2.258
REMARK  Name = 
REMARK  4 active torsions:
REMARK  status: ('A' for Active; 'I' for Inactive)
REMARK    1  A    between atoms: S_2  and  C_5
REMARK    2  A    between atoms: C_8  and  C_9
REMARK    3  A    between atoms: C_9  and  N_10
REMARK    4  A    between atoms: N_16  and  C_19
REMARK                            x       y       z     vdW  Elec       q    Type
REMARK                         _______ _______ _______ _____ _____    ______ ____
ROOT
ATOM     10  N   UNL     1      -0.966   0.171  25.271  0.00  0.00    -0.266 NA
ATOM     11  C   UNL     1      -0.510   0.256  24.588  0.00  0.00    +0.094 C 
ATOM     12  C   UNL     1      -0.380   1.006  24.271  0.00  0.00    +0.112 C 
ATOM     13  N   UNL     1      -0.704   1.671  24.635  0.00  0.00    -0.261 N 
ATOM     14  C   UNL     1      -1.160   1.586  25.317  0.00  0.00    +0.113 C 
ATOM     15  C   UNL     1      -1.408   2.336  25.554  0.00  0.00    +0.121 C 
ATOM     16  N   UNL     1      -1.105   2.885  25.018  0.00  0.00    -0.241 N 
ATOM     17  C   UNL     1      -0.671   2.474  24.450  0.00  0.00    +0.311 C 
ATOM     18  O   UNL     1      -0.271   2.807  23.809  0.00  0.00    -0.252 OA
ATOM     25  C   UNL     1      -1.291   0.836  25.636  0.00  0.00    +0.094 C 
ENDROOT
BRANCH  16  19
ATOM     19  C   UNL     1      -1.217   3.702  25.045  0.00  0.00    +0.055 A 
ATOM     20  C   UNL     1      -0.579   4.211  24.918  0.00  0.00    +0.015 A 
ATOM     21  C   UNL     1      -0.691   5.028  24.945  0.00  0.00    +0.001 A 
ATOM     22  C   UNL     1      -1.441   5.336  25.099  0.00  0.00    +0.000 A 
ATOM     23  C   UNL     1      -2.078   4.828  25.225  0.00  0.00    +0.001 A 
ATOM     24  C   UNL     1      -1.966   4.011  25.198  0.00  0.00    +0.015 A 
ENDBRANCH  16  19
BRANCH  10   9
ATOM      9  C   UNL     1      -1.097  -0.579  25.589  0.00  0.00    +0.099 C 
BRANCH   9   8
ATOM      5  C   UNL     1      -2.947  -1.980  24.729  0.00  0.00    +0.106 A 
ATOM      6  C   UNL     1      -3.098  -1.399  25.294  0.00  0.00    +0.018 A 
ATOM      7  C   UNL     1      -2.482  -0.932  25.581  0.00  0.00    -0.002 A 
ATOM      8  C   UNL     1      -1.714  -1.046  25.303  0.00  0.00    -0.006 A 
ATOM     26  C   UNL     1      -1.562  -1.627  24.736  0.00  0.00    -0.002 A 
ATOM     27  C   UNL     1      -2.179  -2.094  24.450  0.00  0.00    +0.018 A 
BRANCH   5   2
ATOM      1  C   UNL     1      -4.180  -2.914  24.153  0.00  0.00    +0.182 C 
ATOM      2  S   UNL     1      -3.564  -2.448  24.441  0.00  0.00    +0.010 S 
ATOM      3  O   UNL     1      -3.381  -3.030  24.995  0.00  0.00    -0.169 OA
ATOM      4  O   UNL     1      -3.746  -1.864  23.886  0.00  0.00    -0.169 OA
ENDBRANCH   5   2
ENDBRANCH   9   8
ENDBRANCH  10   9
TORSDOF 4
ENDMDL
MODEL 3
REMARK VINA RESULT:     -11.5      2.384      5.683
REMARK  Name = 
REMARK  4 active torsions:
REMARK  status: ('A' for Active; 'I' for Inactive)
REMARK    1  A    between atoms: S_2  and  C_5
REMARK    2  A    between atoms: C_8  and  C_9
REMARK    3  A    between atoms: C_9  and  N_10
REMARK    4  A    between atoms: N_16  and  C_19
REMARK                            x       y       z     vdW  Elec       q    Type
REMARK                         _______ _______ _______ _____ _____    ______ ____
ROOT
ATOM     10  N   UNL     1      -0.660   1.114  25.422  0.00  0.00    -0.266 NA
ATOM     11  C   UNL     1      -0.190   0.770  24.838  0.00  0.00    +0.094 C 
ATOM     12  C   UNL     1      -0.463   0.112  24.424  0.00  0.00    +0.112 C 
ATOM     13  N   UNL     1      -1.207  -0.204  24.594  0.00  0.00    -0.261 N 
ATOM     14  C   UNL     1      -1.677   0.140  25.178  0.00  0.00    +0.113 C 
ATOM     15  C   UNL     1      -2.380  -0.288  25.224  0.00  0.00    +0.121 C 
ATOM     16  N   UNL     1      -2.345  -0.897  24.669  0.00  0.00    -0.241 N 
ATOM     17  C   UNL     1      -1.619  -0.844  24.280  0.00  0.00    +0.311 C 
ATOM     18  O   UNL     1      -1.354  -1.346  23.680  0.00  0.00    -0.252 OA
ATOM     25  C   UNL     1      -1.403   0.800  25.592  0.00  0.00    +0.094 C 
ENDROOT
BRANCH  16  19
ATOM     19  C   UNL     1      -2.931  -1.459  24.528  0.00  0.00    +0.055 A 
ATOM     20  C   UNL     1      -2.859  -2.219  24.843  0.00  0.00    +0.015 A 
ATOM     21  C   UNL     1      -3.446  -2.782  24.702  0.00  0.00    +0.001 A 
ATOM     22  C   UNL     1      -4.105  -2.584  24.246  0.00  0.00    +0.000 A 
ATOM     23  C   UNL     1      -4.177  -1.826  23.931  0.00  0.00    +0.001 A 
ATOM     24  C   UNL     1      -3.590  -1.263  24.072  0.00  0.00    +0.015 A 
ENDBRANCH  16  19
BRANCH  10   9
ATOM      9  C   UNL     1      -0.387   1.774  25.837  0.00  0.00    +0.099 C 
BRANCH   9   8
ATOM      5  C   UNL     1      -1.231   4.029  25.265  0.00  0.00    +0.106 A 
ATOM      6  C   UNL     1      -0.652   3.675  24.797  0.00  0.00    +0.018 A 
ATOM      7  C   UNL     1      -0.370   2.923  24.987  0.00  0.00    -0.002 A 
ATOM      8  C   UNL     1      -0.668   2.526  25.646  0.00  0.00    -0.006 A 
ATOM     26  C   UNL     1      -1.248   2.880  26.115  0.00  0.00    -0.002 A 
ATOM     27  C   UNL     1      -1.529   3.632  25.924  0.00  0.00    +0.018 A 
BRANCH   5   2
ATOM      1  C   UNL     1      -1.794   5.533  24.885  0.00  0.00    +0.182 C 
ATOM      2  S   UNL     1      -1.513   4.781  25.075  0.00  0.00    +0.010 S 
ATOM      3  O   UNL     1      -2.287   4.501  25.113  0.00  0.00    -0.169 OA
ATOM      4  O   UNL     1      -0.737   5.062  25.037  0.00  0.00    -0.169 OA
ENDBRANCH   5   2
ENDBRANCH   9   8
ENDBRANCH  10   9
TORSDOF 4
ENDMDL
MODEL 4
REMARK VINA RESULT:     -10.9      1.851      5.358
REMARK  Name = 
REMARK  4 active torsions:
REMARK  status: ('A' for Active; 'I' for Inactive)
REMARK    1  A    between atoms: S_2  and  C_5
REMARK    2  A    between atoms: C_8  and  C_9
REMARK    3  A    between atoms: C_9  and  N_10
REMARK    4  A    between atoms: N_16  and  C_19
REMARK                            x       y       z     vdW  Elec       q    Type
REMARK                         _______ _______ _______ _____ _____    ______ ____
ROOT
ATOM     10  N   UNL     1      -4.063   2.177  24.446  0.00  0.00    -0.266 NA
ATOM     11  C   UNL     1      -4.502   2.041  25.131  0.00  0.00    +0.094 C 
ATOM     12  C   UNL     1      -4.616   1.270  25.400  0.00  0.00    +0.112 C 
ATOM     13  N   UNL     1      -4.292   0.635  24.985  0.00  0.00    -0.261 N 
ATOM     14  C   UNL     1      -3.853   0.771  24.300  0.00  0.00    +0.113 C 
ATOM     15  C   UNL     1      -3.601   0.042  24.009  0.00  0.00    +0.121 C 
ATOM     16  N   UNL     1      -3.885  -0.545  24.514  0.00  0.00    -0.241 N 
ATOM     17  C   UNL     1      -4.311  -0.179  25.117  0.00  0.00    +0.311 C 
ATOM     18  O   UNL     1      -4.691  -0.559  25.743  0.00  0.00    -0.252 OA
ATOM     25  C   UNL     1      -3.738   1.543  24.030  0.00  0.00    +0.094 C 
ENDROOT
BRANCH  16  19
ATOM     19  C   UNL     1      -3.763  -1.357  24.430  0.00  0.00    +0.055 A 
ATOM     20  C   UNL     1      -4.245  -1.797  23.924  0.00  0.00    +0.015 A 
ATOM     21  C   UNL     1      -4.123  -2.608  23.840  0.00  0.00    +0.001 A 
ATOM     22  C   UNL     1      -3.519  -2.980  24.262  0.00  0.00    +0.000 A 
ATOM     23  C   UNL     1      -3.038  -2.541  24.767  0.00  0.00    +0.001 A 
ATOM     24  C   UNL     1      -3.160  -1.730  24.851  0.00  0.00    +0.015 A 
ENDBRANCH  16  19
BRANCH  10   9
ATOM      9  C   UNL     1      -3.949   2.949  24.175  0.00  0.00    +0.099 C 
BRANCH   9   8
ATOM      5  C   UNL     1      -1.898   4.186  24.800  0.00  0.00    +0.106 A 
ATOM      6  C   UNL     1      -2.571   4.236  25.274  0.00  0.00    +0.018 A 
ATOM      7  C   UNL     1      -3.255   3.824  25.067  0.00  0.00    -0.002 A 
ATOM      8  C   UNL     1      -3.266   3.361  24.384  0.00  0.00    -0.006 A 
ATOM     26  C   UNL     1      -2.593   3.311  23.909  0.00  0.00    -0.002 A 
ATOM     27  C   UNL     1      -1.909   3.723  24.117  0.00  0.00    +0.018 A 
BRANCH   5   2
ATOM      1  C   UNL     1      -0.531   5.011  25.215  0.00  0.00    +0.182 C 
ATOM      2  S   UNL     1      -1.214   4.598  25.008  0.00  0.00    +0.010 S 
ATOM      3  O   UNL     1      -0.786   3.893  24.998  0.00  0.00    -0.169 OA
ATOM      4  O   UNL     1      -1.643   5.303  25.017  0.00  0.00    -0.169 OA
ENDBRANCH   5   2
ENDBRANCH   9   8
ENDBRANCH  10   9
TORSDOF 4
ENDMDL
