MODEL 1
REMARK VINA RESULT:     -13.1      0.000      0.000
REMARK  Name = 
REMARK  9 active torsions:
REMARK  status: ('A' for Active; 'I' for Inactive)
REMARK    1  A    between atoms: C_2  and  C_3
REMARK    2  A    between atoms: C_3  and  C_4
REMARK    3  A    between atoms: C_9  and  C_10
REMARK    4  A    between atoms: C_10  and  C_11
REMARK    5  A    between atoms: C_14  and  C_15
REMARK    6  A    between atoms: C_15  and  O_16
REMARK    7  A    between atoms: O_16  and  C_17
REMARK    8  A    between atoms: C_27  and  C_28
REMARK    9  A    between atoms: C_28  and  C_29
REMARK                            x       y       z     vdW  Elec       q    Type
REMARK                         _______ _______ _______ _____ _____    ______ ____
ROOT
ATOM      4  C   UNL     1      -0.497   2.113  24.931  0.00  0.00    +0.012 C 
ATOM      5  C   UNL     1      -0.043   1.967  24.257  0.00  0.00    +0.019 C 
ATOM      6  C   UNL     1       0.257   2.597  23.818  0.00  0.00    +0.089 C 
ATOM      7  N   UNL     1       0.104   3.372  24.052  0.00  0.00    -0.218 NA
ATOM      8  C   UNL     1      -0.349   3.519  24.725  0.00  0.00    +0.089 C 
ATOM      9  C   UNL     1      -0.650   2.888  25.165  0.00  0.00    +0.024 C 
ENDROOT
BRANCH   4   3
ATOM      3  C   UNL     1      -0.797   1.482  25.370  0.00  0.00    +0.085 C 
BRANCH   3   2
ATOM      1  O   UNL     1       0.106   0.525  24.815  0.00  0.00    -0.275 OA
ATOM      2  C   UNL     1      -0.626   0.706  25.147  0.00  0.00    +0.226 C 
ATOM     24  N   UNL     1      -1.188   0.113  25.256  0.00  0.00    -0.280 N 
ATOM     25  C   UNL     1      -1.017  -0.664  25.033  0.00  0.00    +0.093 C 
ATOM     26  C   UNL     1      -1.579  -1.257  25.142  0.00  0.00    +0.022 C 
ATOM     27  C   UNL     1      -2.312  -1.075  25.474  0.00  0.00    +0.008 C 
ATOM     35  C   UNL     1      -2.483  -0.300  25.697  0.00  0.00    +0.022 C 
ATOM     36  C   UNL     1      -1.921   0.294  25.588  0.00  0.00    +0.093 C 
BRANCH  27  28
ATOM     28  C   UNL     1      -2.874  -1.669  25.583  0.00  0.00    +0.026 C 
BRANCH  28  29
ATOM     29  C   UNL     1      -3.355  -1.902  24.954  0.00  0.00    -0.022 A 
ATOM     30  C   UNL     1      -3.276  -2.658  24.633  0.00  0.00    -0.004 A 
ATOM     31  C   UNL     1      -3.756  -2.891  24.004  0.00  0.00    -0.000 A 
ATOM     32  C   UNL     1      -4.317  -2.369  23.697  0.00  0.00    -0.000 A 
ATOM     33  C   UNL     1      -4.396  -1.613  24.019  0.00  0.00    -0.000 A 
ATOM     34  C   UNL     1      -3.915  -1.380  24.648  0.00  0.00    -0.004 A 
ENDBRANCH  28  29
ENDBRANCH  27  28
ENDBRANCH   3   2
ENDBRANCH   4   3
BRANCH   9  10
ATOM     10  C   UNL     1      -1.103   3.035  25.838  0.00  0.00    +0.051 C 
BRANCH  10  11
ATOM     11  C   UNL     1      -1.794   3.482  25.781  0.00  0.00    +0.100 A 
ATOM     12  N   UNL     1      -1.836   4.303  25.709  0.00  0.00    -0.082 NA
ATOM     13  O   UNL     1      -2.633   4.515  25.670  0.00  0.00    -0.354 OA
ATOM     14  C   UNL     1      -3.083   3.826  25.718  0.00  0.00    +0.198 A 
ATOM     23  C   UNL     1      -2.565   3.187  25.786  0.00  0.00    +0.057 A 
BRANCH  14  15
ATOM     15  C   UNL     1      -3.907   3.782  25.700  0.00  0.00    +0.272 C 
BRANCH  15  16
ATOM     16  O   UNL     1      -4.289   3.471  25.038  0.00  0.00    -0.467 OA
BRANCH  16  17
ATOM     17  C   UNL     1      -4.938   2.971  25.134  0.00  0.00    +0.139 A 
ATOM     18  C   UNL     1      -5.007   2.291  24.671  0.00  0.00    +0.037 A 
ATOM     19  C   UNL     1      -5.656   1.791  24.767  0.00  0.00    +0.003 A 
ATOM     20  C   UNL     1      -6.236   1.971  25.326  0.00  0.00    +0.000 A 
ATOM     21  C   UNL     1      -6.166   2.650  25.789  0.00  0.00    +0.003 A 
ATOM     22  C   UNL     1      -5.517   3.150  25.692  0.00  0.00    +0.037 A 
ENDBRANCH  16  17
ENDBRANCH  15  16
ENDBRANCH  14  15
ENDBRANCH  10  11
ENDBRANCH   9  10
TORSDOF 9
ENDMDL
MODEL 2
REMARK VINA RESULT:     -12.9      1.096      4.297
REMARK  Name = 
REMARK  9 active torsions:
REMARK  status: ('A' for Active; 'I' for Inactive)
REMARK    1  A    between atoms: C_2  and  C_3
REMARK    2  A    between atoms: C_3  and  C_4
REMARK    3  A    between atoms: C_9  and  C_10
REMARK    4  A    between atoms: C_10  and  C_11
REMARK    5  A    between atoms: C_14  and  C_15
REMARK    6  A    between atoms: C_15  and  O_16
REMARK    7  A    between atoms: O_16  and  C_17
REMARK    8  A    between atoms: C_27  and  C_28
REMARK    9  A    between atoms: C_28  and  C_29
REMARK                            x       y       z     vdW  Elec       q    Type
REMARK                         _______ _______ _______ _____ _____    ______ ____
ROOT
ATOM      4  C   UNL     1      -0.670   2.697  25.072  0.00  0.00    +0.012 C 
ATOM      5  C   UNL     1      -0.495   3.110  25.765  0.00  0.00    +0.019 C 
ATOM      6  C   UNL     1       0.145   2.880  26.231  0.00  0.00    +0.089 C 
ATOM      7  N   UNL     1       0.610   2.238  26.006  0.00  0.00    -0.218 NA
ATOM      8  C   UNL     1       0.436   1.825  25.313  0.00  0.00    +0.089 C 
ATOM      9  C   UNL     1      -0.205   2.055  24.846  0.00  0.00    +0.024 C 
ENDROOT
BRANCH   4   3
ATOM      3  C   UNL     1      -1.310   2.928  24.605  0.00  0.00    +0.085 C 
BRANCH   3   2
ATOM      1  O   UNL     1      -1.498   4.217  25.191  0.00  0.00    -0.275 OA
ATOM      2  C   UNL     1      -1.813   3.529  24.864  0.00  0.00    +0.226 C 
ATOM     24  N   UNL     1      -2.630   3.441  24.795  0.00  0.00    -0.280 N 
ATOM     25  C   UNL     1      -3.133   4.043  25.054  0.00  0.00    +0.093 C 
ATOM     26  C   UNL     1      -3.950   3.954  24.985  0.00  0.00    +0.022 C 
ATOM     27  C   UNL     1      -4.265   3.265  24.658  0.00  0.00    +0.008 C 
ATOM     35  C   UNL     1      -3.762   2.665  24.399  0.00  0.00    +0.022 C 
ATOM     36  C   UNL     1      -2.945   2.752  24.468  0.00  0.00    +0.093 C 
BRANCH  27  28
ATOM     28  C   UNL     1      -5.082   3.178  24.589  0.00  0.00    +0.026 C 
BRANCH  28  29
ATOM     29  C   UNL     1      -5.480   2.634  25.066  0.00  0.00    -0.022 A 
ATOM     30  C   UNL     1      -5.686   2.838  25.839  0.00  0.00    -0.004 A 
ATOM     31  C   UNL     1      -6.084   2.295  26.316  0.00  0.00    -0.000 A 
ATOM     32  C   UNL     1      -6.276   1.548  26.020  0.00  0.00    -0.000 A 
ATOM     33  C   UNL     1      -6.069   1.346  25.248  0.00  0.00    -0.000 A 
ATOM     34  C   UNL     1      -5.671   1.889  24.771  0.00  0.00    -0.004 A 
ENDBRANCH  28  29
ENDBRANCH  27  28
ENDBRANCH   3   2
ENDBRANCH   4   3
BRANCH   9  10
ATOM     10  C   UNL     1      -0.379   1.642  24.154  0.00  0.00    +0.051 C 
BRANCH  10  11
ATOM     11  C   UNL     1      -0.439   0.820  24.168  0.00  0.00    +0.100 A 
ATOM     12  N   UNL     1       0.187   0.287  24.107  0.00  0.00    -0.082 NA
ATOM     13  O   UNL     1      -0.123  -0.477  24.146  0.00  0.00    -0.354 OA
ATOM     14  C   UNL     1      -0.941  -0.416  24.231  0.00  0.00    +0.198 A 
ATOM     23  C   UNL     1      -1.137   0.385  24.245  0.00  0.00    +0.057 A 
BRANCH  14  15
ATOM     15  C   UNL     1      -1.471  -1.045  24.293  0.00  0.00    +0.272 C 
BRANCH  15  16
ATOM     16  O   UNL     1      -2.189  -0.943  24.685  0.00  0.00    -0.467 OA
BRANCH  16  17
ATOM     17  C   UNL     1      -2.817  -1.456  24.536  0.00  0.00    +0.139 A 
ATOM     18  C   UNL     1      -2.749  -2.257  24.724  0.00  0.00    +0.037 A 
ATOM     19  C   UNL     1      -3.377  -2.770  24.575  0.00  0.00    +0.003 A 
ATOM     20  C   UNL     1      -4.073  -2.484  24.238  0.00  0.00    +0.000 A 
ATOM     21  C   UNL     1      -4.141  -1.683  24.050  0.00  0.00    +0.003 A 
ATOM     22  C   UNL     1      -3.513  -1.170  24.199  0.00  0.00    +0.037 A 
ENDBRANCH  16  17
ENDBRANCH  15  16
ENDBRANCH  14  15
ENDBRANCH  10  11
ENDBRANCH   9  10
TORSDOF 9
ENDMDL
MODEL 3
REMARK VINA RESULT:     -12.7      1.670      4.217
REMARK  Name = 
REMARK  9 active torsions:
REMARK  status: ('A' for Active; 'I' for Inactive)
REMARK    1  A    between atoms: C_2  and  C_3
REMARK    2  A    between atoms: C_3  and  C_4
REMARK    3  A    between atoms: C_9  and  C_10
REMARK    4  A    between atoms: C_10  and  C_11
REMARK    5  A    between atoms: C_14  and  C_15
REMARK    6  A    between atoms: C_15  and  O_16
REMARK    7  A    between atoms: O_16  and  C_17
REMARK    8  A    between atoms: C_27  and  C_28
REMARK    9  A    between atoms: C_28  and  C_29
REMARK                            x       y       z     vdW  Elec       q    Type
REMARK                         _______ _______ _______ _____ _____    ______ ____
ROOT
ATOM      4  C   UNL     1      -1.364  -0.910  24.648  0.00  0.00    +0.012 C 
ATOM      5  C   UNL     1      -1.321  -1.533  25.189  0.00  0.00    +0.019 C 
ATOM      6  C   UNL     1      -0.588  -1.852  25.392  0.00  0.00    +0.089 C 
ATOM      7  N   UNL     1       0.101  -1.551  25.055  0.00  0.00    -0.218 NA
ATOM      8  C   UNL     1       0.058  -0.929  24.514  0.00  0.00    +0.089 C 
ATOM      9  C   UNL     1      -0.675  -0.609  24.311  0.00  0.00    +0.024 C 
ENDROOT
BRANCH   4   3
ATOM      3  C   UNL     1      -2.097  -0.591  24.446  0.00  0.00    +0.085 C 
BRANCH   3   2
ATOM      1  O   UNL     1      -2.737  -1.311  25.500  0.00  0.00    -0.275 OA
ATOM      2  C   UNL     1      -2.748  -0.707  24.940  0.00  0.00    +0.226 C 
ATOM     24  N   UNL     1      -3.410  -0.219  24.872  0.00  0.00    -0.280 N 
ATOM     25  C   UNL     1      -4.061  -0.335  25.366  0.00  0.00    +0.093 C 
ATOM     26  C   UNL     1      -4.722   0.153  25.297  0.00  0.00    +0.022 C 
ATOM     27  C   UNL     1      -4.733   0.757  24.736  0.00  0.00    +0.008 C 
ATOM     35  C   UNL     1      -4.083   0.874  24.243  0.00  0.00    +0.022 C 
ATOM     36  C   UNL     1      -3.420   0.386  24.310  0.00  0.00    +0.093 C 
BRANCH  27  28
ATOM     28  C   UNL     1      -5.394   1.245  24.669  0.00  0.00    +0.026 C 
BRANCH  28  29
ATOM     29  C   UNL     1      -5.393   1.992  25.020  0.00  0.00    -0.022 A 
ATOM     30  C   UNL     1      -5.712   2.093  25.775  0.00  0.00    -0.004 A 
ATOM     31  C   UNL     1      -5.711   2.839  26.127  0.00  0.00    -0.000 A 
ATOM     32  C   UNL     1      -5.392   3.485  25.723  0.00  0.00    -0.000 A 
ATOM     33  C   UNL     1      -5.075   3.384  24.969  0.00  0.00    -0.000 A 
ATOM     34  C   UNL     1      -5.075   2.637  24.617  0.00  0.00    -0.004 A 
ENDBRANCH  28  29
ENDBRANCH  27  28
ENDBRANCH   3   2
ENDBRANCH   4   3
BRANCH   9  10
ATOM     10  C   UNL     1      -0.718   0.013  23.771  0.00  0.00    +0.051 C 
BRANCH  10  11
ATOM     11  C   UNL     1      -0.299   0.710  23.909  0.00  0.00    +0.100 A 
ATOM     12  N   UNL     1       0.521   0.796  23.884  0.00  0.00    -0.082 NA
ATOM     13  O   UNL     1       0.701   1.583  24.057  0.00  0.00    -0.354 OA
ATOM     14  C   UNL     1      -0.009   1.983  24.189  0.00  0.00    +0.198 A 
ATOM     23  C   UNL     1      -0.627   1.444  24.098  0.00  0.00    +0.057 A 
BRANCH  14  15
ATOM     15  C   UNL     1      -0.087   2.782  24.378  0.00  0.00    +0.272 C 
BRANCH  15  16
ATOM     16  O   UNL     1      -0.468   3.005  25.076  0.00  0.00    -0.467 OA
BRANCH  16  17
ATOM     17  C   UNL     1      -0.843   3.737  25.125  0.00  0.00    +0.139 A 
ATOM     18  C   UNL     1      -0.490   4.404  24.790  0.00  0.00    +0.037 A 
ATOM     19  C   UNL     1      -0.866   5.137  24.838  0.00  0.00    +0.003 A 
ATOM     20  C   UNL     1      -1.594   5.203  25.221  0.00  0.00    +0.000 A 
ATOM     21  C   UNL     1      -1.946   4.536  25.555  0.00  0.00    +0.003 A 
ATOM     22  C   UNL     1      -1.571   3.804  25.507  0.00  0.00    +0.037 A 
ENDBRANCH  16  17
ENDBRANCH  15  16
ENDBRANCH  14  15
ENDBRANCH  10  11
ENDBRANCH   9  10
TORSDOF 9
ENDMDL
MODEL 4
REMARK VINA RESULT:     -12.7      1.443      4.409
REMARK  Name = 
REMARK  9 active torsions:
REMARK  status: ('A' for Active; 'I' for Inactive)
REMARK    1  A    between atoms: C_2  and  C_3
REMARK    2  A    between atoms: C_3  and  C_4
REMARK    3  A    between atoms: C_9  and  C_10
REMARK    4  A    between atoms: C_10  and  C_11
REMARK    5  A    between atoms: C_14  and  C_15
REMARK    6  A    between atoms: C_15  and  O_16
REMARK    7  A    between atoms: O_16  and  C_17
REMARK    8  A    between atoms: C_27  and  C_28
REMARK    9  A    between atoms: C_28  and  C_29
REMARK                            x       y       z     vdW  Elec       q    Type
REMARK                         _______ _______ _______ _____ _____    ______ ____
ROOT
ATOM      4  C   UNL     1      -1.502  -1.308  24.856  0.00  0.00    +0.012 C 
ATOM      5  C   UNL     1      -1.005  -1.746  24.362  0.00  0.00    +0.019 C 
ATOM      6  C   UNL     1      -1.263  -2.466  24.053  0.00  0.00    +0.089 C 
ATOM      7  N   UNL     1      -2.015  -2.749  24.236  0.00  0.00    -0.218 NA
ATOM      8  C   UNL     1      -2.511  -2.312  24.729  0.00  0.00    +0.089 C 
ATOM      9  C   UNL     1      -2.254  -1.591  25.039  0.00  0.00    +0.024 C 
ENDROOT
BRANCH   4   3
ATOM      3  C   UNL     1      -1.245  -0.588  25.165  0.00  0.00    +0.085 C 
BRANCH   3   2
ATOM      1  O   UNL     1      -0.362  -0.416  24.056  0.00  0.00    -0.275 OA
ATOM      2  C   UNL     1      -0.725  -0.116  24.732  0.00  0.00    +0.226 C 
ATOM     24  N   UNL     1      -0.569   0.656  24.976  0.00  0.00    -0.280 N 
ATOM     25  C   UNL     1      -0.048   1.129  24.543  0.00  0.00    +0.093 C 
ATOM     26  C   UNL     1       0.107   1.901  24.788  0.00  0.00    +0.022 C 
ATOM     27  C   UNL     1      -0.256   2.201  25.465  0.00  0.00    +0.008 C 
ATOM     35  C   UNL     1      -0.775   1.729  25.897  0.00  0.00    +0.022 C 
ATOM     36  C   UNL     1      -0.932   0.957  25.654  0.00  0.00    +0.093 C 
BRANCH  27  28
ATOM     28  C   UNL     1      -0.100   2.973  25.708  0.00  0.00    +0.026 C 
BRANCH  28  29
ATOM     29  C   UNL     1      -0.615   3.584  25.500  0.00  0.00    -0.022 A 
ATOM     30  C   UNL     1      -0.425   4.088  24.874  0.00  0.00    -0.004 A 
ATOM     31  C   UNL     1      -0.940   4.698  24.666  0.00  0.00    -0.000 A 
ATOM     32  C   UNL     1      -1.644   4.805  25.084  0.00  0.00    -0.000 A 
ATOM     33  C   UNL     1      -1.832   4.301  25.709  0.00  0.00    -0.000 A 
ATOM     34  C   UNL     1      -1.318   3.690  25.917  0.00  0.00    -0.004 A 
ENDBRANCH  28  29
ENDBRANCH  27  28
ENDBRANCH   3   2
ENDBRANCH   4   3
BRANCH   9  10
ATOM     10  C   UNL     1      -2.751  -1.154  25.532  0.00  0.00    +0.051 C 
BRANCH  10  11
ATOM     11  C   UNL     1      -3.460  -0.850  25.240  0.00  0.00    +0.100 A 
ATOM     12  N   UNL     1      -3.955  -1.216  24.691  0.00  0.00    -0.082 NA
ATOM     13  O   UNL     1      -4.599  -0.718  24.557  0.00  0.00    -0.354 OA
ATOM     14  C   UNL     1      -4.502  -0.044  25.023  0.00  0.00    +0.198 A 
ATOM     23  C   UNL     1      -3.798  -0.125  25.445  0.00  0.00    +0.057 A 
BRANCH  14  15
ATOM     15  C   UNL     1      -5.018   0.598  25.060  0.00  0.00    +0.272 C 
BRANCH  15  16
ATOM     16  O   UNL     1      -4.870   1.272  24.607  0.00  0.00    -0.467 OA
BRANCH  16  17
ATOM     17  C   UNL     1      -5.092   2.015  24.890  0.00  0.00    +0.139 A 
ATOM     18  C   UNL     1      -4.702   2.691  24.622  0.00  0.00    +0.037 A 
ATOM     19  C   UNL     1      -4.924   3.433  24.904  0.00  0.00    +0.003 A 
ATOM     20  C   UNL     1      -5.536   3.500  25.454  0.00  0.00    +0.000 A 
ATOM     21  C   UNL     1      -5.926   2.824  25.721  0.00  0.00    +0.003 A 
ATOM     22  C   UNL     1      -5.704   2.082  25.439  0.00  0.00    +0.037 A 
ENDBRANCH  16  17
ENDBRANCH  15  16
ENDBRANCH  14  15
ENDBRANCH  10  11
ENDBRANCH   9  10
TORSDOF 9
ENDMDL
MODEL 5
REMARK VINA RESULT:     -12.1      2.867      6.331
REMARK  Name = 
REMARK  9 active torsions:
REMARK  status: ('A' for Active; 'I' for Inactive)
REMARK    1  A    between atoms: C_2  and  C_3
REMARK    2  A    between atoms: C_3  and  C_4
REMARK    3  A    between atoms: C_9  and  C_10
REMARK    4  A    between atoms: C_10  and  C_11
REMARK    5  A    between atoms: C_14  and  C_15
REMARK    6  A    between atoms: C_15  and  O_16
REMARK    7  A    between atoms: O_16  and  C_17
REMARK    8  A    between atoms: C_27  and  C_28
REMARK    9  A    between atoms: C_28  and  C_29
REMARK                            x       y       z     vdW  Elec       q    Type
REMARK                         _______ _______ _______ _____ _____    ______ ____
ROOT
ATOM      4  C   UNL     1      -0.736   0.249  24.350  0.00  0.00    +0.012 C 
ATOM      5  C   UNL     1      -1.040  -0.201  24.972  0.00  0.00    +0.019 C 
ATOM      6  C   UNL     1      -0.719  -0.943  25.138  0.00  0.00    +0.089 C 
ATOM      7  N   UNL     1      -0.096  -1.234  24.683  0.00  0.00    -0.218 NA
ATOM      8  C   UNL     1       0.207  -0.785  24.062  0.00  0.00    +0.089 C 
ATOM      9  C   UNL     1      -0.114  -0.042  23.895  0.00  0.00    +0.024 C 
ENDROOT
BRANCH   4   3
ATOM      3  C   UNL     1      -1.057   0.991  24.184  0.00  0.00    +0.085 C 
BRANCH   3   2
ATOM      1  O   UNL     1      -0.839   1.559  25.476  0.00  0.00    -0.275 OA
ATOM      2  C   UNL     1      -1.304   1.480  24.801  0.00  0.00    +0.226 C 
ATOM     24  N   UNL     1      -2.018   1.890  24.741  0.00  0.00    -0.280 N 
ATOM     25  C   UNL     1      -2.265   2.380  25.358  0.00  0.00    +0.093 C 
ATOM     26  C   UNL     1      -2.978   2.790  25.298  0.00  0.00    +0.022 C 
ATOM     27  C   UNL     1      -3.444   2.711  24.622  0.00  0.00    +0.008 C 
ATOM     35  C   UNL     1      -3.197   2.222  24.006  0.00  0.00    +0.022 C 
ATOM     36  C   UNL     1      -2.484   1.811  24.065  0.00  0.00    +0.093 C 
BRANCH  27  28
ATOM     28  C   UNL     1      -4.157   3.121  24.562  0.00  0.00    +0.026 C 
BRANCH  28  29
ATOM     29  C   UNL     1      -4.839   2.817  24.917  0.00  0.00    -0.022 A 
ATOM     30  C   UNL     1      -5.262   2.213  24.546  0.00  0.00    -0.004 A 
ATOM     31  C   UNL     1      -5.942   1.910  24.900  0.00  0.00    -0.000 A 
ATOM     32  C   UNL     1      -6.200   2.211  25.625  0.00  0.00    -0.000 A 
ATOM     33  C   UNL     1      -5.777   2.815  25.994  0.00  0.00    -0.000 A 
ATOM     34  C   UNL     1      -5.096   3.118  25.640  0.00  0.00    -0.004 A 
ENDBRANCH  28  29
ENDBRANCH  27  28
ENDBRANCH   3   2
ENDBRANCH   4   3
BRANCH   9  10
ATOM     10  C   UNL     1       0.189   0.407  23.273  0.00  0.00    +0.051 C 
BRANCH  10  11
ATOM     11  C   UNL     1       0.918   0.212  22.940  0.00  0.00    +0.100 A 
ATOM     12  N   UNL     1       1.038  -0.277  22.287  0.00  0.00    -0.082 NA
ATOM     13  O   UNL     1       1.849  -0.319  22.144  0.00  0.00    -0.354 OA
ATOM     14  C   UNL     1       2.232   0.145  22.710  0.00  0.00    +0.198 A 
ATOM     23  C   UNL     1       1.656   0.473  23.202  0.00  0.00    +0.057 A 
BRANCH  14  15
ATOM     15  C   UNL     1       3.046   0.260  22.773  0.00  0.00    +0.272 C 
BRANCH  15  16
ATOM     16  O   UNL     1       3.538  -0.374  22.969  0.00  0.00    -0.467 OA
BRANCH  16  17
ATOM     17  C   UNL     1       4.283  -0.231  23.291  0.00  0.00    +0.139 A 
ATOM     18  C   UNL     1       4.651   0.498  23.174  0.00  0.00    +0.037 A 
ATOM     19  C   UNL     1       5.397   0.641  23.496  0.00  0.00    +0.003 A 
ATOM     20  C   UNL     1       5.776   0.054  23.936  0.00  0.00    +0.000 A 
ATOM     21  C   UNL     1       5.408  -0.675  24.053  0.00  0.00    +0.003 A 
ATOM     22  C   UNL     1       4.662  -0.818  23.731  0.00  0.00    +0.037 A 
ENDBRANCH  16  17
ENDBRANCH  15  16
ENDBRANCH  14  15
ENDBRANCH  10  11
ENDBRANCH   9  10
TORSDOF 9
ENDMDL
MODEL 6
REMARK VINA RESULT:     -12.1      2.098      6.039
REMARK  Name = 
REMARK  9 active torsions:
REMARK  status: ('A' for Active; 'I' for Inactive)
REMARK    1  A    between atoms: C_2  and  C_3
REMARK    2  A    between atoms: C_3  and  C_4
REMARK    3  A    between atoms: C_9  and  C_10
REMARK    4  A    between atoms: C_10  and  C_11
REMARK    5  A    between atoms: C_14  and  C_15
REMARK    6  A    between atoms: C_15  and  O_16
REMARK    7  A    between atoms: O_16  and  C_17
REMARK    8  A    between atoms: C_27  and  C_28
REMARK    9  A    between atoms: C_28  and  C_29
REMARK                            x       y       z     vdW  Elec       q    Type
REMARK                         _______ _______ _______ _____ _____    ______ ____
ROOT
ATOM      4  C   UNL     1      -3.666  -1.162  24.298  0.00  0.00    +0.012 C 
ATOM      5  C   UNL     1      -4.273  -1.545  23.890  0.00  0.00    +0.019 C 
ATOM      6  C   UNL     1      -4.303  -2.369  23.875  0.00  0.00    +0.089 C 
ATOM      7  N   UNL     1      -3.728  -2.810  24.268  0.00  0.00    -0.218 NA
ATOM      8  C   UNL     1      -3.121  -2.428  24.676  0.00  0.00    +0.089 C 
ATOM      9  C   UNL     1      -3.091  -1.603  24.691  0.00  0.00    +0.024 C 
ENDROOT
BRANCH   4   3
ATOM      3  C   UNL     1      -3.636  -0.337  24.313  0.00  0.00    +0.085 C 
BRANCH   3   2
ATOM      1  O   UNL     1      -4.975  -0.298  24.810  0.00  0.00    -0.275 OA
ATOM      2  C   UNL     1      -4.293   0.095  24.565  0.00  0.00    +0.226 C 
ATOM     24  N   UNL     1      -4.266   0.919  24.571  0.00  0.00    -0.280 N 
ATOM     25  C   UNL     1      -4.923   1.351  24.823  0.00  0.00    +0.093 C 
ATOM     26  C   UNL     1      -4.896   2.175  24.829  0.00  0.00    +0.022 C 
ATOM     27  C   UNL     1      -4.213   2.568  24.584  0.00  0.00    +0.008 C 
ATOM     35  C   UNL     1      -3.557   2.137  24.332  0.00  0.00    +0.022 C 
ATOM     36  C   UNL     1      -3.583   1.312  24.326  0.00  0.00    +0.093 C 
BRANCH  27  28
ATOM     28  C   UNL     1      -4.186   3.392  24.590  0.00  0.00    +0.026 C 
BRANCH  28  29
ATOM     29  C   UNL     1      -3.613   3.783  25.038  0.00  0.00    -0.022 A 
ATOM     30  C   UNL     1      -2.926   4.060  24.675  0.00  0.00    -0.004 A 
ATOM     31  C   UNL     1      -2.353   4.451  25.122  0.00  0.00    -0.000 A 
ATOM     32  C   UNL     1      -2.468   4.565  25.932  0.00  0.00    -0.000 A 
ATOM     33  C   UNL     1      -3.156   4.288  26.293  0.00  0.00    -0.000 A 
ATOM     34  C   UNL     1      -3.728   3.897  25.846  0.00  0.00    -0.004 A 
ENDBRANCH  28  29
ENDBRANCH  27  28
ENDBRANCH   3   2
ENDBRANCH   4   3
BRANCH   9  10
ATOM     10  C   UNL     1      -2.484  -1.220  25.099  0.00  0.00    +0.051 C 
BRANCH  10  11
ATOM     11  C   UNL     1      -1.697  -1.375  24.907  0.00  0.00    +0.100 A 
ATOM     12  N   UNL     1      -1.308  -2.096  24.998  0.00  0.00    -0.082 NA
ATOM     13  O   UNL     1      -0.530  -2.002  24.739  0.00  0.00    -0.354 OA
ATOM     14  C   UNL     1      -0.438  -1.222  24.487  0.00  0.00    +0.198 A 
ATOM     23  C   UNL     1      -1.159  -0.834  24.592  0.00  0.00    +0.057 A 
BRANCH  14  15
ATOM     15  C   UNL     1       0.253  -0.888  24.185  0.00  0.00    +0.272 C 
BRANCH  15  16
ATOM     16  O   UNL     1       0.221  -0.420  23.506  0.00  0.00    -0.467 OA
BRANCH  16  17
ATOM     17  C   UNL     1       0.920  -0.180  23.139  0.00  0.00    +0.139 A 
ATOM     18  C   UNL     1       1.415   0.366  23.512  0.00  0.00    +0.037 A 
ATOM     19  C   UNL     1       2.113   0.606  23.145  0.00  0.00    +0.003 A 
ATOM     20  C   UNL     1       2.317   0.302  22.405  0.00  0.00    +0.000 A 
ATOM     21  C   UNL     1       1.822  -0.243  22.033  0.00  0.00    +0.003 A 
ATOM     22  C   UNL     1       1.124  -0.484  22.400  0.00  0.00    +0.037 A 
ENDBRANCH  16  17
ENDBRANCH  15  16
ENDBRANCH  14  15
ENDBRANCH  10  11
ENDBRANCH   9  10
TORSDOF 9
ENDMDL
MODEL 7
REMARK VINA RESULT:     -11.9      1.490      4.128
REMARK  Name = 
REMARK  9 active torsions:
REMARK  status: ('A' for Active; 'I' for Inactive)
REMARK    1  A    between atoms: C_2  and  C_3
REMARK    2  A    between atoms: C_3  and  C_4
REMARK    3  A    between atoms: C_9  and  C_10
REMARK    4  A    between atoms: C_10  and  C_11
REMARK    5  A    between atoms: C_14  and  C_15
REMARK    6  A    between atoms: C_15  and  O_16
REMARK    7  A    between atoms: O_16  and  C_17
REMARK    8  A    between atoms: C_27  and  C_28
REMARK    9  A    between atoms: C_28  and  C_29
REMARK                            x       y       z     vdW  Elec       q    Type
REMARK                         _______ _______ _______ _____ _____    ______ ____
ROOT
ATOM      4  C   UNL     1      -3.368   3.716  25.371  0.00  0.00    +0.012 C 
ATOM      5  C   UNL     1      -3.251   4.190  26.036  0.00  0.00    +0.019 C 
ATOM      6  C   UNL     1      -3.887   4.371  26.530  0.00  0.00    +0.089 C 
ATOM      7  N   UNL     1      -4.638   4.078  26.359  0.00  0.00    -0.218 NA
ATOM      8  C   UNL     1      -4.755   3.603  25.694  0.00  0.00    +0.089 C 
ATOM      9  C   UNL     1      -4.119   3.423  25.200  0.00  0.00    +0.024 C 
ENDROOT
BRANCH   4   3
ATOM      3  C   UNL     1      -2.732   3.535  24.878  0.00  0.00    +0.085 C 
BRANCH   3   2
ATOM      1  O   UNL     1      -1.760   4.104  25.757  0.00  0.00    -0.275 OA
ATOM      2  C   UNL     1      -1.961   3.558  25.174  0.00  0.00    +0.226 C 
ATOM     24  N   UNL     1      -1.394   3.033  24.885  0.00  0.00    -0.280 N 
ATOM     25  C   UNL     1      -0.624   3.055  25.181  0.00  0.00    +0.093 C 
ATOM     26  C   UNL     1      -0.056   2.530  24.893  0.00  0.00    +0.022 C 
ATOM     27  C   UNL     1      -0.258   1.983  24.309  0.00  0.00    +0.008 C 
ATOM     35  C   UNL     1      -1.028   1.961  24.014  0.00  0.00    +0.022 C 
ATOM     36  C   UNL     1      -1.596   2.486  24.301  0.00  0.00    +0.093 C 
BRANCH  27  28
ATOM     28  C   UNL     1       0.309   1.459  24.021  0.00  0.00    +0.026 C 
BRANCH  28  29
ATOM     29  C   UNL     1       0.155   0.648  24.012  0.00  0.00    -0.022 A 
ATOM     30  C   UNL     1       0.242   0.220  23.312  0.00  0.00    -0.004 A 
ATOM     31  C   UNL     1       0.088  -0.591  23.303  0.00  0.00    -0.000 A 
ATOM     32  C   UNL     1      -0.154  -0.973  23.994  0.00  0.00    -0.000 A 
ATOM     33  C   UNL     1      -0.241  -0.544  24.693  0.00  0.00    -0.000 A 
ATOM     34  C   UNL     1      -0.086   0.266  24.702  0.00  0.00    -0.004 A 
ENDBRANCH  28  29
ENDBRANCH  27  28
ENDBRANCH   3   2
ENDBRANCH   4   3
BRANCH   9  10
ATOM     10  C   UNL     1      -4.235   2.949  24.535  0.00  0.00    +0.051 C 
BRANCH  10  11
ATOM     11  C   UNL     1      -4.621   2.223  24.608  0.00  0.00    +0.100 A 
ATOM     12  N   UNL     1      -5.434   2.112  24.687  0.00  0.00    -0.082 NA
ATOM     13  O   UNL     1      -5.577   1.301  24.742  0.00  0.00    -0.354 OA
ATOM     14  C   UNL     1      -4.852   0.911  24.697  0.00  0.00    +0.198 A 
ATOM     23  C   UNL     1      -4.260   1.480  24.614  0.00  0.00    +0.057 A 
BRANCH  14  15
ATOM     15  C   UNL     1      -4.737   0.094  24.729  0.00  0.00    +0.272 C 
BRANCH  15  16
ATOM     16  O   UNL     1      -4.024  -0.232  24.472  0.00  0.00    -0.467 OA
BRANCH  16  17
ATOM     17  C   UNL     1      -3.894  -1.044  24.540  0.00  0.00    +0.139 A 
ATOM     18  C   UNL     1      -4.065  -1.543  23.905  0.00  0.00    +0.037 A 
ATOM     19  C   UNL     1      -3.935  -2.355  23.973  0.00  0.00    +0.003 A 
ATOM     20  C   UNL     1      -3.635  -2.668  24.676  0.00  0.00    +0.000 A 
ATOM     21  C   UNL     1      -3.465  -2.168  25.310  0.00  0.00    +0.003 A 
ATOM     22  C   UNL     1      -3.595  -1.356  25.242  0.00  0.00    +0.037 A 
ENDBRANCH  16  17
ENDBRANCH  15  16
ENDBRANCH  14  15
ENDBRANCH  10  11
ENDBRANCH   9  10
TORSDOF 9
ENDMDL
MODEL 8
REMARK VINA RESULT:     -11.7      1.389      3.947
REMARK  Name = 
REMARK  9 active torsions:
REMARK  status: ('A' for Active; 'I' for Inactive)
REMARK    1  A    between atoms: C_2  and  C_3
REMARK    2  A    between atoms: C_3  and  C_4
REMARK    3  A    between atoms: C_9  and  C_10
REMARK    4  A    between atoms: C_10  and  C_11
REMARK    5  A    between atoms: C_14  and  C_15
REMARK    6  A    between atoms: C_15  and  O_16
REMARK    7  A    between atoms: O_16  and  C_17
REMARK    8  A    between atoms: C_27  and  C_28
REMARK    9  A    between atoms: C_28  and  C_29
REMARK                            x       y       z     vdW  Elec       q    Type
REMARK                         _______ _______ _______ _____ _____    ______ ____
ROOT
ATOM      4  C   UNL     1      -3.370   3.457  25.329  0.00  0.00    +0.012 C 
ATOM      5  C   UNL     1      -3.757   3.609  26.042  0.00  0.00    +0.019 C 
ATOM      6  C   UNL     1      -3.462   4.182  26.557  0.00  0.00    +0.089 C 
ATOM      7  N   UNL     1      -2.781   4.602  26.360  0.00  0.00    -0.218 NA
ATOM      8  C   UNL     1      -2.393   4.450  25.648  0.00  0.00    +0.089 C 
ATOM      9  C   UNL     1      -2.689   3.877  25.132  0.00  0.00    +0.024 C 
ENDROOT
BRANCH   4   3
ATOM      3  C   UNL     1      -3.665   2.885  24.814  0.00  0.00    +0.085 C 
BRANCH   3   2
ATOM      1  O   UNL     1      -4.929   2.779  25.472  0.00  0.00    -0.275 OA
ATOM      2  C   UNL     1      -4.323   2.436  25.030  0.00  0.00    +0.226 C 
ATOM     24  N   UNL     1      -4.374   1.644  24.804  0.00  0.00    -0.280 N 
ATOM     25  C   UNL     1      -5.033   1.195  25.021  0.00  0.00    +0.093 C 
ATOM     26  C   UNL     1      -5.083   0.404  24.795  0.00  0.00    +0.022 C 
ATOM     27  C   UNL     1      -4.477   0.060  24.353  0.00  0.00    +0.008 C 
ATOM     35  C   UNL     1      -3.820   0.509  24.137  0.00  0.00    +0.022 C 
ATOM     36  C   UNL     1      -3.768   1.301  24.362  0.00  0.00    +0.093 C 
BRANCH  27  28
ATOM     28  C   UNL     1      -4.529  -0.731  24.128  0.00  0.00    +0.026 C 
BRANCH  28  29
ATOM     29  C   UNL     1      -4.032  -1.292  24.474  0.00  0.00    -0.022 A 
ATOM     30  C   UNL     1      -3.912  -1.288  25.291  0.00  0.00    -0.004 A 
ATOM     31  C   UNL     1      -3.415  -1.849  25.637  0.00  0.00    -0.000 A 
ATOM     32  C   UNL     1      -3.039  -2.413  25.167  0.00  0.00    -0.000 A 
ATOM     33  C   UNL     1      -3.159  -2.416  24.351  0.00  0.00    -0.000 A 
ATOM     34  C   UNL     1      -3.656  -1.856  24.005  0.00  0.00    -0.004 A 
ENDBRANCH  28  29
ENDBRANCH  27  28
ENDBRANCH   3   2
ENDBRANCH   4   3
BRANCH   9  10
ATOM     10  C   UNL     1      -2.302   3.726  24.419  0.00  0.00    +0.051 C 
BRANCH  10  11
ATOM     11  C   UNL     1      -1.513   3.485  24.421  0.00  0.00    +0.100 A 
ATOM     12  N   UNL     1      -0.868   3.937  24.665  0.00  0.00    -0.082 NA
ATOM     13  O   UNL     1      -0.186   3.480  24.574  0.00  0.00    -0.354 OA
ATOM     14  C   UNL     1      -0.411   2.745  24.274  0.00  0.00    +0.198 A 
ATOM     23  C   UNL     1      -1.231   2.747  24.179  0.00  0.00    +0.057 A 
BRANCH  14  15
ATOM     15  C   UNL     1       0.095   2.117  24.099  0.00  0.00    +0.272 C 
BRANCH  15  16
ATOM     16  O   UNL     1       0.063   1.425  24.546  0.00  0.00    -0.467 OA
BRANCH  16  17
ATOM     17  C   UNL     1       0.173   0.693  24.182  0.00  0.00    +0.139 A 
ATOM     18  C   UNL     1       0.692   0.625  23.543  0.00  0.00    +0.037 A 
ATOM     19  C   UNL     1       0.802  -0.107  23.179  0.00  0.00    +0.003 A 
ATOM     20  C   UNL     1       0.394  -0.771  23.452  0.00  0.00    +0.000 A 
ATOM     21  C   UNL     1      -0.125  -0.701  24.091  0.00  0.00    +0.003 A 
ATOM     22  C   UNL     1      -0.235   0.030  24.455  0.00  0.00    +0.037 A 
ENDBRANCH  16  17
ENDBRANCH  15  16
ENDBRANCH  14  15
ENDBRANCH  10  11
ENDBRANCH   9  10
TORSDOF 9
ENDMDL
MODEL 9
REMARK VINA RESULT:     -11.4      1.680      5.549
REMARK  Name = 
REMARK  9 active torsions:
REMARK  status: ('A' for Active; 'I' for Inactive)
REMARK    1  A    between atoms: C_2  and  C_3
REMARK    2  A    between atoms: C_3  and  C_4
REMARK    3  A    between atoms: C_9  and  C_10
REMARK    4  A    between atoms: C_10  and  C_11
REMARK    5  A    between atoms: C_14  and  C_15
REMARK    6  A    between atoms: C_15  and  O_16
REMARK    7  A    between atoms: O_16  and  C_17
REMARK    8  A    between atoms: C_27  and  C_28
REMARK    9  A    between atoms: C_28  and  C_29
REMARK                            x       y       z     vdW  Elec       q    Type
REMARK                         _______ _______ _______ _____ _____    ______ ____
ROOT
ATOM      4  C   UNL     1      -5.249   2.492  25.351  0.00  0.00    +0.012 C 
ATOM      5  C   UNL     1      -5.705   2.811  25.961  0.00  0.00    +0.019 C 
ATOM      6  C   UNL     1      -6.305   2.360  26.305  0.00  0.00    +0.089 C 
ATOM      7  N   UNL     1      -6.448   1.593  26.041  0.00  0.00    -0.218 NA
ATOM      8  C   UNL     1      -5.992   1.274  25.432  0.00  0.00    +0.089 C 
ATOM      9  C   UNL     1      -5.392   1.724  25.087  0.00  0.00    +0.024 C 
ENDROOT
BRANCH   4   3
ATOM      3  C   UNL     1      -4.649   2.942  25.007  0.00  0.00    +0.085 C 
BRANCH   3   2
ATOM      1  O   UNL     1      -4.693   3.983  25.984  0.00  0.00    -0.275 OA
ATOM      2  C   UNL     1      -4.267   3.525  25.448  0.00  0.00    +0.226 C 
ATOM     24  N   UNL     1      -3.457   3.648  25.353  0.00  0.00    -0.280 N 
ATOM     25  C   UNL     1      -3.074   4.232  25.794  0.00  0.00    +0.093 C 
ATOM     26  C   UNL     1      -2.264   4.355  25.699  0.00  0.00    +0.022 C 
ATOM     27  C   UNL     1      -1.836   3.896  25.163  0.00  0.00    +0.008 C 
ATOM     35  C   UNL     1      -2.219   3.314  24.722  0.00  0.00    +0.022 C 
ATOM     36  C   UNL     1      -3.029   3.190  24.817  0.00  0.00    +0.093 C 
BRANCH  27  28
ATOM     28  C   UNL     1      -1.027   4.021  25.068  0.00  0.00    +0.026 C 
BRANCH  28  29
ATOM     29  C   UNL     1      -0.501   3.388  25.141  0.00  0.00    -0.022 A 
ATOM     30  C   UNL     1      -0.284   3.117  25.890  0.00  0.00    -0.004 A 
ATOM     31  C   UNL     1       0.241   2.485  25.963  0.00  0.00    -0.000 A 
ATOM     32  C   UNL     1       0.550   2.124  25.288  0.00  0.00    -0.000 A 
ATOM     33  C   UNL     1       0.332   2.396  24.540  0.00  0.00    -0.000 A 
ATOM     34  C   UNL     1      -0.193   3.027  24.467  0.00  0.00    -0.004 A 
ENDBRANCH  28  29
ENDBRANCH  27  28
ENDBRANCH   3   2
ENDBRANCH   4   3
BRANCH   9  10
ATOM     10  C   UNL     1      -4.936   1.405  24.478  0.00  0.00    +0.051 C 
BRANCH  10  11
ATOM     11  C   UNL     1      -4.685   0.621  24.518  0.00  0.00    +0.100 A 
ATOM     12  N   UNL     1      -5.142  -0.044  24.346  0.00  0.00    -0.082 NA
ATOM     13  O   UNL     1      -4.671  -0.713  24.458  0.00  0.00    -0.354 OA
ATOM     14  C   UNL     1      -3.924  -0.461  24.699  0.00  0.00    +0.198 A 
ATOM     23  C   UNL     1      -3.932   0.363  24.736  0.00  0.00    +0.057 A 
BRANCH  14  15
ATOM     15  C   UNL     1      -3.281  -0.948  24.873  0.00  0.00    +0.272 C 
BRANCH  15  16
ATOM     16  O   UNL     1      -2.554  -0.819  24.502  0.00  0.00    -0.467 OA
BRANCH  16  17
ATOM     17  C   UNL     1      -1.893  -1.257  24.728  0.00  0.00    +0.139 A 
ATOM     18  C   UNL     1      -1.838  -2.056  24.525  0.00  0.00    +0.037 A 
ATOM     19  C   UNL     1      -1.177  -2.494  24.751  0.00  0.00    +0.003 A 
ATOM     20  C   UNL     1      -0.571  -2.134  25.181  0.00  0.00    +0.000 A 
ATOM     21  C   UNL     1      -0.626  -1.337  25.383  0.00  0.00    +0.003 A 
ATOM     22  C   UNL     1      -1.287  -0.899  25.157  0.00  0.00    +0.037 A 
ENDBRANCH  16  17
ENDBRANCH  15  16
ENDBRANCH  14  15
ENDBRANCH  10  11
ENDBRANCH   9  10
TORSDOF 9
ENDMDL
