MODEL 1
REMARK VINA RESULT:     -10.2      0.000      0.000
REMARK  Name = 
REMARK  4 active torsions:
REMARK  status: ('A' for Active; 'I' for Inactive)
REMARK    1  A    between atoms: S_2  and  C_3
REMARK    2  A    between atoms: C_3  and  C_4
REMARK    3  A    between atoms: N_6  and  C_7
REMARK    4  A    between atoms: C_18  and  C_23
REMARK                            x       y       z     vdW  Elec       q    Type
REMARK                         _______ _______ _______ _____ _____    ______ ____
ROOT
ATOM      7  C   UNL     1      -1.743   2.487  25.119  0.00  0.00    +0.124 C 
ATOM      8  C   UNL     1      -0.985   2.167  25.177  0.00  0.00    +0.045 C 
ATOM      9  C   UNL     1      -1.047   1.349  25.092  0.00  0.00    +0.096 C 
ATOM     10  N   UNL     1      -1.843   1.163  24.980  0.00  0.00    -0.268 N 
ATOM     11  C   UNL     1      -2.274   1.867  24.997  0.00  0.00    +0.174 C 
ATOM     12  C   UNL     1      -3.087   1.974  24.911  0.00  0.00    +0.265 C 
ATOM     13  O   UNL     1      -3.351   2.755  24.954  0.00  0.00    -0.271 OA
ATOM     14  N   UNL     1      -3.671   1.405  24.788  0.00  0.00    -0.178 NA
ATOM     15  C   UNL     1      -3.586   0.587  24.720  0.00  0.00    +0.078 A 
ATOM     16  C   UNL     1      -4.314   0.217  24.599  0.00  0.00    +0.017 A 
ATOM     17  C   UNL     1      -4.351  -0.603  24.516  0.00  0.00    +0.001 A 
ATOM     18  C   UNL     1      -3.660  -1.053  24.554  0.00  0.00    +0.001 A 
ATOM     19  C   UNL     1      -2.932  -0.683  24.676  0.00  0.00    +0.006 A 
ATOM     20  C   UNL     1      -2.896   0.137  24.758  0.00  0.00    +0.069 A 
ATOM     21  C   UNL     1      -2.120   0.394  24.874  0.00  0.00    +0.251 C 
ATOM     22  O   UNL     1      -1.545  -0.198  24.885  0.00  0.00    -0.270 OA
ENDROOT
BRANCH  18  23
ATOM     23  C   UNL     1      -3.698  -1.873  24.472  0.00  0.00    +0.007 A 
ATOM     24  C   UNL     1      -3.448  -2.429  25.029  0.00  0.00    +0.035 A 
ATOM     25  S   UNL     1      -3.588  -3.180  24.718  0.00  0.00    -0.086 S 
ATOM     26  C   UNL     1      -3.923  -3.089  23.970  0.00  0.00    +0.035 A 
ATOM     27  C   UNL     1      -3.991  -2.281  23.818  0.00  0.00    +0.007 A 
ENDBRANCH  18  23
BRANCH   7   6
ATOM      4  C   UNL     1      -1.340   3.853  25.235  0.00  0.00    +0.252 C 
ATOM      5  O   UNL     1      -0.549   3.619  25.244  0.00  0.00    -0.272 OA
ATOM      6  N   UNL     1      -1.938   3.287  25.172  0.00  0.00    -0.204 NA
BRANCH   4   3
ATOM      3  C   UNL     1      -1.534   4.653  25.288  0.00  0.00    +0.144 C 
BRANCH   3   2
ATOM      1  C   UNL     1      -1.326   6.000  24.859  0.00  0.00    +0.070 C 
ATOM      2  S   UNL     1      -1.073   5.216  24.899  0.00  0.00    -0.130 S 
ENDBRANCH   3   2
ENDBRANCH   4   3
ENDBRANCH   7   6
TORSDOF 4
ENDMDL
MODEL 2
REMARK VINA RESULT:      -9.9      2.635      3.868
REMARK  Name = 
REMARK  4 active torsions:
REMARK  status: ('A' for Active; 'I' for Inactive)
REMARK    1  A    between atoms: S_2  and  C_3
REMARK    2  A    between atoms: C_3  and  C_4
REMARK    3  A    between atoms: N_6  and  C_7
REMARK    4  A    between atoms: C_18  and  C_23
REMARK                            x       y       z     vdW  Elec       q    Type
REMARK                         _______ _______ _______ _____ _____    ______ ____
ROOT
ATOM      7  C   UNL     1      -0.695   0.506  24.024  0.00  0.00    +0.124 C 
ATOM      8  C   UNL     1      -0.846  -0.217  24.392  0.00  0.00    +0.045 C 
ATOM      9  C   UNL     1      -1.617  -0.197  24.686  0.00  0.00    +0.096 C 
ATOM     10  N   UNL     1      -1.942   0.539  24.501  0.00  0.00    -0.268 N 
ATOM     11  C   UNL     1      -1.371   0.973  24.091  0.00  0.00    +0.174 C 
ATOM     12  C   UNL     1      -1.428   1.738  23.788  0.00  0.00    +0.265 C 
ATOM     13  O   UNL     1      -0.755   2.020  23.403  0.00  0.00    -0.271 OA
ATOM     14  N   UNL     1      -2.068   2.257  23.819  0.00  0.00    -0.178 NA
ATOM     15  C   UNL     1      -2.810   2.141  24.160  0.00  0.00    +0.078 A 
ATOM     16  C   UNL     1      -3.292   2.804  24.068  0.00  0.00    +0.017 A 
ATOM     17  C   UNL     1      -4.059   2.802  24.371  0.00  0.00    +0.001 A 
ATOM     18  C   UNL     1      -4.344   2.135  24.767  0.00  0.00    +0.001 A 
ATOM     19  C   UNL     1      -3.862   1.472  24.860  0.00  0.00    +0.006 A 
ATOM     20  C   UNL     1      -3.094   1.475  24.556  0.00  0.00    +0.069 A 
ATOM     21  C   UNL     1      -2.708   0.763  24.707  0.00  0.00    +0.251 C 
ATOM     22  O   UNL     1      -3.146   0.198  25.120  0.00  0.00    -0.270 OA
ENDROOT
BRANCH  18  23
ATOM     23  C   UNL     1      -5.111   2.133  25.070  0.00  0.00    +0.007 A 
ATOM     24  C   UNL     1      -5.361   2.510  25.761  0.00  0.00    +0.035 A 
ATOM     25  S   UNL     1      -6.167   2.363  25.853  0.00  0.00    -0.086 S 
ATOM     26  C   UNL     1      -6.416   1.896  25.220  0.00  0.00    +0.035 A 
ATOM     27  C   UNL     1      -5.763   1.754  24.736  0.00  0.00    +0.007 A 
ENDBRANCH  18  23
BRANCH   7   6
ATOM      4  C   UNL     1       0.564   0.147  23.451  0.00  0.00    +0.252 C 
ATOM      5  O   UNL     1       0.415  -0.647  23.619  0.00  0.00    -0.272 OA
ATOM      6  N   UNL     1       0.010   0.723  23.654  0.00  0.00    -0.204 NA
BRANCH   4   3
ATOM      3  C   UNL     1       1.269   0.365  23.081  0.00  0.00    +0.144 C 
BRANCH   3   2
ATOM      1  C   UNL     1       2.434   0.010  22.333  0.00  0.00    +0.070 C 
ATOM      2  S   UNL     1       1.735  -0.208  22.713  0.00  0.00    -0.130 S 
ENDBRANCH   3   2
ENDBRANCH   4   3
ENDBRANCH   7   6
TORSDOF 4
ENDMDL
MODEL 3
REMARK VINA RESULT:      -9.6      0.941      5.458
REMARK  Name = 
REMARK  4 active torsions:
REMARK  status: ('A' for Active; 'I' for Inactive)
REMARK    1  A    between atoms: S_2  and  C_3
REMARK    2  A    between atoms: C_3  and  C_4
REMARK    3  A    between atoms: N_6  and  C_7
REMARK    4  A    between atoms: C_18  and  C_23
REMARK                            x       y       z     vdW  Elec       q    Type
REMARK                         _______ _______ _______ _____ _____    ______ ____
ROOT
ATOM      7  C   UNL     1      -3.335  -0.103  24.749  0.00  0.00    +0.124 C 
ATOM      8  C   UNL     1      -3.999   0.207  24.369  0.00  0.00    +0.045 C 
ATOM      9  C   UNL     1      -3.892   1.021  24.293  0.00  0.00    +0.096 C 
ATOM     10  N   UNL     1      -3.163   1.215  24.627  0.00  0.00    -0.268 N 
ATOM     11  C   UNL     1      -2.819   0.520  24.909  0.00  0.00    +0.174 C 
ATOM     12  C   UNL     1      -2.092   0.423  25.288  0.00  0.00    +0.265 C 
ATOM     13  O   UNL     1      -1.903  -0.350  25.505  0.00  0.00    -0.271 OA
ATOM     14  N   UNL     1      -1.531   0.996  25.478  0.00  0.00    -0.178 NA
ATOM     15  C   UNL     1      -1.556   1.809  25.336  0.00  0.00    +0.078 A 
ATOM     16  C   UNL     1      -0.877   2.185  25.616  0.00  0.00    +0.017 A 
ATOM     17  C   UNL     1      -0.792   3.001  25.529  0.00  0.00    +0.001 A 
ATOM     18  C   UNL     1      -1.387   3.441  25.162  0.00  0.00    +0.001 A 
ATOM     19  C   UNL     1      -2.066   3.064  24.882  0.00  0.00    +0.006 A 
ATOM     20  C   UNL     1      -2.150   2.248  24.969  0.00  0.00    +0.069 A 
ATOM     21  C   UNL     1      -2.865   1.984  24.654  0.00  0.00    +0.251 C 
ATOM     22  O   UNL     1      -3.346   2.565  24.321  0.00  0.00    -0.270 OA
ENDROOT
BRANCH  18  23
ATOM     23  C   UNL     1      -1.302   4.257  25.075  0.00  0.00    +0.007 A 
ATOM     24  C   UNL     1      -0.700   4.640  24.660  0.00  0.00    +0.035 A 
ATOM     25  S   UNL     1      -0.830   5.452  24.717  0.00  0.00    -0.086 S 
ATOM     26  C   UNL     1      -1.512   5.571  25.166  0.00  0.00    +0.035 A 
ATOM     27  C   UNL     1      -1.803   4.832  25.387  0.00  0.00    +0.007 A 
ENDBRANCH  18  23
BRANCH   7   6
ATOM      4  C   UNL     1      -3.730  -1.473  24.658  0.00  0.00    +0.252 C 
ATOM      5  O   UNL     1      -4.375  -1.257  24.191  0.00  0.00    -0.272 OA
ATOM      6  N   UNL     1      -3.210  -0.897  24.938  0.00  0.00    -0.204 NA
BRANCH   4   3
ATOM      3  C   UNL     1      -3.605  -2.267  24.847  0.00  0.00    +0.144 C 
BRANCH   3   2
ATOM      1  C   UNL     1      -3.403  -3.597  24.367  0.00  0.00    +0.070 C 
ATOM      2  S   UNL     1      -3.744  -2.852  24.281  0.00  0.00    -0.130 S 
ENDBRANCH   3   2
ENDBRANCH   4   3
ENDBRANCH   7   6
TORSDOF 4
ENDMDL
MODEL 4
REMARK VINA RESULT:      -7.9      2.651      4.102
REMARK  Name = 
REMARK  4 active torsions:
REMARK  status: ('A' for Active; 'I' for Inactive)
REMARK    1  A    between atoms: S_2  and  C_3
REMARK    2  A    between atoms: C_3  and  C_4
REMARK    3  A    between atoms: N_6  and  C_7
REMARK    4  A    between atoms: C_18  and  C_23
REMARK                            x       y       z     vdW  Elec       q    Type
REMARK                         _______ _______ _______ _____ _____    ______ ____
ROOT
ATOM      7  C   UNL     1      -3.324   1.603  24.464  0.00  0.00    +0.124 C 
ATOM      8  C   UNL     1      -3.250   2.287  24.008  0.00  0.00    +0.045 C 
ATOM      9  C   UNL     1      -2.513   2.269  23.639  0.00  0.00    +0.096 C 
ATOM     10  N   UNL     1      -2.131   1.574  23.867  0.00  0.00    -0.268 N 
ATOM     11  C   UNL     1      -2.633   1.162  24.377  0.00  0.00    +0.174 C 
ATOM     12  C   UNL     1      -2.504   0.439  24.752  0.00  0.00    +0.265 C 
ATOM     13  O   UNL     1      -3.119   0.171  25.232  0.00  0.00    -0.271 OA
ATOM     14  N   UNL     1      -1.842  -0.051  24.710  0.00  0.00    -0.178 NA
ATOM     15  C   UNL     1      -1.145   0.060  24.283  0.00  0.00    +0.078 A 
ATOM     16  C   UNL     1      -0.619  -0.567  24.395  0.00  0.00    +0.017 A 
ATOM     17  C   UNL     1       0.113  -0.563  24.016  0.00  0.00    +0.001 A 
ATOM     18  C   UNL     1       0.320   0.067  23.524  0.00  0.00    +0.001 A 
ATOM     19  C   UNL     1      -0.206   0.693  23.412  0.00  0.00    +0.006 A 
ATOM     20  C   UNL     1      -0.938   0.690  23.792  0.00  0.00    +0.069 A 
ATOM     21  C   UNL     1      -1.377   1.363  23.607  0.00  0.00    +0.251 C 
ATOM     22  O   UNL     1      -1.013   1.897  23.094  0.00  0.00    -0.270 OA
ENDROOT
BRANCH  18  23
ATOM     23  C   UNL     1       1.052   0.070  23.145  0.00  0.00    +0.007 A 
ATOM     24  C   UNL     1       1.731   0.464  23.403  0.00  0.00    +0.035 A 
ATOM     25  S   UNL     1       2.332   0.317  22.858  0.00  0.00    -0.086 S 
ATOM     26  C   UNL     1       2.026  -0.167  22.264  0.00  0.00    +0.035 A 
ATOM     27  C   UNL     1       1.236  -0.320  22.441  0.00  0.00    +0.007 A 
ENDBRANCH  18  23
BRANCH   7   6
ATOM      4  C   UNL     1      -4.643   1.882  24.939  0.00  0.00    +0.252 C 
ATOM      5  O   UNL     1      -4.658   2.575  24.490  0.00  0.00    -0.272 OA
ATOM      6  N   UNL     1      -3.976   1.396  24.926  0.00  0.00    -0.204 NA
BRANCH   4   3
ATOM      3  C   UNL     1      -5.295   1.675  25.401  0.00  0.00    +0.144 C 
BRANCH   3   2
ATOM      1  C   UNL     1      -6.375   2.093  26.239  0.00  0.00    +0.070 C 
ATOM      2  S   UNL     1      -5.831   2.255  25.640  0.00  0.00    -0.130 S 
ENDBRANCH   3   2
ENDBRANCH   4   3
ENDBRANCH   7   6
TORSDOF 4
ENDMDL
MODEL 5
REMARK VINA RESULT:      -7.2      1.988      2.528
REMARK  Name = 
REMARK  4 active torsions:
REMARK  status: ('A' for Active; 'I' for Inactive)
REMARK    1  A    between atoms: S_2  and  C_3
REMARK    2  A    between atoms: C_3  and  C_4
REMARK    3  A    between atoms: N_6  and  C_7
REMARK    4  A    between atoms: C_18  and  C_23
REMARK                            x       y       z     vdW  Elec       q    Type
REMARK                         _______ _______ _______ _____ _____    ______ ____
ROOT
ATOM      7  C   UNL     1      -4.226   2.417  24.821  0.00  0.00    +0.124 C 
ATOM      8  C   UNL     1      -3.569   2.787  24.486  0.00  0.00    +0.045 C 
ATOM      9  C   UNL     1      -2.992   2.213  24.353  0.00  0.00    +0.096 C 
ATOM     10  N   UNL     1      -3.293   1.487  24.605  0.00  0.00    -0.268 N 
ATOM     11  C   UNL     1      -4.056   1.613  24.894  0.00  0.00    +0.174 C 
ATOM     12  C   UNL     1      -4.584   1.062  25.208  0.00  0.00    +0.265 C 
ATOM     13  O   UNL     1      -5.312   1.365  25.452  0.00  0.00    -0.271 OA
ATOM     14  N   UNL     1      -4.481   0.251  25.311  0.00  0.00    -0.178 NA
ATOM     15  C   UNL     1      -3.824  -0.212  25.125  0.00  0.00    +0.078 A 
ATOM     16  C   UNL     1      -3.949  -1.005  25.317  0.00  0.00    +0.017 A 
ATOM     17  C   UNL     1      -3.357  -1.562  25.175  0.00  0.00    +0.001 A 
ATOM     18  C   UNL     1      -2.640  -1.326  24.839  0.00  0.00    +0.001 A 
ATOM     19  C   UNL     1      -2.515  -0.533  24.647  0.00  0.00    +0.006 A 
ATOM     20  C   UNL     1      -3.107   0.024  24.790  0.00  0.00    +0.069 A 
ATOM     21  C   UNL     1      -2.872   0.779  24.559  0.00  0.00    +0.251 C 
ATOM     22  O   UNL     1      -2.113   0.835  24.239  0.00  0.00    -0.270 OA
ENDROOT
BRANCH  18  23
ATOM     23  C   UNL     1      -2.049  -1.884  24.697  0.00  0.00    +0.007 A 
ATOM     24  C   UNL     1      -1.288  -1.875  25.015  0.00  0.00    +0.035 A 
ATOM     25  S   UNL     1      -0.884  -2.534  24.726  0.00  0.00    -0.086 S 
ATOM     26  C   UNL     1      -1.396  -2.949  24.230  0.00  0.00    +0.035 A 
ATOM     27  C   UNL     1      -2.115  -2.547  24.212  0.00  0.00    +0.007 A 
ENDBRANCH  18  23
BRANCH   7   6
ATOM      4  C   UNL     1      -4.939   3.595  25.202  0.00  0.00    +0.252 C 
ATOM      5  O   UNL     1      -4.245   4.036  25.138  0.00  0.00    -0.272 OA
ATOM      6  N   UNL     1      -4.930   2.785  25.043  0.00  0.00    -0.204 NA
BRANCH   4   3
ATOM      3  C   UNL     1      -5.644   3.963  25.424  0.00  0.00    +0.144 C 
BRANCH   3   2
ATOM      1  C   UNL     1      -6.364   5.195  25.503  0.00  0.00    +0.070 C 
ATOM      2  S   UNL     1      -5.656   4.776  25.567  0.00  0.00    -0.130 S 
ENDBRANCH   3   2
ENDBRANCH   4   3
ENDBRANCH   7   6
TORSDOF 4
ENDMDL
