MODEL 1
REMARK VINA RESULT:     -11.2      0.000      0.000
REMARK  Name = 
REMARK  8 active torsions:
REMARK  status: ('A' for Active; 'I' for Inactive)
REMARK    1  A    between atoms: O_2  and  C_3
REMARK    2  A    between atoms: C_6  and  C_9
REMARK    3  A    between atoms: C_14  and  C_15
REMARK    4  A    between atoms: C_15  and  C_16
REMARK    5  A    between atoms: C_19  and  C_20
REMARK    6  A    between atoms: C_20  and  C_21
REMARK    7  A    between atoms: C_21  and  N_22
REMARK    8  A    between atoms: C_26  and  C_27
REMARK                            x       y       z     vdW  Elec       q    Type
REMARK                         _______ _______ _______ _____ _____    ______ ____
ROOT
ATOM      9  C   UNL     1      -2.880   0.287  24.501  0.00  0.00    +0.249 C 
ATOM     10  O   UNL     1      -2.076   0.383  24.346  0.00  0.00    -0.270 OA
ATOM     11  N   UNL     1      -3.341   0.939  24.707  0.00  0.00    -0.276 N 
ATOM     12  C   UNL     1      -4.145   0.844  24.862  0.00  0.00    +0.094 C 
ATOM     13  C   UNL     1      -4.607   1.496  25.069  0.00  0.00    +0.022 C 
ATOM     14  C   UNL     1      -4.263   2.245  25.119  0.00  0.00    +0.015 C 
ATOM     19  C   UNL     1      -3.458   2.341  24.964  0.00  0.00    +0.022 C 
ATOM     30  C   UNL     1      -2.997   1.688  24.758  0.00  0.00    +0.094 C 
ENDROOT
BRANCH   9   6
ATOM      3  C   UNL     1      -3.911  -1.958  24.349  0.00  0.00    +0.139 A 
ATOM      4  C   UNL     1      -3.512  -1.733  25.036  0.00  0.00    +0.037 A 
ATOM      5  C   UNL     1      -3.169  -0.985  25.087  0.00  0.00    +0.008 A 
ATOM      6  C   UNL     1      -3.223  -0.461  24.450  0.00  0.00    +0.054 A 
ATOM      7  C   UNL     1      -3.622  -0.687  23.764  0.00  0.00    +0.008 A 
ATOM      8  C   UNL     1      -3.966  -1.435  23.714  0.00  0.00    +0.037 A 
BRANCH   3   2
ATOM      1  C   UNL     1      -3.778  -3.377  24.246  0.00  0.00    +0.252 C 
ATOM      2  O   UNL     1      -4.255  -2.706  24.298  0.00  0.00    -0.471 OA
ENDBRANCH   3   2
ENDBRANCH   9   6
BRANCH  14  15
ATOM     15  C   UNL     1      -4.723   2.897  25.325  0.00  0.00    +0.114 C 
BRANCH  15  16
ATOM     16  C   UNL     1      -5.495   2.788  25.597  0.00  0.00    +0.365 C 
ATOM     17  O   UNL     1      -5.653   2.796  26.407  0.00  0.00    -0.246 OA
ATOM     18  O   UNL     1      -6.108   2.671  25.058  0.00  0.00    -0.246 OA
ENDBRANCH  15  16
ENDBRANCH  14  15
BRANCH  19  20
ATOM     20  C   UNL     1      -3.114   3.089  25.014  0.00  0.00    +0.019 C 
BRANCH  20  21
ATOM     21  C   UNL     1      -2.292   3.165  25.025  0.00  0.00    +0.073 C 
BRANCH  21  22
ATOM     22  N   UNL     1      -1.948   3.913  25.077  0.00  0.00    -0.266 NA
ATOM     23  C   UNL     1      -2.351   4.624  25.194  0.00  0.00    +0.073 C 
ATOM     24  C   UNL     1      -1.793   5.233  25.211  0.00  0.00    +0.019 C 
ATOM     25  C   UNL     1      -1.046   4.897  25.105  0.00  0.00    +0.027 C 
ATOM     26  C   UNL     1      -1.143   4.082  25.023  0.00  0.00    +0.138 C 
BRANCH  26  27
ATOM     27  C   UNL     1      -0.539   3.531  24.906  0.00  0.00    +0.275 C 
ATOM     28  N   UNL     1      -0.178   3.171  25.555  0.00  0.00    -0.087 NA
ATOM     29  O   UNL     1      -0.297   3.341  24.141  0.00  0.00    -0.270 OA
ENDBRANCH  26  27
ENDBRANCH  21  22
ENDBRANCH  20  21
ENDBRANCH  19  20
TORSDOF 8
ENDMDL
MODEL 2
REMARK VINA RESULT:     -10.8      1.238      4.967
REMARK  Name = 
REMARK  8 active torsions:
REMARK  status: ('A' for Active; 'I' for Inactive)
REMARK    1  A    between atoms: O_2  and  C_3
REMARK    2  A    between atoms: C_6  and  C_9
REMARK    3  A    between atoms: C_14  and  C_15
REMARK    4  A    between atoms: C_15  and  C_16
REMARK    5  A    between atoms: C_19  and  C_20
REMARK    6  A    between atoms: C_20  and  C_21
REMARK    7  A    between atoms: C_21  and  N_22
REMARK    8  A    between atoms: C_26  and  C_27
REMARK                            x       y       z     vdW  Elec       q    Type
REMARK                         _______ _______ _______ _____ _____    ______ ____
ROOT
ATOM      9  C   UNL     1      -1.771   1.729  24.612  0.00  0.00    +0.249 C 
ATOM     10  O   UNL     1      -1.242   1.129  24.413  0.00  0.00    -0.270 OA
ATOM     11  N   UNL     1      -2.577   1.565  24.676  0.00  0.00    -0.276 N 
ATOM     12  C   UNL     1      -3.106   2.165  24.875  0.00  0.00    +0.094 C 
ATOM     13  C   UNL     1      -3.913   2.002  24.939  0.00  0.00    +0.022 C 
ATOM     14  C   UNL     1      -4.189   1.236  24.803  0.00  0.00    +0.015 C 
ATOM     19  C   UNL     1      -3.660   0.635  24.603  0.00  0.00    +0.022 C 
ATOM     30  C   UNL     1      -2.854   0.800  24.540  0.00  0.00    +0.094 C 
ENDROOT
BRANCH   9   6
ATOM      3  C   UNL     1      -0.941   4.025  25.019  0.00  0.00    +0.139 A 
ATOM      4  C   UNL     1      -1.052   3.509  25.653  0.00  0.00    +0.037 A 
ATOM      5  C   UNL     1      -1.329   2.743  25.517  0.00  0.00    +0.008 A 
ATOM      6  C   UNL     1      -1.494   2.494  24.748  0.00  0.00    +0.054 A 
ATOM      7  C   UNL     1      -1.382   3.011  24.115  0.00  0.00    +0.008 A 
ATOM      8  C   UNL     1      -1.106   3.777  24.250  0.00  0.00    +0.037 A 
BRANCH   3   2
ATOM      1  C   UNL     1      -1.155   5.438  25.015  0.00  0.00    +0.252 C 
ATOM      2  O   UNL     1      -0.664   4.790  25.155  0.00  0.00    -0.471 OA
ENDBRANCH   3   2
ENDBRANCH   9   6
BRANCH  14  15
ATOM     15  C   UNL     1      -4.995   1.071  24.866  0.00  0.00    +0.114 C 
BRANCH  15  16
ATOM     16  C   UNL     1      -5.520   1.665  25.098  0.00  0.00    +0.365 C 
ATOM     17  O   UNL     1      -5.693   1.773  25.898  0.00  0.00    -0.246 OA
ATOM     18  O   UNL     1      -5.872   2.148  24.530  0.00  0.00    -0.246 OA
ENDBRANCH  15  16
ENDBRANCH  14  15
BRANCH  19  20
ATOM     20  C   UNL     1      -3.937  -0.130  24.468  0.00  0.00    +0.019 C 
BRANCH  20  21
ATOM     21  C   UNL     1      -3.424  -0.773  24.541  0.00  0.00    +0.073 C 
BRANCH  21  22
ATOM     22  N   UNL     1      -3.670  -1.525  24.307  0.00  0.00    -0.266 NA
ATOM     23  C   UNL     1      -4.366  -1.703  23.901  0.00  0.00    +0.073 C 
ATOM     24  C   UNL     1      -4.390  -2.519  23.781  0.00  0.00    +0.019 C 
ATOM     25  C   UNL     1      -3.709  -2.845  24.113  0.00  0.00    +0.027 C 
ATOM     26  C   UNL     1      -3.264  -2.231  24.438  0.00  0.00    +0.138 C 
BRANCH  26  27
ATOM     27  C   UNL     1      -2.540  -2.309  24.827  0.00  0.00    +0.275 C 
ATOM     28  N   UNL     1      -1.844  -2.381  24.391  0.00  0.00    -0.087 NA
ATOM     29  O   UNL     1      -2.513  -2.314  25.651  0.00  0.00    -0.270 OA
ENDBRANCH  26  27
ENDBRANCH  21  22
ENDBRANCH  20  21
ENDBRANCH  19  20
TORSDOF 8
ENDMDL
MODEL 3
REMARK VINA RESULT:     -10.1      1.470      2.926
REMARK  Name = 
REMARK  8 active torsions:
REMARK  status: ('A' for Active; 'I' for Inactive)
REMARK    1  A    between atoms: O_2  and  C_3
REMARK    2  A    between atoms: C_6  and  C_9
REMARK    3  A    between atoms: C_14  and  C_15
REMARK    4  A    between atoms: C_15  and  C_16
REMARK    5  A    between atoms: C_19  and  C_20
REMARK    6  A    between atoms: C_20  and  C_21
REMARK    7  A    between atoms: C_21  and  N_22
REMARK    8  A    between atoms: C_26  and  C_27
REMARK                            x       y       z     vdW  Elec       q    Type
REMARK                         _______ _______ _______ _____ _____    ______ ____
ROOT
ATOM      9  C   UNL     1      -3.246   0.254  24.837  0.00  0.00    +0.249 C 
ATOM     10  O   UNL     1      -3.795   0.802  25.118  0.00  0.00    -0.270 OA
ATOM     11  N   UNL     1      -2.478   0.494  24.656  0.00  0.00    -0.276 N 
ATOM     12  C   UNL     1      -1.929  -0.054  24.376  0.00  0.00    +0.094 C 
ATOM     13  C   UNL     1      -1.161   0.186  24.195  0.00  0.00    +0.022 C 
ATOM     14  C   UNL     1      -0.941   0.975  24.295  0.00  0.00    +0.015 C 
ATOM     19  C   UNL     1      -1.490   1.524  24.576  0.00  0.00    +0.022 C 
ATOM     30  C   UNL     1      -2.258   1.283  24.756  0.00  0.00    +0.094 C 
ENDROOT
BRANCH   9   6
ATOM      3  C   UNL     1      -3.905  -2.112  24.537  0.00  0.00    +0.139 A 
ATOM      4  C   UNL     1      -3.543  -1.871  25.238  0.00  0.00    +0.037 A 
ATOM      5  C   UNL     1      -3.323  -1.082  25.338  0.00  0.00    +0.008 A 
ATOM      6  C   UNL     1      -3.466  -0.535  24.737  0.00  0.00    +0.054 A 
ATOM      7  C   UNL     1      -3.828  -0.777  24.037  0.00  0.00    +0.008 A 
ATOM      8  C   UNL     1      -4.048  -1.566  23.937  0.00  0.00    +0.037 A 
BRANCH   3   2
ATOM      1  C   UNL     1      -3.549  -3.477  24.308  0.00  0.00    +0.252 C 
ATOM      2  O   UNL     1      -4.125  -2.901  24.437  0.00  0.00    -0.471 OA
ENDBRANCH   3   2
ENDBRANCH   9   6
BRANCH  14  15
ATOM     15  C   UNL     1      -0.173   1.216  24.114  0.00  0.00    +0.114 C 
BRANCH  15  16
ATOM     16  C   UNL     1       0.335   0.705  23.711  0.00  0.00    +0.365 C 
ATOM     17  O   UNL     1       0.373   0.727  22.887  0.00  0.00    -0.246 OA
ATOM     18  O   UNL     1       0.804   0.173  24.132  0.00  0.00    -0.246 OA
ENDBRANCH  15  16
ENDBRANCH  14  15
BRANCH  19  20
ATOM     20  C   UNL     1      -1.270   2.313  24.676  0.00  0.00    +0.019 C 
BRANCH  20  21
ATOM     21  C   UNL     1      -1.811   2.855  24.983  0.00  0.00    +0.073 C 
BRANCH  21  22
ATOM     22  N   UNL     1      -1.606   3.652  25.042  0.00  0.00    -0.266 NA
ATOM     23  C   UNL     1      -0.876   3.982  24.844  0.00  0.00    +0.073 C 
ATOM     24  C   UNL     1      -0.914   4.793  24.989  0.00  0.00    +0.019 C 
ATOM     25  C   UNL     1      -1.668   4.965  25.277  0.00  0.00    +0.027 C 
ATOM     26  C   UNL     1      -2.095   4.260  25.310  0.00  0.00    +0.138 C 
BRANCH  26  27
ATOM     27  C   UNL     1      -2.876   4.177  25.566  0.00  0.00    +0.275 C 
ATOM     28  N   UNL     1      -3.041   4.111  26.372  0.00  0.00    -0.087 NA
ATOM     29  O   UNL     1      -3.490   4.161  25.016  0.00  0.00    -0.270 OA
ENDBRANCH  26  27
ENDBRANCH  21  22
ENDBRANCH  20  21
ENDBRANCH  19  20
TORSDOF 8
ENDMDL
MODEL 4
REMARK VINA RESULT:      -9.2      2.038      3.933
REMARK  Name = 
REMARK  8 active torsions:
REMARK  status: ('A' for Active; 'I' for Inactive)
REMARK    1  A    between atoms: O_2  and  C_3
REMARK    2  A    between atoms: C_6  and  C_9
REMARK    3  A    between atoms: C_14  and  C_15
REMARK    4  A    between atoms: C_15  and  C_16
REMARK    5  A    between atoms: C_19  and  C_20
REMARK    6  A    between atoms: C_20  and  C_21
REMARK    7  A    between atoms: C_21  and  N_22
REMARK    8  A    between atoms: C_26  and  C_27
REMARK                            x       y       z     vdW  Elec       q    Type
REMARK                         _______ _______ _______ _____ _____    ______ ____
ROOT
ATOM      9  C   UNL     1      -1.367   1.008  24.244  0.00  0.00    +0.249 C 
ATOM     10  O   UNL     1      -1.351   1.802  24.465  0.00  0.00    -0.270 OA
ATOM     11  N   UNL     1      -2.067   0.576  24.303  0.00  0.00    -0.276 N 
ATOM     12  C   UNL     1      -2.083  -0.218  24.081  0.00  0.00    +0.094 C 
ATOM     13  C   UNL     1      -2.783  -0.650  24.141  0.00  0.00    +0.022 C 
ATOM     14  C   UNL     1      -3.468  -0.287  24.422  0.00  0.00    +0.015 C 
ATOM     19  C   UNL     1      -3.453   0.508  24.644  0.00  0.00    +0.022 C 
ATOM     30  C   UNL     1      -2.752   0.939  24.585  0.00  0.00    +0.094 C 
ENDROOT
BRANCH   9   6
ATOM      3  C   UNL     1       0.689  -0.080  23.399  0.00  0.00    +0.139 A 
ATOM      4  C   UNL     1       0.436  -0.221  24.172  0.00  0.00    +0.037 A 
ATOM      5  C   UNL     1      -0.249   0.142  24.453  0.00  0.00    +0.008 A 
ATOM      6  C   UNL     1      -0.681   0.645  23.962  0.00  0.00    +0.054 A 
ATOM      7  C   UNL     1      -0.427   0.786  23.190  0.00  0.00    +0.008 A 
ATOM      8  C   UNL     1       0.258   0.423  22.908  0.00  0.00    +0.037 A 
BRANCH   3   2
ATOM      1  C   UNL     1       1.907  -0.017  22.653  0.00  0.00    +0.252 C 
ATOM      2  O   UNL     1       1.375  -0.443  23.117  0.00  0.00    -0.471 OA
ENDBRANCH   3   2
ENDBRANCH   9   6
BRANCH  14  15
ATOM     15  C   UNL     1      -4.169  -0.718  24.482  0.00  0.00    +0.114 C 
BRANCH  15  16
ATOM     16  C   UNL     1      -4.168  -1.529  24.328  0.00  0.00    +0.365 C 
ATOM     17  O   UNL     1      -3.963  -2.062  24.924  0.00  0.00    -0.246 OA
ATOM     18  O   UNL     1      -4.373  -1.807  23.579  0.00  0.00    -0.246 OA
ENDBRANCH  15  16
ENDBRANCH  14  15
BRANCH  19  20
ATOM     20  C   UNL     1      -4.139   0.871  24.926  0.00  0.00    +0.019 C 
BRANCH  20  21
ATOM     21  C   UNL     1      -4.178   1.693  24.977  0.00  0.00    +0.073 C 
BRANCH  21  22
ATOM     22  N   UNL     1      -4.864   2.056  25.257  0.00  0.00    -0.266 NA
ATOM     23  C   UNL     1      -5.565   1.673  25.464  0.00  0.00    +0.073 C 
ATOM     24  C   UNL     1      -6.104   2.246  25.715  0.00  0.00    +0.019 C 
ATOM     25  C   UNL     1      -5.736   2.983  25.663  0.00  0.00    +0.027 C 
ATOM     26  C   UNL     1      -4.969   2.865  25.380  0.00  0.00    +0.138 C 
BRANCH  26  27
ATOM     27  C   UNL     1      -4.407   3.453  25.244  0.00  0.00    +0.275 C 
ATOM     28  N   UNL     1      -3.947   3.736  25.868  0.00  0.00    -0.087 NA
ATOM     29  O   UNL     1      -4.305   3.758  24.485  0.00  0.00    -0.270 OA
ENDBRANCH  26  27
ENDBRANCH  21  22
ENDBRANCH  20  21
ENDBRANCH  19  20
TORSDOF 8
ENDMDL
MODEL 5
REMARK VINA RESULT:      -8.9      1.758      5.237
REMARK  Name = 
REMARK  8 active torsions:
REMARK  status: ('A' for Active; 'I' for Inactive)
REMARK    1  A    between atoms: O_2  and  C_3
REMARK    2  A    between atoms: C_6  and  C_9
REMARK    3  A    between atoms: C_14  and  C_15
REMARK    4  A    between atoms: C_15  and  C_16
REMARK    5  A    between atoms: C_19  and  C_20
REMARK    6  A    between atoms: C_20  and  C_21
REMARK    7  A    between atoms: C_21  and  N_22
REMARK    8  A    between atoms: C_26  and  C_27
REMARK                            x       y       z     vdW  Elec       q    Type
REMARK                         _______ _______ _______ _____ _____    ______ ____
ROOT
ATOM      9  C   UNL     1      -4.112   1.558  24.788  0.00  0.00    +0.249 C 
ATOM     10  O   UNL     1      -4.611   0.941  24.566  0.00  0.00    -0.270 OA
ATOM     11  N   UNL     1      -3.303   1.421  24.883  0.00  0.00    -0.276 N 
ATOM     12  C   UNL     1      -2.804   2.038  25.105  0.00  0.00    +0.094 C 
ATOM     13  C   UNL     1      -1.995   1.902  25.199  0.00  0.00    +0.022 C 
ATOM     14  C   UNL     1      -1.687   1.148  25.071  0.00  0.00    +0.015 C 
ATOM     19  C   UNL     1      -2.187   0.530  24.849  0.00  0.00    +0.022 C 
ATOM     30  C   UNL     1      -2.995   0.667  24.755  0.00  0.00    +0.094 C 
ENDROOT
BRANCH   9   6
ATOM      3  C   UNL     1      -5.037   3.821  25.172  0.00  0.00    +0.139 A 
ATOM      4  C   UNL     1      -4.619   3.659  24.479  0.00  0.00    +0.037 A 
ATOM      5  C   UNL     1      -4.311   2.904  24.351  0.00  0.00    +0.008 A 
ATOM      6  C   UNL     1      -4.420   2.312  24.916  0.00  0.00    +0.054 A 
ATOM      7  C   UNL     1      -4.837   2.476  25.608  0.00  0.00    +0.008 A 
ATOM      8  C   UNL     1      -5.146   3.230  25.736  0.00  0.00    +0.037 A 
BRANCH   3   2
ATOM      1  C   UNL     1      -6.094   4.665  25.633  0.00  0.00    +0.252 C 
ATOM      2  O   UNL     1      -5.345   4.576  25.300  0.00  0.00    -0.471 OA
ENDBRANCH   3   2
ENDBRANCH   9   6
BRANCH  14  15
ATOM     15  C   UNL     1      -0.879   1.010  25.165  0.00  0.00    +0.114 C 
BRANCH  15  16
ATOM     16  C   UNL     1      -0.368   1.642  25.308  0.00  0.00    +0.365 C 
ATOM     17  O   UNL     1       0.006   2.021  24.677  0.00  0.00    -0.246 OA
ATOM     18  O   UNL     1      -0.230   1.895  26.081  0.00  0.00    -0.246 OA
ENDBRANCH  15  16
ENDBRANCH  14  15
BRANCH  19  20
ATOM     20  C   UNL     1      -1.879  -0.225  24.721  0.00  0.00    +0.019 C 
BRANCH  20  21
ATOM     21  C   UNL     1      -2.376  -0.883  24.747  0.00  0.00    +0.073 C 
BRANCH  21  22
ATOM     22  N   UNL     1      -2.072  -1.635  24.596  0.00  0.00    -0.266 NA
ATOM     23  C   UNL     1      -1.285  -1.814  24.423  0.00  0.00    +0.073 C 
ATOM     24  C   UNL     1      -1.228  -2.630  24.312  0.00  0.00    +0.019 C 
ATOM     25  C   UNL     1      -1.980  -2.955  24.416  0.00  0.00    +0.027 C 
ATOM     26  C   UNL     1      -2.501  -2.340  24.592  0.00  0.00    +0.138 C 
BRANCH  26  27
ATOM     27  C   UNL     1      -3.310  -2.416  24.738  0.00  0.00    +0.275 C 
ATOM     28  N   UNL     1      -3.841  -2.458  24.108  0.00  0.00    -0.087 NA
ATOM     29  O   UNL     1      -3.587  -2.450  25.514  0.00  0.00    -0.270 OA
ENDBRANCH  26  27
ENDBRANCH  21  22
ENDBRANCH  20  21
ENDBRANCH  19  20
TORSDOF 8
ENDMDL
MODEL 6
REMARK VINA RESULT:      -8.9      1.886      5.803
REMARK  Name = 
REMARK  8 active torsions:
REMARK  status: ('A' for Active; 'I' for Inactive)
REMARK    1  A    between atoms: O_2  and  C_3
REMARK    2  A    between atoms: C_6  and  C_9
REMARK    3  A    between atoms: C_14  and  C_15
REMARK    4  A    between atoms: C_15  and  C_16
REMARK    5  A    between atoms: C_19  and  C_20
REMARK    6  A    between atoms: C_20  and  C_21
REMARK    7  A    between atoms: C_21  and  N_22
REMARK    8  A    between atoms: C_26  and  C_27
REMARK                            x       y       z     vdW  Elec       q    Type
REMARK                         _______ _______ _______ _____ _____    ______ ____
ROOT
ATOM      9  C   UNL     1      -2.199   2.065  25.175  0.00  0.00    +0.249 C 
ATOM     10  O   UNL     1      -2.914   1.798  25.486  0.00  0.00    -0.270 OA
ATOM     11  N   UNL     1      -1.664   1.528  24.850  0.00  0.00    -0.276 N 
ATOM     12  C   UNL     1      -0.948   1.795  24.539  0.00  0.00    +0.094 C 
ATOM     13  C   UNL     1      -0.413   1.258  24.214  0.00  0.00    +0.022 C 
ATOM     14  C   UNL     1      -0.594   0.453  24.198  0.00  0.00    +0.015 C 
ATOM     19  C   UNL     1      -1.311   0.185  24.509  0.00  0.00    +0.022 C 
ATOM     30  C   UNL     1      -1.845   0.723  24.835  0.00  0.00    +0.094 C 
ENDROOT
BRANCH   9   6
ATOM      3  C   UNL     1      -1.654   4.479  25.221  0.00  0.00    +0.139 A 
ATOM      4  C   UNL     1      -1.342   3.975  25.795  0.00  0.00    +0.037 A 
ATOM      5  C   UNL     1      -1.524   3.171  25.780  0.00  0.00    +0.008 A 
ATOM      6  C   UNL     1      -2.017   2.869  25.190  0.00  0.00    +0.054 A 
ATOM      7  C   UNL     1      -2.329   3.374  24.617  0.00  0.00    +0.008 A 
ATOM      8  C   UNL     1      -2.147   4.178  24.632  0.00  0.00    +0.037 A 
BRANCH   3   2
ATOM      1  C   UNL     1      -0.871   5.580  24.756  0.00  0.00    +0.252 C 
ATOM      2  O   UNL     1      -1.473   5.283  25.236  0.00  0.00    -0.471 OA
ENDBRANCH   3   2
ENDBRANCH   9   6
BRANCH  14  15
ATOM     15  C   UNL     1      -0.060  -0.085  23.873  0.00  0.00    +0.114 C 
BRANCH  15  16
ATOM     16  C   UNL     1       0.537   0.181  23.369  0.00  0.00    +0.365 C 
ATOM     17  O   UNL     1       0.477   0.057  22.556  0.00  0.00    -0.246 OA
ATOM     18  O   UNL     1       1.194   0.572  23.680  0.00  0.00    -0.246 OA
ENDBRANCH  15  16
ENDBRANCH  14  15
BRANCH  19  20
ATOM     20  C   UNL     1      -1.492  -0.619  24.494  0.00  0.00    +0.019 C 
BRANCH  20  21
ATOM     21  C   UNL     1      -2.278  -0.866  24.547  0.00  0.00    +0.073 C 
BRANCH  21  22
ATOM     22  N   UNL     1      -2.458  -1.671  24.550  0.00  0.00    -0.266 NA
ATOM     23  C   UNL     1      -1.914  -2.289  24.596  0.00  0.00    +0.073 C 
ATOM     24  C   UNL     1      -2.333  -3.000  24.582  0.00  0.00    +0.019 C 
ATOM     25  C   UNL     1      -3.137  -2.820  24.527  0.00  0.00    +0.027 C 
ATOM     26  C   UNL     1      -3.214  -1.999  24.507  0.00  0.00    +0.138 C 
BRANCH  26  27
ATOM     27  C   UNL     1      -3.922  -1.579  24.454  0.00  0.00    +0.275 C 
ATOM     28  N   UNL     1      -4.299  -1.496  23.725  0.00  0.00    -0.087 NA
ATOM     29  O   UNL     1      -4.254  -1.243  25.131  0.00  0.00    -0.270 OA
ENDBRANCH  26  27
ENDBRANCH  21  22
ENDBRANCH  20  21
ENDBRANCH  19  20
TORSDOF 8
ENDMDL
