MODEL 1
REMARK VINA RESULT:     -12.8      0.000      0.000
REMARK  Name = 
REMARK  4 active torsions:
REMARK  status: ('A' for Active; 'I' for Inactive)
REMARK    1  A    between atoms: C_5  and  C_6
REMARK    2  A    between atoms: C_6  and  N_7
REMARK    3  A    between atoms: N_11  and  C_12
REMARK    4  A    between atoms: C_12  and  C_13
REMARK                            x       y       z     vdW  Elec       q    Type
REMARK                         _______ _______ _______ _____ _____    ______ ____
ROOT
ATOM      7  N   UNL     1      -4.014   2.851  25.287  0.00  0.00    -0.258 N 
ATOM      8  C   UNL     1      -3.523   2.338  24.866  0.00  0.00    +0.116 C 
ATOM      9  C   UNL     1      -3.917   1.619  24.782  0.00  0.00    +0.113 C 
ATOM     10  C   UNL     1      -3.703   0.911  24.418  0.00  0.00    +0.094 C 
ATOM     11  N   UNL     1      -4.223   0.271  24.422  0.00  0.00    -0.266 NA
ATOM     20  C   UNL     1      -4.958   0.339  24.790  0.00  0.00    +0.094 C 
ATOM     21  C   UNL     1      -5.173   1.047  25.154  0.00  0.00    +0.112 C 
ATOM     22  N   UNL     1      -4.653   1.688  25.150  0.00  0.00    -0.261 N 
ATOM     23  C   UNL     1      -4.712   2.449  25.462  0.00  0.00    +0.308 C 
ATOM     24  O   UNL     1      -5.357   2.754  25.876  0.00  0.00    -0.252 OA
ENDROOT
BRANCH   7   6
ATOM      6  C   UNL     1      -3.838   3.630  25.495  0.00  0.00    +0.122 C 
BRANCH   6   5
ATOM      1  C   UNL     1      -0.791   4.812  25.038  0.00  0.00    +0.031 C 
ATOM      2  C   UNL     1      -1.553   4.517  25.151  0.00  0.00    -0.022 A 
ATOM      3  C   UNL     1      -2.124   4.610  24.564  0.00  0.00    -0.005 A 
ATOM      4  C   UNL     1      -2.886   4.314  24.677  0.00  0.00    -0.003 A 
ATOM      5  C   UNL     1      -3.076   3.926  25.380  0.00  0.00    -0.002 A 
ATOM     25  C   UNL     1      -2.505   3.833  25.969  0.00  0.00    -0.003 A 
ATOM     26  C   UNL     1      -1.744   4.128  25.854  0.00  0.00    -0.005 A 
ENDBRANCH   6   5
ENDBRANCH   7   6
BRANCH  11  12
ATOM     12  C   UNL     1      -4.009  -0.438  24.058  0.00  0.00    +0.100 C 
BRANCH  12  13
ATOM     13  C   UNL     1      -3.771  -1.082  24.514  0.00  0.00    +0.004 A 
ATOM     14  C   UNL     1      -3.390  -0.958  25.236  0.00  0.00    -0.002 A 
ATOM     15  C   UNL     1      -3.153  -1.602  25.693  0.00  0.00    -0.000 A 
ATOM     16  C   UNL     1      -3.295  -2.370  25.429  0.00  0.00    +0.001 A 
ATOM     17  C   UNL     1      -3.676  -2.495  24.708  0.00  0.00    +0.011 A 
ATOM     18  C   UNL     1      -3.913  -1.850  24.250  0.00  0.00    +0.055 A 
ATOM     19 CL   UNL     1      -4.294  -1.975  23.529  0.00  0.00    -0.083 Cl
ENDBRANCH  12  13
ENDBRANCH  11  12
TORSDOF 4
ENDMDL
MODEL 2
REMARK VINA RESULT:     -12.5      2.347      2.981
REMARK  Name = 
REMARK  4 active torsions:
REMARK  status: ('A' for Active; 'I' for Inactive)
REMARK    1  A    between atoms: C_5  and  C_6
REMARK    2  A    between atoms: C_6  and  N_7
REMARK    3  A    between atoms: N_11  and  C_12
REMARK    4  A    between atoms: C_12  and  C_13
REMARK                            x       y       z     vdW  Elec       q    Type
REMARK                         _______ _______ _______ _____ _____    ______ ____
ROOT
ATOM      7  N   UNL     1      -0.400   1.474  25.138  0.00  0.00    -0.258 N 
ATOM      8  C   UNL     1      -1.048   1.167  25.547  0.00  0.00    +0.116 C 
ATOM      9  C   UNL     1      -1.204   0.414  25.248  0.00  0.00    +0.113 C 
ATOM     10  C   UNL     1      -1.777  -0.148  25.439  0.00  0.00    +0.094 C 
ATOM     11  N   UNL     1      -1.799  -0.868  25.038  0.00  0.00    -0.266 NA
ATOM     20  C   UNL     1      -1.248  -1.026  24.444  0.00  0.00    +0.094 C 
ATOM     21  C   UNL     1      -0.676  -0.464  24.252  0.00  0.00    +0.112 C 
ATOM     22  N   UNL     1      -0.654   0.256  24.654  0.00  0.00    -0.261 N 
ATOM     23  C   UNL     1      -0.157   0.911  24.586  0.00  0.00    +0.308 C 
ATOM     24  O   UNL     1       0.473   0.989  24.058  0.00  0.00    -0.252 OA
ENDROOT
BRANCH   7   6
ATOM      6  C   UNL     1      -0.057   2.214  25.259  0.00  0.00    +0.122 C 
BRANCH   6   5
ATOM      1  C   UNL     1      -1.936   4.926  25.272  0.00  0.00    +0.031 C 
ATOM      2  C   UNL     1      -1.467   4.248  25.269  0.00  0.00    -0.022 A 
ATOM      3  C   UNL     1      -1.417   3.778  25.944  0.00  0.00    -0.005 A 
ATOM      4  C   UNL     1      -0.947   3.099  25.942  0.00  0.00    -0.003 A 
ATOM      5  C   UNL     1      -0.527   2.892  25.263  0.00  0.00    -0.002 A 
ATOM     25  C   UNL     1      -0.576   3.363  24.586  0.00  0.00    -0.003 A 
ATOM     26  C   UNL     1      -1.046   4.040  24.590  0.00  0.00    -0.005 A 
ENDBRANCH   6   5
ENDBRANCH   7   6
BRANCH  11  12
ATOM     12  C   UNL     1      -2.371  -1.430  25.229  0.00  0.00    +0.100 C 
BRANCH  12  13
ATOM     13  C   UNL     1      -3.044  -1.511  24.759  0.00  0.00    +0.004 A 
ATOM     14  C   UNL     1      -3.403  -0.844  24.433  0.00  0.00    -0.002 A 
ATOM     15  C   UNL     1      -4.076  -0.924  23.963  0.00  0.00    -0.000 A 
ATOM     16  C   UNL     1      -4.391  -1.673  23.820  0.00  0.00    +0.001 A 
ATOM     17  C   UNL     1      -4.033  -2.341  24.145  0.00  0.00    +0.011 A 
ATOM     18  C   UNL     1      -3.359  -2.260  24.616  0.00  0.00    +0.055 A 
ATOM     19 CL   UNL     1      -3.002  -2.928  24.941  0.00  0.00    -0.083 Cl
ENDBRANCH  12  13
ENDBRANCH  11  12
TORSDOF 4
ENDMDL
MODEL 3
REMARK VINA RESULT:     -12.4      1.618      5.066
REMARK  Name = 
REMARK  4 active torsions:
REMARK  status: ('A' for Active; 'I' for Inactive)
REMARK    1  A    between atoms: C_5  and  C_6
REMARK    2  A    between atoms: C_6  and  N_7
REMARK    3  A    between atoms: N_11  and  C_12
REMARK    4  A    between atoms: C_12  and  C_13
REMARK                            x       y       z     vdW  Elec       q    Type
REMARK                         _______ _______ _______ _____ _____    ______ ____
ROOT
ATOM      7  N   UNL     1      -4.026   0.435  25.005  0.00  0.00    -0.258 N 
ATOM      8  C   UNL     1      -3.222   0.611  24.938  0.00  0.00    +0.116 C 
ATOM      9  C   UNL     1      -3.153   1.371  24.625  0.00  0.00    +0.113 C 
ATOM     10  C   UNL     1      -2.497   1.834  24.439  0.00  0.00    +0.094 C 
ATOM     11  N   UNL     1      -2.600   2.590  24.127  0.00  0.00    -0.266 NA
ATOM     20  C   UNL     1      -3.360   2.884  24.000  0.00  0.00    +0.094 C 
ATOM     21  C   UNL     1      -4.018   2.422  24.186  0.00  0.00    +0.112 C 
ATOM     22  N   UNL     1      -3.914   1.665  24.499  0.00  0.00    -0.261 N 
ATOM     23  C   UNL     1      -4.453   1.086  24.734  0.00  0.00    +0.308 C 
ATOM     24  O   UNL     1      -5.275   1.148  24.702  0.00  0.00    -0.252 OA
ENDROOT
BRANCH   7   6
ATOM      6  C   UNL     1      -4.345  -0.269  25.293  0.00  0.00    +0.122 C 
BRANCH   6   5
ATOM      1  C   UNL     1      -3.129  -3.168  24.291  0.00  0.00    +0.031 C 
ATOM      2  C   UNL     1      -3.433  -2.443  24.541  0.00  0.00    -0.022 A 
ATOM      3  C   UNL     1      -3.955  -2.026  24.058  0.00  0.00    -0.005 A 
ATOM      4  C   UNL     1      -4.260  -1.301  24.308  0.00  0.00    -0.003 A 
ATOM      5  C   UNL     1      -4.042  -0.994  25.042  0.00  0.00    -0.002 A 
ATOM     25  C   UNL     1      -3.518  -1.411  25.525  0.00  0.00    -0.003 A 
ATOM     26  C   UNL     1      -3.215  -2.135  25.274  0.00  0.00    -0.005 A 
ENDBRANCH   6   5
ENDBRANCH   7   6
BRANCH  11  12
ATOM     12  C   UNL     1      -1.943   3.054  23.940  0.00  0.00    +0.100 C 
BRANCH  12  13
ATOM     13  C   UNL     1      -1.709   3.661  24.446  0.00  0.00    +0.004 A 
ATOM     14  C   UNL     1      -2.275   4.090  24.866  0.00  0.00    -0.002 A 
ATOM     15  C   UNL     1      -2.041   4.697  25.372  0.00  0.00    -0.000 A 
ATOM     16  C   UNL     1      -1.240   4.877  25.459  0.00  0.00    +0.001 A 
ATOM     17  C   UNL     1      -0.674   4.449  25.039  0.00  0.00    +0.011 A 
ATOM     18  C   UNL     1      -0.908   3.840  24.532  0.00  0.00    +0.055 A 
ATOM     19 CL   UNL     1      -0.342   3.413  24.113  0.00  0.00    -0.083 Cl
ENDBRANCH  12  13
ENDBRANCH  11  12
TORSDOF 4
ENDMDL
MODEL 4
REMARK VINA RESULT:     -12.0      2.423      5.520
REMARK  Name = 
REMARK  4 active torsions:
REMARK  status: ('A' for Active; 'I' for Inactive)
REMARK    1  A    between atoms: C_5  and  C_6
REMARK    2  A    between atoms: C_6  and  N_7
REMARK    3  A    between atoms: N_11  and  C_12
REMARK    4  A    between atoms: C_12  and  C_13
REMARK                            x       y       z     vdW  Elec       q    Type
REMARK                         _______ _______ _______ _____ _____    ______ ____
ROOT
ATOM      7  N   UNL     1      -2.242  -0.304  25.552  0.00  0.00    -0.258 N 
ATOM      8  C   UNL     1      -2.523   0.315  25.083  0.00  0.00    +0.116 C 
ATOM      9  C   UNL     1      -1.923   0.875  25.013  0.00  0.00    +0.113 C 
ATOM     10  C   UNL     1      -1.885   1.598  24.618  0.00  0.00    +0.094 C 
ATOM     11  N   UNL     1      -1.196   2.049  24.647  0.00  0.00    -0.266 NA
ATOM     20  C   UNL     1      -0.543   1.778  25.072  0.00  0.00    +0.094 C 
ATOM     21  C   UNL     1      -0.579   1.055  25.468  0.00  0.00    +0.112 C 
ATOM     22  N   UNL     1      -1.270   0.604  25.438  0.00  0.00    -0.261 N 
ATOM     23  C   UNL     1      -1.467  -0.125  25.771  0.00  0.00    +0.308 C 
ATOM     24  O   UNL     1      -0.976  -0.593  26.241  0.00  0.00    -0.252 OA
ENDROOT
BRANCH   7   6
ATOM      6  C   UNL     1      -2.662  -0.982  25.763  0.00  0.00    +0.122 C 
BRANCH   6   5
ATOM      1  C   UNL     1      -4.351  -2.659  23.478  0.00  0.00    +0.031 C 
ATOM      2  C   UNL     1      -3.929  -2.239  24.050  0.00  0.00    -0.022 A 
ATOM      3  C   UNL     1      -4.255  -1.563  24.389  0.00  0.00    -0.005 A 
ATOM      4  C   UNL     1      -3.833  -1.143  24.960  0.00  0.00    -0.003 A 
ATOM      5  C   UNL     1      -3.084  -1.401  25.192  0.00  0.00    -0.002 A 
ATOM     25  C   UNL     1      -2.758  -2.079  24.852  0.00  0.00    -0.003 A 
ATOM     26  C   UNL     1      -3.181  -2.497  24.281  0.00  0.00    -0.005 A 
ENDBRANCH   6   5
ENDBRANCH   7   6
BRANCH  11  12
ATOM     12  C   UNL     1      -1.158   2.773  24.251  0.00  0.00    +0.100 C 
BRANCH  12  13
ATOM     13  C   UNL     1      -1.334   3.472  24.651  0.00  0.00    +0.004 A 
ATOM     14  C   UNL     1      -2.005   3.516  25.130  0.00  0.00    -0.002 A 
ATOM     15  C   UNL     1      -2.181   4.215  25.530  0.00  0.00    -0.000 A 
ATOM     16  C   UNL     1      -1.687   4.871  25.451  0.00  0.00    +0.001 A 
ATOM     17  C   UNL     1      -1.017   4.828  24.972  0.00  0.00    +0.011 A 
ATOM     18  C   UNL     1      -0.840   4.128  24.572  0.00  0.00    +0.055 A 
ATOM     19 CL   UNL     1      -0.170   4.085  24.093  0.00  0.00    -0.083 Cl
ENDBRANCH  12  13
ENDBRANCH  11  12
TORSDOF 4
ENDMDL
