MODEL 1
REMARK VINA RESULT:      -7.6      0.000      0.000
REMARK  Name = 
REMARK  5 active torsions:
REMARK  status: ('A' for Active; 'I' for Inactive)
REMARK    1  A    between atoms: C_3  and  N_17
REMARK    2  A    between atoms: C_6  and  C_7
REMARK    3  A    between atoms: C_7  and  N_8
REMARK    4  A    between atoms: N_17  and  C_18
REMARK    5  A    between atoms: C_18  and  C_19
REMARK                            x       y       z     vdW  Elec       q    Type
REMARK                         _______ _______ _______ _____ _____    ______ ____
ROOT
ATOM      1  O   UNL     1      -2.736   1.901  23.389  0.00  0.00    -0.219 OA
ATOM      2  C   UNL     1      -3.148   1.930  24.104  0.00  0.00    +0.199 C 
ATOM      3  C   UNL     1      -3.129   2.548  24.649  0.00  0.00    +0.136 C 
ATOM      4  C   UNL     1      -3.620   2.346  25.280  0.00  0.00    +0.162 C 
ATOM      5  O   UNL     1      -3.943   1.602  25.124  0.00  0.00    -0.350 OA
ATOM      6  C   UNL     1      -3.651   1.345  24.397  0.00  0.00    +0.169 C 
ENDROOT
BRANCH   6   7
ATOM      7  C   UNL     1      -3.830   0.630  24.029  0.00  0.00    +0.149 C 
BRANCH   7   8
ATOM      8  N   UNL     1      -3.700  -0.082  24.425  0.00  0.00    -0.186 NA
ATOM      9  C   UNL     1      -3.855  -0.799  24.046  0.00  0.00    +0.323 C 
ATOM     10  O   UNL     1      -4.139  -0.803  23.272  0.00  0.00    -0.251 OA
ATOM     11  N   UNL     1      -3.725  -1.511  24.442  0.00  0.00    -0.258 N 
ATOM     12  C   UNL     1      -3.441  -1.507  25.217  0.00  0.00    +0.127 C 
ATOM     13  C   UNL     1      -3.311  -2.218  25.613  0.00  0.00    +0.164 C 
ATOM     14  O   UNL     1      -3.466  -2.935  25.235  0.00  0.00    -0.350 OA
ATOM     15  C   UNL     1      -3.750  -2.940  24.460  0.00  0.00    +0.164 C 
ATOM     16  C   UNL     1      -3.879  -2.228  24.064  0.00  0.00    +0.127 C 
ENDBRANCH   7   8
ENDBRANCH   6   7
BRANCH   3  17
ATOM     17  N   UNL     1      -2.695   3.246  24.577  0.00  0.00    -0.206 NA
BRANCH  17  18
ATOM     18  C   UNL     1      -2.304   3.558  25.233  0.00  0.00    +0.154 C 
BRANCH  18  19
ATOM     19  C   UNL     1      -1.805   4.210  25.144  0.00  0.00    +0.157 A 
ATOM     20  N   UNL     1      -0.994   4.183  24.991  0.00  0.00    -0.226 NA
ATOM     21  C   UNL     1      -0.718   4.959  24.945  0.00  0.00    +0.121 A 
ATOM     22  C   UNL     1      -1.358   5.465  25.070  0.00  0.00    +0.121 A 
ATOM     23  N   UNL     1      -2.030   5.002  25.193  0.00  0.00    -0.226 NA
ENDBRANCH  18  19
ENDBRANCH  17  18
ENDBRANCH   3  17
TORSDOF 5
ENDMDL
MODEL 2
REMARK VINA RESULT:      -7.5      1.189      5.656
REMARK  Name = 
REMARK  5 active torsions:
REMARK  status: ('A' for Active; 'I' for Inactive)
REMARK    1  A    between atoms: C_3  and  N_17
REMARK    2  A    between atoms: C_6  and  C_7
REMARK    3  A    between atoms: C_7  and  N_8
REMARK    4  A    between atoms: N_17  and  C_18
REMARK    5  A    between atoms: C_18  and  C_19
REMARK                            x       y       z     vdW  Elec       q    Type
REMARK                         _______ _______ _______ _____ _____    ______ ____
ROOT
ATOM      1  O   UNL     1      -4.235   0.936  25.373  0.00  0.00    -0.219 OA
ATOM      2  C   UNL     1      -3.856   0.986  24.642  0.00  0.00    +0.199 C 
ATOM      3  C   UNL     1      -3.727   0.362  24.119  0.00  0.00    +0.136 C 
ATOM      4  C   UNL     1      -3.331   0.659  23.460  0.00  0.00    +0.162 C 
ATOM      5  O   UNL     1      -3.215   1.468  23.575  0.00  0.00    -0.350 OA
ATOM      6  C   UNL     1      -3.540   1.670  24.305  0.00  0.00    +0.169 C 
ENDROOT
BRANCH   6   7
ATOM      7  C   UNL     1      -3.547   2.423  24.641  0.00  0.00    +0.149 C 
BRANCH   7   8
ATOM      8  N   UNL     1      -2.848   2.859  24.691  0.00  0.00    -0.186 NA
ATOM      9  C   UNL     1      -2.872   3.654  24.911  0.00  0.00    +0.323 C 
ATOM     10  O   UNL     1      -3.596   4.013  25.081  0.00  0.00    -0.251 OA
ATOM     11  N   UNL     1      -2.174   4.089  24.962  0.00  0.00    -0.258 N 
ATOM     12  C   UNL     1      -1.450   3.731  24.792  0.00  0.00    +0.127 C 
ATOM     13  C   UNL     1      -0.752   4.166  24.842  0.00  0.00    +0.164 C 
ATOM     14  O   UNL     1      -0.776   4.960  25.063  0.00  0.00    -0.350 OA
ATOM     15  C   UNL     1      -1.499   5.320  25.233  0.00  0.00    +0.164 C 
ATOM     16  C   UNL     1      -2.198   4.884  25.182  0.00  0.00    +0.127 C 
ENDBRANCH   7   8
ENDBRANCH   6   7
BRANCH   3  17
ATOM     17  N   UNL     1      -3.954  -0.423  24.236  0.00  0.00    -0.206 NA
BRANCH  17  18
ATOM     18  C   UNL     1      -3.584  -1.027  23.812  0.00  0.00    +0.154 C 
BRANCH  18  19
ATOM     19  C   UNL     1      -3.671  -1.812  24.051  0.00  0.00    +0.157 A 
ATOM     20  N   UNL     1      -3.173  -2.219  24.569  0.00  0.00    -0.226 NA
ATOM     21  C   UNL     1      -3.465  -2.986  24.653  0.00  0.00    +0.121 A 
ATOM     22  C   UNL     1      -4.143  -3.053  24.187  0.00  0.00    +0.121 A 
ATOM     23  N   UNL     1      -4.270  -2.327  23.816  0.00  0.00    -0.226 NA
ENDBRANCH  18  19
ENDBRANCH  17  18
ENDBRANCH   3  17
TORSDOF 5
ENDMDL
MODEL 3
REMARK VINA RESULT:      -7.5      1.806      1.961
REMARK  Name = 
REMARK  5 active torsions:
REMARK  status: ('A' for Active; 'I' for Inactive)
REMARK    1  A    between atoms: C_3  and  N_17
REMARK    2  A    between atoms: C_6  and  C_7
REMARK    3  A    between atoms: C_7  and  N_8
REMARK    4  A    between atoms: N_17  and  C_18
REMARK    5  A    between atoms: C_18  and  C_19
REMARK                            x       y       z     vdW  Elec       q    Type
REMARK                         _______ _______ _______ _____ _____    ______ ____
ROOT
ATOM      1  O   UNL     1      -1.025   1.481  23.741  0.00  0.00    -0.219 OA
ATOM      2  C   UNL     1      -0.896   1.402  24.552  0.00  0.00    +0.199 C 
ATOM      3  C   UNL     1      -0.791   2.019  25.089  0.00  0.00    +0.136 C 
ATOM      4  C   UNL     1      -0.679   1.690  25.836  0.00  0.00    +0.162 C 
ATOM      5  O   UNL     1      -0.715   0.869  25.762  0.00  0.00    -0.350 OA
ATOM      6  C   UNL     1      -0.848   0.690  24.968  0.00  0.00    +0.169 C 
ENDROOT
BRANCH   6   7
ATOM      7  C   UNL     1      -0.922  -0.065  24.646  0.00  0.00    +0.149 C 
BRANCH   7   8
ATOM      8  N   UNL     1      -1.592  -0.518  24.808  0.00  0.00    -0.186 NA
ATOM      9  C   UNL     1      -1.630  -1.304  24.557  0.00  0.00    +0.323 C 
ATOM     10  O   UNL     1      -0.997  -1.635  24.144  0.00  0.00    -0.251 OA
ATOM     11  N   UNL     1      -2.300  -1.757  24.719  0.00  0.00    -0.258 N 
ATOM     12  C   UNL     1      -2.932  -1.426  25.131  0.00  0.00    +0.127 C 
ATOM     13  C   UNL     1      -3.602  -1.879  25.293  0.00  0.00    +0.164 C 
ATOM     14  O   UNL     1      -3.639  -2.664  25.042  0.00  0.00    -0.350 OA
ATOM     15  C   UNL     1      -3.007  -2.996  24.630  0.00  0.00    +0.164 C 
ATOM     16  C   UNL     1      -2.337  -2.542  24.468  0.00  0.00    +0.127 C 
ENDBRANCH   7   8
ENDBRANCH   6   7
BRANCH   3  17
ATOM     17  N   UNL     1      -0.797   2.824  24.909  0.00  0.00    -0.206 NA
BRANCH  17  18
ATOM     18  C   UNL     1      -0.976   3.376  25.496  0.00  0.00    +0.154 C 
BRANCH  18  19
ATOM     19  C   UNL     1      -1.128   4.161  25.291  0.00  0.00    +0.157 A 
ATOM     20  N   UNL     1      -0.608   4.669  24.901  0.00  0.00    -0.226 NA
ATOM     21  C   UNL     1      -0.984   5.398  24.809  0.00  0.00    +0.121 A 
ATOM     22  C   UNL     1      -1.737   5.340  25.143  0.00  0.00    +0.121 A 
ATOM     23  N   UNL     1      -1.825   4.575  25.441  0.00  0.00    -0.226 NA
ENDBRANCH  18  19
ENDBRANCH  17  18
ENDBRANCH   3  17
TORSDOF 5
ENDMDL
MODEL 4
REMARK VINA RESULT:      -7.4      1.900      5.771
REMARK  Name = 
REMARK  5 active torsions:
REMARK  status: ('A' for Active; 'I' for Inactive)
REMARK    1  A    between atoms: C_3  and  N_17
REMARK    2  A    between atoms: C_6  and  C_7
REMARK    3  A    between atoms: C_7  and  N_8
REMARK    4  A    between atoms: N_17  and  C_18
REMARK    5  A    between atoms: C_18  and  C_19
REMARK                            x       y       z     vdW  Elec       q    Type
REMARK                         _______ _______ _______ _____ _____    ______ ____
ROOT
ATOM      1  O   UNL     1      -1.444   0.487  23.653  0.00  0.00    -0.219 OA
ATOM      2  C   UNL     1      -1.366   0.396  24.469  0.00  0.00    +0.199 C 
ATOM      3  C   UNL     1      -1.639  -0.243  24.914  0.00  0.00    +0.136 C 
ATOM      4  C   UNL     1      -1.443  -0.107  25.703  0.00  0.00    +0.162 C 
ATOM      5  O   UNL     1      -1.049   0.617  25.747  0.00  0.00    -0.350 OA
ATOM      6  C   UNL     1      -1.001   0.927  24.985  0.00  0.00    +0.169 C 
ENDROOT
BRANCH   6   7
ATOM      7  C   UNL     1      -0.650   1.643  24.774  0.00  0.00    +0.149 C 
BRANCH   7   8
ATOM      8  N   UNL     1      -1.012   2.356  24.980  0.00  0.00    -0.186 NA
ATOM      9  C   UNL     1      -0.659   3.072  24.772  0.00  0.00    +0.323 C 
ATOM     10  O   UNL     1       0.054   3.076  24.358  0.00  0.00    -0.251 OA
ATOM     11  N   UNL     1      -1.021   3.785  24.977  0.00  0.00    -0.258 N 
ATOM     12  C   UNL     1      -1.734   3.781  25.391  0.00  0.00    +0.127 C 
ATOM     13  C   UNL     1      -2.096   4.494  25.597  0.00  0.00    +0.164 C 
ATOM     14  O   UNL     1      -1.744   5.210  25.389  0.00  0.00    -0.350 OA
ATOM     15  C   UNL     1      -1.030   5.214  24.975  0.00  0.00    +0.164 C 
ATOM     16  C   UNL     1      -0.668   4.502  24.770  0.00  0.00    +0.127 C 
ENDBRANCH   7   8
ENDBRANCH   6   7
BRANCH   3  17
ATOM     17  N   UNL     1      -2.038  -0.903  24.620  0.00  0.00    -0.206 NA
BRANCH  17  18
ATOM     18  C   UNL     1      -2.652  -1.241  25.056  0.00  0.00    +0.154 C 
BRANCH  18  19
ATOM     19  C   UNL     1      -3.133  -1.817  24.713  0.00  0.00    +0.157 A 
ATOM     20  N   UNL     1      -2.968  -2.624  24.669  0.00  0.00    -0.226 NA
ATOM     21  C   UNL     1      -3.596  -2.993  24.282  0.00  0.00    +0.121 A 
ATOM     22  C   UNL     1      -4.150  -2.413  24.086  0.00  0.00    +0.121 A 
ATOM     23  N   UNL     1      -3.863  -1.686  24.353  0.00  0.00    -0.226 NA
ENDBRANCH  18  19
ENDBRANCH  17  18
ENDBRANCH   3  17
TORSDOF 5
ENDMDL
MODEL 5
REMARK VINA RESULT:      -7.1      3.160      4.599
REMARK  Name = 
REMARK  5 active torsions:
REMARK  status: ('A' for Active; 'I' for Inactive)
REMARK    1  A    between atoms: C_3  and  N_17
REMARK    2  A    between atoms: C_6  and  C_7
REMARK    3  A    between atoms: C_7  and  N_8
REMARK    4  A    between atoms: N_17  and  C_18
REMARK    5  A    between atoms: C_18  and  C_19
REMARK                            x       y       z     vdW  Elec       q    Type
REMARK                         _______ _______ _______ _____ _____    ______ ____
ROOT
ATOM      1  O   UNL     1      -0.487   2.609  24.162  0.00  0.00    -0.219 OA
ATOM      2  C   UNL     1      -0.852   1.886  24.317  0.00  0.00    +0.199 C 
ATOM      3  C   UNL     1      -0.545   1.141  24.142  0.00  0.00    +0.136 C 
ATOM      4  C   UNL     1      -1.091   0.576  24.392  0.00  0.00    +0.162 C 
ATOM      5  O   UNL     1      -1.735   0.971  24.722  0.00  0.00    -0.350 OA
ATOM      6  C   UNL     1      -1.588   1.781  24.676  0.00  0.00    +0.169 C 
ENDROOT
BRANCH   6   7
ATOM      7  C   UNL     1      -2.087   2.381  24.942  0.00  0.00    +0.149 C 
BRANCH   7   8
ATOM      8  N   UNL     1      -2.904   2.268  24.939  0.00  0.00    -0.186 NA
ATOM      9  C   UNL     1      -3.402   2.852  25.242  0.00  0.00    +0.323 C 
ATOM     10  O   UNL     1      -3.082   3.548  25.548  0.00  0.00    -0.251 OA
ATOM     11  N   UNL     1      -4.220   2.740  25.239  0.00  0.00    -0.258 N 
ATOM     12  C   UNL     1      -4.540   2.044  24.933  0.00  0.00    +0.127 C 
ATOM     13  C   UNL     1      -5.357   1.932  24.930  0.00  0.00    +0.164 C 
ATOM     14  O   UNL     1      -5.854   2.515  25.233  0.00  0.00    -0.350 OA
ATOM     15  C   UNL     1      -5.535   3.212  25.539  0.00  0.00    +0.164 C 
ATOM     16  C   UNL     1      -4.718   3.324  25.542  0.00  0.00    +0.127 C 
ENDBRANCH   7   8
ENDBRANCH   6   7
BRANCH   3  17
ATOM     17  N   UNL     1       0.180   0.988  23.779  0.00  0.00    -0.206 NA
BRANCH  17  18
ATOM     18  C   UNL     1       0.342   0.235  23.482  0.00  0.00    +0.154 C 
BRANCH  18  19
ATOM     19  C   UNL     1       1.019   0.109  23.027  0.00  0.00    +0.157 A 
ATOM     20  N   UNL     1       1.044  -0.252  22.285  0.00  0.00    -0.226 NA
ATOM     21  C   UNL     1       1.830  -0.263  22.034  0.00  0.00    +0.121 A 
ATOM     22  C   UNL     1       2.290   0.090  22.621  0.00  0.00    +0.121 A 
ATOM     23  N   UNL     1       1.788   0.320  23.235  0.00  0.00    -0.226 NA
ENDBRANCH  18  19
ENDBRANCH  17  18
ENDBRANCH   3  17
TORSDOF 5
ENDMDL
MODEL 6
REMARK VINA RESULT:      -6.8     17.900     19.652
REMARK  Name = 
REMARK  5 active torsions:
REMARK  status: ('A' for Active; 'I' for Inactive)
REMARK    1  A    between atoms: C_3  and  N_17
REMARK    2  A    between atoms: C_6  and  C_7
REMARK    3  A    between atoms: C_7  and  N_8
REMARK    4  A    between atoms: N_17  and  C_18
REMARK    5  A    between atoms: C_18  and  C_19
REMARK                            x       y       z     vdW  Elec       q    Type
REMARK                         _______ _______ _______ _____ _____    ______ ____
ROOT
ATOM      1  O   UNL     1      14.201   7.274  17.115  0.00  0.00    -0.219 OA
ATOM      2  C   UNL     1      13.817   7.450  17.823  0.00  0.00    +0.199 C 
ATOM      3  C   UNL     1      13.082   7.818  17.899  0.00  0.00    +0.136 C 
ATOM      4  C   UNL     1      12.912   7.884  18.703  0.00  0.00    +0.162 C 
ATOM      5  O   UNL     1      13.541   7.558  19.125  0.00  0.00    -0.350 OA
ATOM      6  C   UNL     1      14.100   7.289  18.582  0.00  0.00    +0.169 C 
ENDROOT
BRANCH   6   7
ATOM      7  C   UNL     1      14.817   6.925  18.764  0.00  0.00    +0.149 C 
BRANCH   7   8
ATOM      8  N   UNL     1      15.248   7.169  19.423  0.00  0.00    -0.186 NA
ATOM      9  C   UNL     1      15.896   6.726  19.680  0.00  0.00    +0.323 C 
ATOM     10  O   UNL     1      16.111   6.039  19.277  0.00  0.00    -0.251 OA
ATOM     11  N   UNL     1      16.327   6.970  20.340  0.00  0.00    -0.258 N 
ATOM     12  C   UNL     1      16.111   7.657  20.743  0.00  0.00    +0.127 C 
ATOM     13  C   UNL     1      16.542   7.901  21.402  0.00  0.00    +0.164 C 
ATOM     14  O   UNL     1      17.189   7.459  21.659  0.00  0.00    -0.350 OA
ATOM     15  C   UNL     1      17.405   6.772  21.256  0.00  0.00    +0.164 C 
ATOM     16  C   UNL     1      16.974   6.528  20.597  0.00  0.00    +0.127 C 
ENDBRANCH   7   8
ENDBRANCH   6   7
BRANCH   3  17
ATOM     17  N   UNL     1      12.602   8.074  17.278  0.00  0.00    -0.206 NA
BRANCH  17  18
ATOM     18  C   UNL     1      11.823   8.300  17.427  0.00  0.00    +0.154 C 
BRANCH  18  19
ATOM     19  C   UNL     1      11.337   8.537  16.803  0.00  0.00    +0.157 A 
ATOM     20  N   UNL     1      11.569   8.985  16.150  0.00  0.00    -0.226 NA
ATOM     21  C   UNL     1      10.909   9.092  15.667  0.00  0.00    +0.121 A 
ATOM     22  C   UNL     1      10.269   8.711  16.021  0.00  0.00    +0.121 A 
ATOM     23  N   UNL     1      10.533   8.368  16.724  0.00  0.00    -0.226 NA
ENDBRANCH  18  19
ENDBRANCH  17  18
ENDBRANCH   3  17
TORSDOF 5
ENDMDL
MODEL 7
REMARK VINA RESULT:      -6.6      2.959      4.331
REMARK  Name = 
REMARK  5 active torsions:
REMARK  status: ('A' for Active; 'I' for Inactive)
REMARK    1  A    between atoms: C_3  and  N_17
REMARK    2  A    between atoms: C_6  and  C_7
REMARK    3  A    between atoms: C_7  and  N_8
REMARK    4  A    between atoms: N_17  and  C_18
REMARK    5  A    between atoms: C_18  and  C_19
REMARK                            x       y       z     vdW  Elec       q    Type
REMARK                         _______ _______ _______ _____ _____    ______ ____
ROOT
ATOM      1  O   UNL     1      -2.216   0.976  23.083  0.00  0.00    -0.219 OA
ATOM      2  C   UNL     1      -1.986   0.873  23.869  0.00  0.00    +0.199 C 
ATOM      3  C   UNL     1      -1.214   0.765  24.138  0.00  0.00    +0.136 C 
ATOM      4  C   UNL     1      -1.238   0.685  24.958  0.00  0.00    +0.162 C 
ATOM      5  O   UNL     1      -2.026   0.742  25.196  0.00  0.00    -0.350 OA
ATOM      6  C   UNL     1      -2.488   0.859  24.523  0.00  0.00    +0.169 C 
ENDROOT
BRANCH   6   7
ATOM      7  C   UNL     1      -3.308   0.945  24.507  0.00  0.00    +0.149 C 
BRANCH   7   8
ATOM      8  N   UNL     1      -3.656   1.629  24.811  0.00  0.00    -0.186 NA
ATOM      9  C   UNL     1      -4.470   1.651  24.948  0.00  0.00    +0.323 C 
ATOM     10  O   UNL     1      -4.934   0.990  24.781  0.00  0.00    -0.251 OA
ATOM     11  N   UNL     1      -4.818   2.335  25.251  0.00  0.00    -0.258 N 
ATOM     12  C   UNL     1      -4.354   2.996  25.418  0.00  0.00    +0.127 C 
ATOM     13  C   UNL     1      -4.702   3.679  25.721  0.00  0.00    +0.164 C 
ATOM     14  O   UNL     1      -5.515   3.701  25.858  0.00  0.00    -0.350 OA
ATOM     15  C   UNL     1      -5.980   3.040  25.692  0.00  0.00    +0.164 C 
ATOM     16  C   UNL     1      -5.632   2.357  25.388  0.00  0.00    +0.127 C 
ENDBRANCH   7   8
ENDBRANCH   6   7
BRANCH   3  17
ATOM     17  N   UNL     1      -0.535   0.743  23.669  0.00  0.00    -0.206 NA
BRANCH  17  18
ATOM     18  C   UNL     1       0.124   0.314  23.918  0.00  0.00    +0.154 C 
BRANCH  18  19
ATOM     19  C   UNL     1       0.780   0.240  23.422  0.00  0.00    +0.157 A 
ATOM     20  N   UNL     1       1.441   0.733  23.415  0.00  0.00    -0.226 NA
ATOM     21  C   UNL     1       1.959   0.458  22.834  0.00  0.00    +0.121 A 
ATOM     22  C   UNL     1       1.616  -0.206  22.482  0.00  0.00    +0.121 A 
ATOM     23  N   UNL     1       0.887  -0.340  22.845  0.00  0.00    -0.226 NA
ENDBRANCH  18  19
ENDBRANCH  17  18
ENDBRANCH   3  17
TORSDOF 5
ENDMDL
MODEL 8
REMARK VINA RESULT:      -6.5     15.595     18.215
REMARK  Name = 
REMARK  5 active torsions:
REMARK  status: ('A' for Active; 'I' for Inactive)
REMARK    1  A    between atoms: C_3  and  N_17
REMARK    2  A    between atoms: C_6  and  C_7
REMARK    3  A    between atoms: C_7  and  N_8
REMARK    4  A    between atoms: N_17  and  C_18
REMARK    5  A    between atoms: C_18  and  C_19
REMARK                            x       y       z     vdW  Elec       q    Type
REMARK                         _______ _______ _______ _____ _____    ______ ____
ROOT
ATOM      1  O   UNL     1      12.147   6.948  17.787  0.00  0.00    -0.219 OA
ATOM      2  C   UNL     1      12.752   7.291  18.230  0.00  0.00    +0.199 C 
ATOM      3  C   UNL     1      13.397   7.708  17.930  0.00  0.00    +0.136 C 
ATOM      4  C   UNL     1      13.861   7.952  18.566  0.00  0.00    +0.162 C 
ATOM      5  O   UNL     1      13.503   7.685  19.260  0.00  0.00    -0.350 OA
ATOM      6  C   UNL     1      12.818   7.277  19.053  0.00  0.00    +0.169 C 
ENDROOT
BRANCH   6   7
ATOM      7  C   UNL     1      12.290   6.918  19.576  0.00  0.00    +0.149 C 
BRANCH   7   8
ATOM      8  N   UNL     1      11.932   7.364  20.170  0.00  0.00    -0.186 NA
ATOM      9  C   UNL     1      11.441   6.996  20.722  0.00  0.00    +0.323 C 
ATOM     10  O   UNL     1      11.310   6.182  20.680  0.00  0.00    -0.251 OA
ATOM     11  N   UNL     1      11.082   7.441  21.317  0.00  0.00    -0.258 N 
ATOM     12  C   UNL     1      11.213   8.254  21.360  0.00  0.00    +0.127 C 
ATOM     13  C   UNL     1      10.854   8.700  21.954  0.00  0.00    +0.164 C 
ATOM     14  O   UNL     1      10.364   8.332  22.506  0.00  0.00    -0.350 OA
ATOM     15  C   UNL     1      10.233   7.518  22.464  0.00  0.00    +0.164 C 
ATOM     16  C   UNL     1      10.592   7.073  21.869  0.00  0.00    +0.127 C 
ENDBRANCH   7   8
ENDBRANCH   6   7
BRANCH   3  17
ATOM     17  N   UNL     1      13.550   7.855  17.133  0.00  0.00    -0.206 NA
BRANCH  17  18
ATOM     18  C   UNL     1      13.928   8.553  16.908  0.00  0.00    +0.154 C 
BRANCH  18  19
ATOM     19  C   UNL     1      14.068   8.707  16.109  0.00  0.00    +0.157 A 
ATOM     20  N   UNL     1      14.779   8.582  15.709  0.00  0.00    -0.226 NA
ATOM     21  C   UNL     1      14.673   8.811  14.923  0.00  0.00    +0.121 A 
ATOM     22  C   UNL     1      13.896   9.077  14.838  0.00  0.00    +0.121 A 
ATOM     23  N   UNL     1      13.523   9.013  15.572  0.00  0.00    -0.226 NA
ENDBRANCH  18  19
ENDBRANCH  17  18
ENDBRANCH   3  17
TORSDOF 5
ENDMDL
MODEL 9
REMARK VINA RESULT:      -6.4      3.638      4.415
REMARK  Name = 
REMARK  5 active torsions:
REMARK  status: ('A' for Active; 'I' for Inactive)
REMARK    1  A    between atoms: C_3  and  N_17
REMARK    2  A    between atoms: C_6  and  C_7
REMARK    3  A    between atoms: C_7  and  N_8
REMARK    4  A    between atoms: N_17  and  C_18
REMARK    5  A    between atoms: C_18  and  C_19
REMARK                            x       y       z     vdW  Elec       q    Type
REMARK                         _______ _______ _______ _____ _____    ______ ____
ROOT
ATOM      1  O   UNL     1      -0.416  -0.689  23.998  0.00  0.00    -0.219 OA
ATOM      2  C   UNL     1      -0.406   0.134  24.055  0.00  0.00    +0.199 C 
ATOM      3  C   UNL     1       0.222   0.627  23.849  0.00  0.00    +0.136 C 
ATOM      4  C   UNL     1      -0.006   1.405  23.994  0.00  0.00    +0.162 C 
ATOM      5  O   UNL     1      -0.776   1.394  24.291  0.00  0.00    -0.350 OA
ATOM      6  C   UNL     1      -1.023   0.609  24.329  0.00  0.00    +0.169 C 
ENDROOT
BRANCH   6   7
ATOM      7  C   UNL     1      -1.758   0.344  24.593  0.00  0.00    +0.149 C 
BRANCH   7   8
ATOM      8  N   UNL     1      -2.419   0.833  24.531  0.00  0.00    -0.186 NA
ATOM      9  C   UNL     1      -3.148   0.580  24.824  0.00  0.00    +0.323 C 
ATOM     10  O   UNL     1      -3.215  -0.162  25.178  0.00  0.00    -0.251 OA
ATOM     11  N   UNL     1      -3.810   1.069  24.762  0.00  0.00    -0.258 N 
ATOM     12  C   UNL     1      -3.743   1.811  24.407  0.00  0.00    +0.127 C 
ATOM     13  C   UNL     1      -4.404   2.300  24.345  0.00  0.00    +0.164 C 
ATOM     14  O   UNL     1      -5.132   2.047  24.638  0.00  0.00    -0.350 OA
ATOM     15  C   UNL     1      -5.200   1.305  24.993  0.00  0.00    +0.164 C 
ATOM     16  C   UNL     1      -4.539   0.816  25.055  0.00  0.00    +0.127 C 
ENDBRANCH   7   8
ENDBRANCH   6   7
BRANCH   3  17
ATOM     17  N   UNL     1       0.952   0.383  23.549  0.00  0.00    -0.206 NA
BRANCH  17  18
ATOM     18  C   UNL     1       1.500   0.944  23.293  0.00  0.00    +0.154 C 
BRANCH  18  19
ATOM     19  C   UNL     1       2.228   0.700  22.990  0.00  0.00    +0.157 A 
ATOM     20  N   UNL     1       2.965   1.018  23.184  0.00  0.00    -0.226 NA
ATOM     21  C   UNL     1       3.539   0.610  22.754  0.00  0.00    +0.121 A 
ATOM     22  C   UNL     1       3.157   0.040  22.295  0.00  0.00    +0.121 A 
ATOM     23  N   UNL     1       2.347   0.096  22.441  0.00  0.00    -0.226 NA
ENDBRANCH  18  19
ENDBRANCH  17  18
ENDBRANCH   3  17
TORSDOF 5
ENDMDL
MODEL 10
REMARK VINA RESULT:      -6.4      3.323      4.547
REMARK  Name = 
REMARK  5 active torsions:
REMARK  status: ('A' for Active; 'I' for Inactive)
REMARK    1  A    between atoms: C_3  and  N_17
REMARK    2  A    between atoms: C_6  and  C_7
REMARK    3  A    between atoms: C_7  and  N_8
REMARK    4  A    between atoms: N_17  and  C_18
REMARK    5  A    between atoms: C_18  and  C_19
REMARK                            x       y       z     vdW  Elec       q    Type
REMARK                         _______ _______ _______ _____ _____    ______ ____
ROOT
ATOM      1  O   UNL     1      -1.628   2.289  25.509  0.00  0.00    -0.219 OA
ATOM      2  C   UNL     1      -1.827   1.897  24.811  0.00  0.00    +0.199 C 
ATOM      3  C   UNL     1      -2.590   1.768  24.527  0.00  0.00    +0.136 C 
ATOM      4  C   UNL     1      -2.531   1.357  23.815  0.00  0.00    +0.162 C 
ATOM      5  O   UNL     1      -1.731   1.231  23.658  0.00  0.00    -0.350 OA
ATOM      6  C   UNL     1      -1.295   1.565  24.273  0.00  0.00    +0.169 C 
ENDROOT
BRANCH   6   7
ATOM      7  C   UNL     1      -0.474   1.568  24.340  0.00  0.00    +0.149 C 
BRANCH   7   8
ATOM      8  N   UNL     1      -0.019   1.081  23.853  0.00  0.00    -0.186 NA
ATOM      9  C   UNL     1       0.795   1.201  23.794  0.00  0.00    +0.323 C 
ATOM     10  O   UNL     1       1.154   1.808  24.223  0.00  0.00    -0.251 OA
ATOM     11  N   UNL     1       1.250   0.715  23.307  0.00  0.00    -0.258 N 
ATOM     12  C   UNL     1       0.891   0.109  22.878  0.00  0.00    +0.127 C 
ATOM     13  C   UNL     1       1.345  -0.378  22.390  0.00  0.00    +0.164 C 
ATOM     14  O   UNL     1       2.159  -0.257  22.332  0.00  0.00    -0.350 OA
ATOM     15  C   UNL     1       2.519   0.349  22.760  0.00  0.00    +0.164 C 
ATOM     16  C   UNL     1       2.064   0.835  23.248  0.00  0.00    +0.127 C 
ENDBRANCH   7   8
ENDBRANCH   6   7
BRANCH   3  17
ATOM     17  N   UNL     1      -3.290   2.008  24.892  0.00  0.00    -0.206 NA
BRANCH  17  18
ATOM     18  C   UNL     1      -4.016   1.856  24.531  0.00  0.00    +0.154 C 
BRANCH  18  19
ATOM     19  C   UNL     1      -4.717   2.084  24.903  0.00  0.00    +0.157 A 
ATOM     20  N   UNL     1      -5.341   1.585  25.110  0.00  0.00    -0.226 NA
ATOM     21  C   UNL     1      -5.926   2.043  25.468  0.00  0.00    +0.121 A 
ATOM     22  C   UNL     1      -5.664   2.826  25.482  0.00  0.00    +0.121 A 
ATOM     23  N   UNL     1      -4.917   2.851  25.133  0.00  0.00    -0.226 NA
ENDBRANCH  18  19
ENDBRANCH  17  18
ENDBRANCH   3  17
TORSDOF 5
ENDMDL
