MODEL 1
REMARK VINA RESULT:      -7.1      0.000      0.000
REMARK  Name = 
REMARK  7 active torsions:
REMARK  status: ('A' for Active; 'I' for Inactive)
REMARK    1  A    between atoms: O_2  and  C_3
REMARK    2  A    between atoms: C_3  and  C_4
REMARK    3  A    between atoms: C_9  and  C_11
REMARK    4  A    between atoms: C_11  and  C_12
REMARK    5  A    between atoms: C_12  and  C_13
REMARK    6  A    between atoms: N_22  and  C_23
REMARK    7  A    between atoms: C_23  and  C_24
REMARK                            x       y       z     vdW  Elec       q    Type
REMARK                         _______ _______ _______ _____ _____    ______ ____
ROOT
ATOM     13  C   UNL     1      -0.962   1.100  24.284  0.00  0.00    +0.080 C 
ATOM     14  C   UNL     1      -1.166   0.354  24.575  0.00  0.00    +0.131 C 
ATOM     15  N   UNL     1      -1.896   0.095  24.858  0.00  0.00    -0.203 NA
ATOM     16  C   UNL     1      -2.602   0.516  24.920  0.00  0.00    +0.257 C 
ATOM     17  O   UNL     1      -3.243   0.096  25.229  0.00  0.00    -0.272 OA
ATOM     18  C   UNL     1      -2.754   1.300  24.715  0.00  0.00    +0.151 C 
ATOM     19  C   UNL     1      -2.235   1.858  24.397  0.00  0.00    +0.083 C 
ATOM     20  C   UNL     1      -2.653   2.562  24.291  0.00  0.00    +0.035 C 
ATOM     21  C   UNL     1      -3.429   2.439  24.544  0.00  0.00    +0.074 C 
ATOM     22  N   UNL     1      -3.491   1.660  24.806  0.00  0.00    -0.261 NA
ATOM     29  N   UNL     1      -1.438   1.768  24.205  0.00  0.00    -0.271 NA
ATOM     30  C   UNL     1      -1.068   2.437  23.893  0.00  0.00    +0.090 C 
ENDROOT
BRANCH  13  12
ATOM     12  C   UNL     1      -0.179   1.187  24.040  0.00  0.00    +0.027 C 
BRANCH  12  11
ATOM     11  C   UNL     1       0.198   0.575  23.634  0.00  0.00    +0.087 C 
BRANCH  11   9
ATOM      4  C   UNL     1       2.091   0.213  22.558  0.00  0.00    +0.105 C 
ATOM      5  C   UNL     1       2.154  -0.298  21.912  0.00  0.00    +0.024 C 
ATOM      6  C   UNL     1       1.408  -0.620  21.768  0.00  0.00    +0.023 C 
ATOM      7  C   UNL     1       0.884  -0.308  22.324  0.00  0.00    +0.093 C 
ATOM      8  N   UNL     1       1.306   0.206  22.812  0.00  0.00    -0.279 N 
ATOM      9  C   UNL     1       0.998   0.638  23.443  0.00  0.00    +0.226 C 
ATOM     10  O   UNL     1       1.489   1.133  23.884  0.00  0.00    -0.275 OA
BRANCH   4   3
ATOM      3  C   UNL     1       2.705   0.652  22.890  0.00  0.00    +0.162 C 
BRANCH   3   2
ATOM      1  C   UNL     1       4.087   1.012  22.924  0.00  0.00    +0.174 C 
ATOM      2  O   UNL     1       3.458   0.626  22.555  0.00  0.00    -0.349 OA
ENDBRANCH   3   2
ENDBRANCH   4   3
ENDBRANCH  11   9
ENDBRANCH  12  11
ENDBRANCH  13  12
BRANCH  22  23
ATOM     23  C   UNL     1      -4.172   1.302  25.106  0.00  0.00    +0.106 C 
BRANCH  23  24
ATOM     24  C   UNL     1      -4.875   1.731  25.156  0.00  0.00    +0.023 A 
ATOM     25  C   UNL     1      -5.508   1.686  24.629  0.00  0.00    +0.004 A 
ATOM     26  C   UNL     1      -6.092   2.207  24.889  0.00  0.00    +0.007 A 
ATOM     27  C   UNL     1      -5.822   2.573  25.575  0.00  0.00    +0.035 A 
ATOM     28  S   UNL     1      -5.068   2.279  25.741  0.00  0.00    -0.089 S 
ENDBRANCH  23  24
ENDBRANCH  22  23
TORSDOF 7
ENDMDL
MODEL 2
REMARK VINA RESULT:      -7.1      1.986      6.144
REMARK  Name = 
REMARK  7 active torsions:
REMARK  status: ('A' for Active; 'I' for Inactive)
REMARK    1  A    between atoms: O_2  and  C_3
REMARK    2  A    between atoms: C_3  and  C_4
REMARK    3  A    between atoms: C_9  and  C_11
REMARK    4  A    between atoms: C_11  and  C_12
REMARK    5  A    between atoms: C_12  and  C_13
REMARK    6  A    between atoms: N_22  and  C_23
REMARK    7  A    between atoms: C_23  and  C_24
REMARK                            x       y       z     vdW  Elec       q    Type
REMARK                         _______ _______ _______ _____ _____    ______ ____
ROOT
ATOM     13  C   UNL     1      -1.806   1.462  24.697  0.00  0.00    +0.080 C 
ATOM     14  C   UNL     1      -1.992   0.657  24.697  0.00  0.00    +0.131 C 
ATOM     15  N   UNL     1      -1.528   0.022  24.447  0.00  0.00    -0.203 NA
ATOM     16  C   UNL     1      -0.764   0.035  24.137  0.00  0.00    +0.257 C 
ATOM     17  O   UNL     1      -0.447  -0.701  23.938  0.00  0.00    -0.272 OA
ATOM     18  C   UNL     1      -0.275   0.684  23.999  0.00  0.00    +0.151 C 
ATOM     19  C   UNL     1      -0.429   1.483  24.138  0.00  0.00    +0.083 C 
ATOM     20  C   UNL     1       0.235   1.915  23.908  0.00  0.00    +0.035 C 
ATOM     21  C   UNL     1       0.800   1.382  23.627  0.00  0.00    +0.074 C 
ATOM     22  N   UNL     1       0.485   0.622  23.683  0.00  0.00    -0.261 NA
ATOM     29  N   UNL     1      -1.111   1.828  24.449  0.00  0.00    -0.271 NA
ATOM     30  C   UNL     1      -1.094   2.651  24.520  0.00  0.00    +0.090 C 
ENDROOT
BRANCH  13  12
ATOM     12  C   UNL     1      -2.393   1.965  24.984  0.00  0.00    +0.027 C 
BRANCH  12  11
ATOM     11  C   UNL     1      -3.186   1.741  24.940  0.00  0.00    +0.087 C 
BRANCH  11   9
ATOM      4  C   UNL     1      -5.219   2.527  25.296  0.00  0.00    +0.105 C 
ATOM      5  C   UNL     1      -5.901   2.069  25.219  0.00  0.00    +0.024 C 
ATOM      6  C   UNL     1      -5.673   1.308  24.996  0.00  0.00    +0.023 C 
ATOM      7  C   UNL     1      -4.850   1.295  24.935  0.00  0.00    +0.093 C 
ATOM      8  N   UNL     1      -4.570   2.049  25.120  0.00  0.00    -0.279 N 
ATOM      9  C   UNL     1      -3.780   2.283  25.129  0.00  0.00    +0.226 C 
ATOM     10  O   UNL     1      -3.581   3.059  25.326  0.00  0.00    -0.275 OA
BRANCH   4   3
ATOM      3  C   UNL     1      -5.191   3.323  25.510  0.00  0.00    +0.162 C 
BRANCH   3   2
ATOM      1  C   UNL     1      -5.893   4.555  25.683  0.00  0.00    +0.174 C 
ATOM      2  O   UNL     1      -5.889   3.730  25.674  0.00  0.00    -0.349 OA
ENDBRANCH   3   2
ENDBRANCH   4   3
ENDBRANCH  11   9
ENDBRANCH  12  11
ENDBRANCH  13  12
BRANCH  22  23
ATOM     23  C   UNL     1       0.863  -0.077  23.463  0.00  0.00    +0.106 C 
BRANCH  23  24
ATOM     24  C   UNL     1       1.514  -0.052  22.956  0.00  0.00    +0.023 A 
ATOM     25  C   UNL     1       1.499  -0.181  22.141  0.00  0.00    +0.004 A 
ATOM     26  C   UNL     1       2.269  -0.102  21.857  0.00  0.00    +0.007 A 
ATOM     27  C   UNL     1       2.760   0.076  22.495  0.00  0.00    +0.035 A 
ATOM     28  S   UNL     1       2.293   0.107  23.175  0.00  0.00    -0.089 S 
ENDBRANCH  23  24
ENDBRANCH  22  23
TORSDOF 7
ENDMDL
MODEL 3
REMARK VINA RESULT:      -6.5     14.710     16.533
REMARK  Name = 
REMARK  7 active torsions:
REMARK  status: ('A' for Active; 'I' for Inactive)
REMARK    1  A    between atoms: O_2  and  C_3
REMARK    2  A    between atoms: C_3  and  C_4
REMARK    3  A    between atoms: C_9  and  C_11
REMARK    4  A    between atoms: C_11  and  C_12
REMARK    5  A    between atoms: C_12  and  C_13
REMARK    6  A    between atoms: N_22  and  C_23
REMARK    7  A    between atoms: C_23  and  C_24
REMARK                            x       y       z     vdW  Elec       q    Type
REMARK                         _______ _______ _______ _____ _____    ______ ____
ROOT
ATOM     13  C   UNL     1      -5.270 -10.315  14.136  0.00  0.00    +0.080 C 
ATOM     14  C   UNL     1      -4.511 -10.637  14.190  0.00  0.00    +0.131 C 
ATOM     15  N   UNL     1      -3.939 -10.708  13.600  0.00  0.00    -0.203 NA
ATOM     16  C   UNL     1      -3.984 -10.475  12.811  0.00  0.00    +0.257 C 
ATOM     17  O   UNL     1      -3.311 -10.623  12.355  0.00  0.00    -0.272 OA
ATOM     18  C   UNL     1      -4.611 -10.114  12.415  0.00  0.00    +0.151 C 
ATOM     19  C   UNL     1      -5.349  -9.896  12.712  0.00  0.00    +0.083 C 
ATOM     20  C   UNL     1      -5.781  -9.555  12.097  0.00  0.00    +0.035 C 
ATOM     21  C   UNL     1      -5.309  -9.561  11.420  0.00  0.00    +0.074 C 
ATOM     22  N   UNL     1      -4.586  -9.907  11.616  0.00  0.00    -0.261 NA
ATOM     29  N   UNL     1      -5.642  -9.986  13.478  0.00  0.00    -0.271 NA
ATOM     30  C   UNL     1      -6.410  -9.709  13.602  0.00  0.00    +0.090 C 
ENDROOT
BRANCH  13  12
ATOM     12  C   UNL     1      -5.714 -10.325  14.831  0.00  0.00    +0.027 C 
BRANCH  12  11
ATOM     11  C   UNL     1      -5.349 -10.496  15.551  0.00  0.00    +0.087 C 
BRANCH  11   9
ATOM      4  C   UNL     1      -5.801 -10.685  17.704  0.00  0.00    +0.105 C 
ATOM      5  C   UNL     1      -5.219 -10.776  18.282  0.00  0.00    +0.024 C 
ATOM      6  C   UNL     1      -4.485 -10.781  17.906  0.00  0.00    +0.023 C 
ATOM      7  C   UNL     1      -4.612 -10.693  17.096  0.00  0.00    +0.093 C 
ATOM      8  N   UNL     1      -5.425 -10.633  16.971  0.00  0.00    -0.279 N 
ATOM      9  C   UNL     1      -5.798 -10.539  16.242  0.00  0.00    +0.226 C 
ATOM     10  O   UNL     1      -6.621 -10.487  16.202  0.00  0.00    -0.275 OA
BRANCH   4   3
ATOM      3  C   UNL     1      -6.615 -10.651  17.836  0.00  0.00    +0.162 C 
BRANCH   3   2
ATOM      1  C   UNL     1      -7.725 -10.699  18.733  0.00  0.00    +0.174 C 
ATOM      2  O   UNL     1      -6.911 -10.723  18.602  0.00  0.00    -0.349 OA
ENDBRANCH   3   2
ENDBRANCH   4   3
ENDBRANCH  11   9
ENDBRANCH  12  11
ENDBRANCH  13  12
BRANCH  22  23
ATOM     23  C   UNL     1      -3.950 -10.025  11.104  0.00  0.00    +0.106 C 
BRANCH  23  24
ATOM     24  C   UNL     1      -3.990  -9.750  10.327  0.00  0.00    +0.023 A 
ATOM     25  C   UNL     1      -3.781  -8.995  10.069  0.00  0.00    +0.004 A 
ATOM     26  C   UNL     1      -3.908  -8.960   9.255  0.00  0.00    +0.007 A 
ATOM     27  C   UNL     1      -4.195  -9.693   9.009  0.00  0.00    +0.035 A 
ATOM     28  S   UNL     1      -4.246 -10.182   9.672  0.00  0.00    -0.089 S 
ENDBRANCH  23  24
ENDBRANCH  22  23
TORSDOF 7
ENDMDL
MODEL 4
REMARK VINA RESULT:      -6.4     13.965     14.669
REMARK  Name = 
REMARK  7 active torsions:
REMARK  status: ('A' for Active; 'I' for Inactive)
REMARK    1  A    between atoms: O_2  and  C_3
REMARK    2  A    between atoms: C_3  and  C_4
REMARK    3  A    between atoms: C_9  and  C_11
REMARK    4  A    between atoms: C_11  and  C_12
REMARK    5  A    between atoms: C_12  and  C_13
REMARK    6  A    between atoms: N_22  and  C_23
REMARK    7  A    between atoms: C_23  and  C_24
REMARK                            x       y       z     vdW  Elec       q    Type
REMARK                         _______ _______ _______ _____ _____    ______ ____
ROOT
ATOM     13  C   UNL     1      -5.872 -10.222  15.603  0.00  0.00    +0.080 C 
ATOM     14  C   UNL     1      -5.606 -10.125  16.378  0.00  0.00    +0.131 C 
ATOM     15  N   UNL     1      -6.038  -9.912  17.048  0.00  0.00    -0.203 NA
ATOM     16  C   UNL     1      -6.843  -9.744  17.107  0.00  0.00    +0.257 C 
ATOM     17  O   UNL     1      -7.113  -9.546  17.862  0.00  0.00    -0.272 OA
ATOM     18  C   UNL     1      -7.415  -9.747  16.513  0.00  0.00    +0.151 C 
ATOM     19  C   UNL     1      -7.323  -9.920  15.712  0.00  0.00    +0.083 C 
ATOM     20  C   UNL     1      -8.061  -9.846  15.349  0.00  0.00    +0.035 C 
ATOM     21  C   UNL     1      -8.609  -9.628  15.926  0.00  0.00    +0.074 C 
ATOM     22  N   UNL     1      -8.210  -9.567  16.646  0.00  0.00    -0.261 NA
ATOM     29  N   UNL     1      -6.636 -10.131  15.307  0.00  0.00    -0.271 NA
ATOM     30  C   UNL     1      -6.726 -10.269  14.498  0.00  0.00    +0.090 C 
ENDROOT
BRANCH  13  12
ATOM     12  C   UNL     1      -5.299 -10.440  15.052  0.00  0.00    +0.027 C 
BRANCH  12  11
ATOM     11  C   UNL     1      -4.513 -10.533  15.288  0.00  0.00    +0.087 C 
BRANCH  11   9
ATOM      4  C   UNL     1      -2.474 -10.708  14.459  0.00  0.00    +0.105 C 
ATOM      5  C   UNL     1      -1.799 -10.773  14.929  0.00  0.00    +0.024 C 
ATOM      6  C   UNL     1      -2.036 -10.759  15.719  0.00  0.00    +0.023 C 
ATOM      7  C   UNL     1      -2.857 -10.685  15.738  0.00  0.00    +0.093 C 
ATOM      8  N   UNL     1      -3.128 -10.654  14.959  0.00  0.00    -0.279 N 
ATOM      9  C   UNL     1      -3.914 -10.581  14.723  0.00  0.00    +0.226 C 
ATOM     10  O   UNL     1      -4.104 -10.557  13.920  0.00  0.00    -0.275 OA
BRANCH   4   3
ATOM      3  C   UNL     1      -2.492 -10.699  13.634  0.00  0.00    +0.162 C 
BRANCH   3   2
ATOM      1  C   UNL     1      -1.796 -10.677  12.388  0.00  0.00    +0.174 C 
ATOM      2  O   UNL     1      -1.793 -10.781  13.206  0.00  0.00    -0.349 OA
ENDBRANCH   3   2
ENDBRANCH   4   3
ENDBRANCH  11   9
ENDBRANCH  12  11
ENDBRANCH  13  12
BRANCH  22  23
ATOM     23  C   UNL     1      -8.546  -9.362  17.371  0.00  0.00    +0.106 C 
BRANCH  23  24
ATOM     24  C   UNL     1      -9.300  -9.027  17.395  0.00  0.00    +0.023 A 
ATOM     25  C   UNL     1      -9.478  -8.227  17.302  0.00  0.00    +0.004 A 
ATOM     26  C   UNL     1     -10.295  -8.139  17.366  0.00  0.00    +0.007 A 
ATOM     27  C   UNL     1     -10.623  -8.883  17.500  0.00  0.00    +0.035 A 
ATOM     28  S   UNL     1     -10.008  -9.433  17.518  0.00  0.00    -0.089 S 
ENDBRANCH  23  24
ENDBRANCH  22  23
TORSDOF 7
ENDMDL
MODEL 5
REMARK VINA RESULT:      -6.2     14.678     16.453
REMARK  Name = 
REMARK  7 active torsions:
REMARK  status: ('A' for Active; 'I' for Inactive)
REMARK    1  A    between atoms: O_2  and  C_3
REMARK    2  A    between atoms: C_3  and  C_4
REMARK    3  A    between atoms: C_9  and  C_11
REMARK    4  A    between atoms: C_11  and  C_12
REMARK    5  A    between atoms: C_12  and  C_13
REMARK    6  A    between atoms: N_22  and  C_23
REMARK    7  A    between atoms: C_23  and  C_24
REMARK                            x       y       z     vdW  Elec       q    Type
REMARK                         _______ _______ _______ _____ _____    ______ ____
ROOT
ATOM     13  C   UNL     1      -5.723 -10.165  14.321  0.00  0.00    +0.080 C 
ATOM     14  C   UNL     1      -6.414  -9.841  14.006  0.00  0.00    +0.131 C 
ATOM     15  N   UNL     1      -6.567  -9.613  13.228  0.00  0.00    -0.203 NA
ATOM     16  C   UNL     1      -6.067  -9.651  12.573  0.00  0.00    +0.257 C 
ATOM     17  O   UNL     1      -6.386  -9.377  11.863  0.00  0.00    -0.272 OA
ATOM     18  C   UNL     1      -5.291  -9.928  12.534  0.00  0.00    +0.151 C 
ATOM     19  C   UNL     1      -4.823 -10.234  13.140  0.00  0.00    +0.083 C 
ATOM     20  C   UNL     1      -4.089 -10.433  12.819  0.00  0.00    +0.035 C 
ATOM     21  C   UNL     1      -4.104 -10.249  12.015  0.00  0.00    +0.074 C 
ATOM     22  N   UNL     1      -4.846  -9.937  11.838  0.00  0.00    -0.261 NA
ATOM     29  N   UNL     1      -5.015 -10.340  13.935  0.00  0.00    -0.271 NA
ATOM     30  C   UNL     1      -4.420 -10.663  14.407  0.00  0.00    +0.090 C 
ENDROOT
BRANCH  13  12
ATOM     12  C   UNL     1      -5.743 -10.337  15.127  0.00  0.00    +0.027 C 
BRANCH  12  11
ATOM     11  C   UNL     1      -6.328 -10.004  15.605  0.00  0.00    +0.087 C 
BRANCH  11   9
ATOM      4  C   UNL     1      -7.015  -9.958  17.703  0.00  0.00    +0.105 C 
ATOM      5  C   UNL     1      -7.699  -9.565  17.946  0.00  0.00    +0.024 C 
ATOM      6  C   UNL     1      -8.045  -9.219  17.282  0.00  0.00    +0.023 C 
ATOM      7  C   UNL     1      -7.575  -9.398  16.628  0.00  0.00    +0.093 C 
ATOM      8  N   UNL     1      -6.938  -9.854  16.888  0.00  0.00    -0.279 N 
ATOM      9  C   UNL     1      -6.332 -10.154  16.417  0.00  0.00    +0.226 C 
ATOM     10  O   UNL     1      -5.729 -10.603  16.756  0.00  0.00    -0.275 OA
BRANCH   4   3
ATOM      3  C   UNL     1      -6.499 -10.379  18.189  0.00  0.00    +0.162 C 
BRANCH   3   2
ATOM      1  C   UNL     1      -6.081 -10.780  19.495  0.00  0.00    +0.174 C 
ATOM      2  O   UNL     1      -6.620 -10.393  19.004  0.00  0.00    -0.349 OA
ENDBRANCH   3   2
ENDBRANCH   4   3
ENDBRANCH  11   9
ENDBRANCH  12  11
ENDBRANCH  13  12
BRANCH  22  23
ATOM     23  C   UNL     1      -5.100  -9.679  11.097  0.00  0.00    +0.106 C 
BRANCH  23  24
ATOM     24  C   UNL     1      -4.566  -9.639  10.469  0.00  0.00    +0.023 A 
ATOM     25  C   UNL     1      -4.055  -9.011  10.308  0.00  0.00    +0.004 A 
ATOM     26  C   UNL     1      -3.622  -9.203   9.633  0.00  0.00    +0.007 A 
ATOM     27  C   UNL     1      -3.865  -9.948   9.376  0.00  0.00    +0.035 A 
ATOM     28  S   UNL     1      -4.449 -10.218   9.893  0.00  0.00    -0.089 S 
ENDBRANCH  23  24
ENDBRANCH  22  23
TORSDOF 7
ENDMDL
MODEL 6
REMARK VINA RESULT:      -6.1     14.245     15.154
REMARK  Name = 
REMARK  7 active torsions:
REMARK  status: ('A' for Active; 'I' for Inactive)
REMARK    1  A    between atoms: O_2  and  C_3
REMARK    2  A    between atoms: C_3  and  C_4
REMARK    3  A    between atoms: C_9  and  C_11
REMARK    4  A    between atoms: C_11  and  C_12
REMARK    5  A    between atoms: C_12  and  C_13
REMARK    6  A    between atoms: N_22  and  C_23
REMARK    7  A    between atoms: C_23  and  C_24
REMARK                            x       y       z     vdW  Elec       q    Type
REMARK                         _______ _______ _______ _____ _____    ______ ____
ROOT
ATOM     13  C   UNL     1      -6.132 -10.021  14.740  0.00  0.00    +0.080 C 
ATOM     14  C   UNL     1      -5.691  -9.852  15.417  0.00  0.00    +0.131 C 
ATOM     15  N   UNL     1      -5.961  -9.630  16.164  0.00  0.00    -0.203 NA
ATOM     16  C   UNL     1      -6.738  -9.523  16.419  0.00  0.00    +0.257 C 
ATOM     17  O   UNL     1      -6.828  -9.298  17.208  0.00  0.00    -0.272 OA
ATOM     18  C   UNL     1      -7.437  -9.611  15.990  0.00  0.00    +0.151 C 
ATOM     19  C   UNL     1      -7.532  -9.828  15.200  0.00  0.00    +0.083 C 
ATOM     20  C   UNL     1      -8.340  -9.838  15.034  0.00  0.00    +0.035 C 
ATOM     21  C   UNL     1      -8.745  -9.626  15.721  0.00  0.00    +0.074 C 
ATOM     22  N   UNL     1      -8.187  -9.487  16.312  0.00  0.00    -0.261 NA
ATOM     29  N   UNL     1      -6.951 -10.010  14.644  0.00  0.00    -0.271 NA
ATOM     30  C   UNL     1      -7.226 -10.209  13.891  0.00  0.00    +0.090 C 
ENDROOT
BRANCH  13  12
ATOM     12  C   UNL     1      -5.696 -10.228  14.071  0.00  0.00    +0.027 C 
BRANCH  12  11
ATOM     11  C   UNL     1      -4.875 -10.297  14.119  0.00  0.00    +0.087 C 
BRANCH  11   9
ATOM      4  C   UNL     1      -3.091 -10.473  12.829  0.00  0.00    +0.105 C 
ATOM      5  C   UNL     1      -2.343 -10.670  13.116  0.00  0.00    +0.024 C 
ATOM      6  C   UNL     1      -2.404 -10.780  13.931  0.00  0.00    +0.023 C 
ATOM      7  C   UNL     1      -3.189 -10.650  14.148  0.00  0.00    +0.093 C 
ATOM      8  N   UNL     1      -3.614 -10.460  13.467  0.00  0.00    -0.279 N 
ATOM      9  C   UNL     1      -4.419 -10.288  13.431  0.00  0.00    +0.226 C 
ATOM     10  O   UNL     1      -4.770 -10.107  12.706  0.00  0.00    -0.275 OA
BRANCH   4   3
ATOM      3  C   UNL     1      -3.283 -10.315  12.042  0.00  0.00    +0.162 C 
BRANCH   3   2
ATOM      1  C   UNL     1      -2.875 -10.100  10.690  0.00  0.00    +0.174 C 
ATOM      2  O   UNL     1      -2.689 -10.294  11.470  0.00  0.00    -0.349 OA
ENDBRANCH   3   2
ENDBRANCH   4   3
ENDBRANCH  11   9
ENDBRANCH  12  11
ENDBRANCH  13  12
BRANCH  22  23
ATOM     23  C   UNL     1      -8.350  -9.261  17.090  0.00  0.00    +0.106 C 
BRANCH  23  24
ATOM     24  C   UNL     1      -9.116  -9.041  17.303  0.00  0.00    +0.023 A 
ATOM     25  C   UNL     1      -9.445  -8.289  17.218  0.00  0.00    +0.004 A 
ATOM     26  C   UNL     1     -10.219  -8.318  17.501  0.00  0.00    +0.007 A 
ATOM     27  C   UNL     1     -10.369  -9.086  17.761  0.00  0.00    +0.035 A 
ATOM     28  S   UNL     1      -9.686  -9.534  17.638  0.00  0.00    -0.089 S 
ENDBRANCH  23  24
ENDBRANCH  22  23
TORSDOF 7
ENDMDL
MODEL 7
REMARK VINA RESULT:      -5.8      3.217      4.832
REMARK  Name = 
REMARK  7 active torsions:
REMARK  status: ('A' for Active; 'I' for Inactive)
REMARK    1  A    between atoms: O_2  and  C_3
REMARK    2  A    between atoms: C_3  and  C_4
REMARK    3  A    between atoms: C_9  and  C_11
REMARK    4  A    between atoms: C_11  and  C_12
REMARK    5  A    between atoms: C_12  and  C_13
REMARK    6  A    between atoms: N_22  and  C_23
REMARK    7  A    between atoms: C_23  and  C_24
REMARK                            x       y       z     vdW  Elec       q    Type
REMARK                         _______ _______ _______ _____ _____    ______ ____
ROOT
ATOM     13  C   UNL     1      -2.879   0.950  24.835  0.00  0.00    +0.080 C 
ATOM     14  C   UNL     1      -2.155   0.771  25.190  0.00  0.00    +0.131 C 
ATOM     15  N   UNL     1      -1.569   1.289  25.451  0.00  0.00    -0.203 NA
ATOM     16  C   UNL     1      -1.560   2.113  25.423  0.00  0.00    +0.257 C 
ATOM     17  O   UNL     1      -0.886   2.475  25.733  0.00  0.00    -0.272 OA
ATOM     18  C   UNL     1      -2.136   2.623  25.126  0.00  0.00    +0.151 C 
ATOM     19  C   UNL     1      -2.863   2.436  24.784  0.00  0.00    +0.083 C 
ATOM     20  C   UNL     1      -3.237   3.142  24.577  0.00  0.00    +0.035 C 
ATOM     21  C   UNL     1      -2.741   3.766  24.791  0.00  0.00    +0.074 C 
ATOM     22  N   UNL     1      -2.061   3.445  25.130  0.00  0.00    -0.261 NA
ATOM     29  N   UNL     1      -3.193   1.691  24.655  0.00  0.00    -0.271 NA
ATOM     30  C   UNL     1      -3.938   1.687  24.297  0.00  0.00    +0.090 C 
ENDROOT
BRANCH  13  12
ATOM     12  C   UNL     1      -3.350   0.304  24.634  0.00  0.00    +0.027 C 
BRANCH  12  11
ATOM     11  C   UNL     1      -3.099  -0.461  24.816  0.00  0.00    +0.087 C 
BRANCH  11   9
ATOM      4  C   UNL     1      -3.508  -2.558  24.258  0.00  0.00    +0.105 C 
ATOM      5  C   UNL     1      -2.969  -3.172  24.376  0.00  0.00    +0.024 C 
ATOM      6  C   UNL     1      -2.292  -2.852  24.724  0.00  0.00    +0.023 C 
ATOM      7  C   UNL     1      -2.413  -2.042  24.820  0.00  0.00    +0.093 C 
ATOM      8  N   UNL     1      -3.164  -1.860  24.532  0.00  0.00    -0.279 N 
ATOM      9  C   UNL     1      -3.511  -1.113  24.521  0.00  0.00    +0.226 C 
ATOM     10  O   UNL     1      -4.271  -1.014  24.214  0.00  0.00    -0.275 OA
BRANCH   4   3
ATOM      3  C   UNL     1      -4.259  -2.631  23.924  0.00  0.00    +0.162 C 
BRANCH   3   2
ATOM      1  C   UNL     1      -5.205  -3.390  23.170  0.00  0.00    +0.174 C 
ATOM      2  O   UNL     1      -4.487  -3.342  23.575  0.00  0.00    -0.349 OA
ENDBRANCH   3   2
ENDBRANCH   4   3
ENDBRANCH  11   9
ENDBRANCH  12  11
ENDBRANCH  13  12
BRANCH  22  23
ATOM     23  C   UNL     1      -1.417   3.872  25.422  0.00  0.00    +0.106 C 
BRANCH  23  24
ATOM     24  C   UNL     1      -1.277   4.640  25.156  0.00  0.00    +0.023 A 
ATOM     25  C   UNL     1      -1.735   5.304  25.327  0.00  0.00    +0.004 A 
ATOM     26  C   UNL     1      -1.395   5.953  24.948  0.00  0.00    +0.007 A 
ATOM     27  C   UNL     1      -0.727   5.691  24.543  0.00  0.00    +0.035 A 
ATOM     28  S   UNL     1      -0.654   4.879  24.671  0.00  0.00    -0.089 S 
ENDBRANCH  23  24
ENDBRANCH  22  23
TORSDOF 7
ENDMDL
MODEL 8
REMARK VINA RESULT:      -5.7     14.431     15.533
REMARK  Name = 
REMARK  7 active torsions:
REMARK  status: ('A' for Active; 'I' for Inactive)
REMARK    1  A    between atoms: O_2  and  C_3
REMARK    2  A    between atoms: C_3  and  C_4
REMARK    3  A    between atoms: C_9  and  C_11
REMARK    4  A    between atoms: C_11  and  C_12
REMARK    5  A    between atoms: C_12  and  C_13
REMARK    6  A    between atoms: N_22  and  C_23
REMARK    7  A    between atoms: C_23  and  C_24
REMARK                            x       y       z     vdW  Elec       q    Type
REMARK                         _______ _______ _______ _____ _____    ______ ____
ROOT
ATOM     13  C   UNL     1      -4.638 -10.489  13.976  0.00  0.00    +0.080 C 
ATOM     14  C   UNL     1      -5.323 -10.365  13.532  0.00  0.00    +0.131 C 
ATOM     15  N   UNL     1      -6.096 -10.258  13.798  0.00  0.00    -0.203 NA
ATOM     16  C   UNL     1      -6.376 -10.249  14.573  0.00  0.00    +0.257 C 
ATOM     17  O   UNL     1      -7.189 -10.129  14.659  0.00  0.00    -0.272 OA
ATOM     18  C   UNL     1      -5.953 -10.345  15.275  0.00  0.00    +0.151 C 
ATOM     19  C   UNL     1      -5.144 -10.473  15.374  0.00  0.00    +0.083 C 
ATOM     20  C   UNL     1      -4.992 -10.531  16.183  0.00  0.00    +0.035 C 
ATOM     21  C   UNL     1      -5.708 -10.440  16.584  0.00  0.00    +0.074 C 
ATOM     22  N   UNL     1      -6.301 -10.324  16.023  0.00  0.00    -0.261 NA
ATOM     29  N   UNL     1      -4.559 -10.537  14.796  0.00  0.00    -0.271 NA
ATOM     30  C   UNL     1      -3.793 -10.666  15.075  0.00  0.00    +0.090 C 
ENDROOT
BRANCH  13  12
ATOM     12  C   UNL     1      -3.941 -10.576  13.544  0.00  0.00    +0.027 C 
BRANCH  12  11
ATOM     11  C   UNL     1      -3.937 -10.424  12.733  0.00  0.00    +0.087 C 
BRANCH  11   9
ATOM      4  C   UNL     1      -2.595  -9.727  11.124  0.00  0.00    +0.105 C 
ATOM      5  C   UNL     1      -2.859  -9.534  10.366  0.00  0.00    +0.024 C 
ATOM      6  C   UNL     1      -3.676  -9.650  10.344  0.00  0.00    +0.023 C 
ATOM      7  C   UNL     1      -3.916  -9.915  11.087  0.00  0.00    +0.093 C 
ATOM      8  N   UNL     1      -3.249  -9.962  11.569  0.00  0.00    -0.279 N 
ATOM      9  C   UNL     1      -3.236 -10.203  12.357  0.00  0.00    +0.226 C 
ATOM     10  O   UNL     1      -2.523 -10.223  12.772  0.00  0.00    -0.275 OA
BRANCH   4   3
ATOM      3  C   UNL     1      -1.815  -9.691  11.389  0.00  0.00    +0.162 C 
BRANCH   3   2
ATOM      1  C   UNL     1      -0.526  -9.088  11.264  0.00  0.00    +0.174 C 
ATOM      2  O   UNL     1      -1.238  -9.330  10.924  0.00  0.00    -0.349 OA
ENDBRANCH   3   2
ENDBRANCH   4   3
ENDBRANCH  11   9
ENDBRANCH  12  11
ENDBRANCH  13  12
BRANCH  22  23
ATOM     23  C   UNL     1      -7.103 -10.209  16.181  0.00  0.00    +0.106 C 
BRANCH  23  24
ATOM     24  C   UNL     1      -7.364 -10.145  16.961  0.00  0.00    +0.023 A 
ATOM     25  C   UNL     1      -7.405  -9.449  17.403  0.00  0.00    +0.004 A 
ATOM     26  C   UNL     1      -7.695  -9.639  18.151  0.00  0.00    +0.007 A 
ATOM     27  C   UNL     1      -7.833 -10.451  18.173  0.00  0.00    +0.035 A 
ATOM     28  S   UNL     1      -7.628 -10.764  17.437  0.00  0.00    -0.089 S 
ENDBRANCH  23  24
ENDBRANCH  22  23
TORSDOF 7
ENDMDL
MODEL 9
REMARK VINA RESULT:      -5.3     16.467     17.747
REMARK  Name = 
REMARK  7 active torsions:
REMARK  status: ('A' for Active; 'I' for Inactive)
REMARK    1  A    between atoms: O_2  and  C_3
REMARK    2  A    between atoms: C_3  and  C_4
REMARK    3  A    between atoms: C_9  and  C_11
REMARK    4  A    between atoms: C_11  and  C_12
REMARK    5  A    between atoms: C_12  and  C_13
REMARK    6  A    between atoms: N_22  and  C_23
REMARK    7  A    between atoms: C_23  and  C_24
REMARK                            x       y       z     vdW  Elec       q    Type
REMARK                         _______ _______ _______ _____ _____    ______ ____
ROOT
ATOM     13  C   UNL     1      -5.329  -9.957  11.047  0.00  0.00    +0.080 C 
ATOM     14  C   UNL     1      -5.011 -10.206  10.327  0.00  0.00    +0.131 C 
ATOM     15  N   UNL     1      -5.332 -10.135   9.571  0.00  0.00    -0.203 NA
ATOM     16  C   UNL     1      -6.051  -9.798   9.348  0.00  0.00    +0.257 C 
ATOM     17  O   UNL     1      -6.216  -9.812   8.539  0.00  0.00    -0.272 OA
ATOM     18  C   UNL     1      -6.625  -9.448   9.824  0.00  0.00    +0.151 C 
ATOM     19  C   UNL     1      -6.624  -9.349  10.643  0.00  0.00    +0.083 C 
ATOM     20  C   UNL     1      -7.324  -8.968  10.856  0.00  0.00    +0.035 C 
ATOM     21  C   UNL     1      -7.759  -8.831  10.167  0.00  0.00    +0.074 C 
ATOM     22  N   UNL     1      -7.327  -9.127   9.530  0.00  0.00    -0.261 NA
ATOM     29  N   UNL     1      -6.047  -9.576  11.187  0.00  0.00    -0.271 NA
ATOM     30  C   UNL     1      -6.209  -9.398  11.977  0.00  0.00    +0.090 C 
ENDROOT
BRANCH  13  12
ATOM     12  C   UNL     1      -4.869 -10.110  11.715  0.00  0.00    +0.027 C 
BRANCH  12  11
ATOM     11  C   UNL     1      -4.056 -10.230  11.636  0.00  0.00    +0.087 C 
BRANCH  11   9
ATOM      4  C   UNL     1      -2.239 -10.436  12.874  0.00  0.00    +0.105 C 
ATOM      5  C   UNL     1      -1.476 -10.330  12.579  0.00  0.00    +0.024 C 
ATOM      6  C   UNL     1      -1.537 -10.144  11.777  0.00  0.00    +0.023 C 
ATOM      7  C   UNL     1      -2.337 -10.134  11.577  0.00  0.00    +0.093 C 
ATOM      8  N   UNL     1      -2.771 -10.315  12.255  0.00  0.00    -0.279 N 
ATOM      9  C   UNL     1      -3.592 -10.366  12.305  0.00  0.00    +0.226 C 
ATOM     10  O   UNL     1      -3.952 -10.553  13.024  0.00  0.00    -0.275 OA
BRANCH   4   3
ATOM      3  C   UNL     1      -2.436 -10.629  13.652  0.00  0.00    +0.162 C 
BRANCH   3   2
ATOM      1  C   UNL     1      -2.031 -10.736  15.017  0.00  0.00    +0.174 C 
ATOM      2  O   UNL     1      -1.841 -10.728  14.214  0.00  0.00    -0.349 OA
ENDBRANCH   3   2
ENDBRANCH   4   3
ENDBRANCH  11   9
ENDBRANCH  12  11
ENDBRANCH  13  12
BRANCH  22  23
ATOM     23  C   UNL     1      -7.556  -9.107   8.738  0.00  0.00    +0.106 C 
BRANCH  23  24
ATOM     24  C   UNL     1      -8.254  -8.725   8.520  0.00  0.00    +0.023 A 
ATOM     25  C   UNL     1      -9.005  -9.067   8.491  0.00  0.00    +0.004 A 
ATOM     26  C   UNL     1      -9.539  -8.488   8.247  0.00  0.00    +0.007 A 
ATOM     27  C   UNL     1      -9.120  -7.788   8.125  0.00  0.00    +0.035 A 
ATOM     28  S   UNL     1      -8.325  -7.935   8.294  0.00  0.00    -0.089 S 
ENDBRANCH  23  24
ENDBRANCH  22  23
TORSDOF 7
ENDMDL
