MODEL 1
REMARK VINA RESULT:     -13.3      0.000      0.000
REMARK  Name = 
REMARK  2 active torsions:
REMARK  status: ('A' for Active; 'I' for Inactive)
REMARK    1  A    between atoms: C_2  and  C_25
REMARK    2  A    between atoms: C_15  and  C_20
REMARK                            x       y       z     vdW  Elec       q    Type
REMARK                         _______ _______ _______ _____ _____    ______ ____
ROOT
ATOM      1  O   UNL     1       0.202   3.091  25.872  0.00  0.00    -0.270 OA
ATOM      2  C   UNL     1      -0.565   3.112  25.570  0.00  0.00    +0.251 C 
ATOM      3  N   UNL     1      -0.970   2.408  25.422  0.00  0.00    -0.272 N 
ATOM      4  C   UNL     1      -0.607   1.684  25.576  0.00  0.00    +0.115 C 
ATOM      5  C   UNL     1      -1.011   0.980  25.428  0.00  0.00    +0.116 C 
ATOM      6  N   UNL     1      -1.779   1.001  25.126  0.00  0.00    -0.266 N 
ATOM      7  C   UNL     1      -2.141   1.726  24.972  0.00  0.00    +0.174 C 
ATOM      8  C   UNL     1      -1.737   2.429  25.120  0.00  0.00    +0.123 C 
ATOM      9  C   UNL     1      -2.897   1.869  24.673  0.00  0.00    +0.265 C 
ATOM     10  O   UNL     1      -3.100   2.663  24.581  0.00  0.00    -0.271 OA
ATOM     11  N   UNL     1      -3.476   1.323  24.454  0.00  0.00    -0.178 NA
ATOM     12  C   UNL     1      -3.442   0.500  24.480  0.00  0.00    +0.078 A 
ATOM     13  C   UNL     1      -4.144   0.160  24.210  0.00  0.00    +0.017 A 
ATOM     14  C   UNL     1      -4.225  -0.660  24.191  0.00  0.00    +0.002 A 
ATOM     15  C   UNL     1      -3.605  -1.142  24.442  0.00  0.00    +0.006 A 
ATOM     16  C   UNL     1      -2.902  -0.803  24.713  0.00  0.00    +0.006 A 
ATOM     17  C   UNL     1      -2.822   0.018  24.732  0.00  0.00    +0.069 A 
ATOM     18  C   UNL     1      -2.081   0.241  25.019  0.00  0.00    +0.251 C 
ATOM     19  O   UNL     1      -1.577  -0.378  25.227  0.00  0.00    -0.270 OA
ENDROOT
BRANCH   2  25
ATOM     25  C   UNL     1      -0.928   3.837  25.416  0.00  0.00    +0.073 A 
ATOM     26  C   UNL     1      -1.530   4.110  25.909  0.00  0.00    +0.103 A 
ATOM     27  N   UNL     1      -1.893   4.835  25.755  0.00  0.00    -0.242 NA
ATOM     28  C   UNL     1      -1.653   5.286  25.107  0.00  0.00    +0.099 A 
ATOM     29  C   UNL     1      -1.051   5.013  24.614  0.00  0.00    +0.021 A 
ATOM     30  C   UNL     1      -0.688   4.289  24.768  0.00  0.00    +0.008 A 
ENDBRANCH   2  25
BRANCH  15  20
ATOM     20  C   UNL     1      -3.687  -1.963  24.423  0.00  0.00    +0.029 A 
ATOM     21  C   UNL     1      -3.469  -2.486  25.022  0.00  0.00    +0.007 A 
ATOM     22  C   UNL     1      -3.648  -3.251  24.770  0.00  0.00    +0.007 A 
ATOM     23  C   UNL     1      -3.977  -3.201  24.016  0.00  0.00    +0.035 A 
ATOM     24  S   UNL     1      -4.001  -2.404  23.801  0.00  0.00    -0.086 S 
ENDBRANCH  15  20
TORSDOF 2
ENDMDL
MODEL 2
REMARK VINA RESULT:     -12.8      1.859      5.576
REMARK  Name = 
REMARK  2 active torsions:
REMARK  status: ('A' for Active; 'I' for Inactive)
REMARK    1  A    between atoms: C_2  and  C_25
REMARK    2  A    between atoms: C_15  and  C_20
REMARK                            x       y       z     vdW  Elec       q    Type
REMARK                         _______ _______ _______ _____ _____    ______ ____
ROOT
ATOM      1  O   UNL     1      -4.662  -1.174  23.928  0.00  0.00    -0.270 OA
ATOM      2  C   UNL     1      -3.923  -1.103  24.288  0.00  0.00    +0.251 C 
ATOM      3  N   UNL     1      -3.582  -0.359  24.387  0.00  0.00    -0.272 N 
ATOM      4  C   UNL     1      -3.979   0.315  24.125  0.00  0.00    +0.115 C 
ATOM      5  C   UNL     1      -3.638   1.060  24.223  0.00  0.00    +0.116 C 
ATOM      6  N   UNL     1      -2.899   1.131  24.584  0.00  0.00    -0.266 N 
ATOM      7  C   UNL     1      -2.502   0.457  24.846  0.00  0.00    +0.174 C 
ATOM      8  C   UNL     1      -2.843  -0.287  24.747  0.00  0.00    +0.123 C 
ATOM      9  C   UNL     1      -1.766   0.405  25.217  0.00  0.00    +0.265 C 
ATOM     10  O   UNL     1      -1.518  -0.356  25.413  0.00  0.00    -0.271 OA
ATOM     11  N   UNL     1      -1.247   1.014  25.417  0.00  0.00    -0.178 NA
ATOM     12  C   UNL     1      -1.335   1.825  25.296  0.00  0.00    +0.078 A 
ATOM     13  C   UNL     1      -0.683   2.245  25.579  0.00  0.00    +0.017 A 
ATOM     14  C   UNL     1      -0.660   3.066  25.512  0.00  0.00    +0.002 A 
ATOM     15  C   UNL     1      -1.288   3.469  25.161  0.00  0.00    +0.006 A 
ATOM     16  C   UNL     1      -1.941   3.050  24.877  0.00  0.00    +0.006 A 
ATOM     17  C   UNL     1      -1.963   2.228  24.945  0.00  0.00    +0.069 A 
ATOM     18  C   UNL     1      -2.659   1.919  24.628  0.00  0.00    +0.251 C 
ATOM     19  O   UNL     1      -3.186   2.471  24.314  0.00  0.00    -0.270 OA
ENDROOT
BRANCH   2  25
ATOM     25  C   UNL     1      -3.525  -1.777  24.550  0.00  0.00    +0.073 A 
ATOM     26  C   UNL     1      -3.011  -2.176  24.044  0.00  0.00    +0.103 A 
ATOM     27  N   UNL     1      -2.614  -2.850  24.305  0.00  0.00    -0.242 NA
ATOM     28  C   UNL     1      -2.731  -3.125  25.074  0.00  0.00    +0.099 A 
ATOM     29  C   UNL     1      -3.246  -2.726  25.582  0.00  0.00    +0.021 A 
ATOM     30  C   UNL     1      -3.643  -2.052  25.319  0.00  0.00    +0.008 A 
ENDBRANCH   2  25
BRANCH  15  20
ATOM     20  C   UNL     1      -1.265   4.291  25.094  0.00  0.00    +0.029 A 
ATOM     21  C   UNL     1      -1.842   4.816  25.362  0.00  0.00    +0.007 A 
ATOM     22  C   UNL     1      -1.594   5.582  25.181  0.00  0.00    +0.007 A 
ATOM     23  C   UNL     1      -0.864   5.530  24.801  0.00  0.00    +0.035 A 
ATOM     24  S   UNL     1      -0.660   4.732  24.748  0.00  0.00    -0.086 S 
ENDBRANCH  15  20
TORSDOF 2
ENDMDL
MODEL 3
REMARK VINA RESULT:     -11.9      1.159      2.014
REMARK  Name = 
REMARK  2 active torsions:
REMARK  status: ('A' for Active; 'I' for Inactive)
REMARK    1  A    between atoms: C_2  and  C_25
REMARK    2  A    between atoms: C_15  and  C_20
REMARK                            x       y       z     vdW  Elec       q    Type
REMARK                         _______ _______ _______ _____ _____    ______ ____
ROOT
ATOM      1  O   UNL     1      -4.373   4.175  25.085  0.00  0.00    -0.270 OA
ATOM      2  C   UNL     1      -3.658   3.763  25.078  0.00  0.00    +0.251 C 
ATOM      3  N   UNL     1      -3.655   2.944  24.981  0.00  0.00    -0.272 N 
ATOM      4  C   UNL     1      -4.366   2.536  24.890  0.00  0.00    +0.115 C 
ATOM      5  C   UNL     1      -4.364   1.717  24.793  0.00  0.00    +0.116 C 
ATOM      6  N   UNL     1      -3.649   1.305  24.786  0.00  0.00    -0.266 N 
ATOM      7  C   UNL     1      -2.937   1.713  24.877  0.00  0.00    +0.174 C 
ATOM      8  C   UNL     1      -2.940   2.532  24.974  0.00  0.00    +0.123 C 
ATOM      9  C   UNL     1      -2.169   1.411  24.886  0.00  0.00    +0.265 C 
ATOM     10  O   UNL     1      -1.568   1.966  24.988  0.00  0.00    -0.271 OA
ATOM     11  N   UNL     1      -1.924   0.627  24.807  0.00  0.00    -0.178 NA
ATOM     12  C   UNL     1      -2.385  -0.048  24.700  0.00  0.00    +0.078 A 
ATOM     13  C   UNL     1      -1.919  -0.727  24.646  0.00  0.00    +0.017 A 
ATOM     14  C   UNL     1      -2.273  -1.463  24.538  0.00  0.00    +0.002 A 
ATOM     15  C   UNL     1      -3.094  -1.522  24.482  0.00  0.00    +0.006 A 
ATOM     16  C   UNL     1      -3.561  -0.843  24.536  0.00  0.00    +0.006 A 
ATOM     17  C   UNL     1      -3.206  -0.107  24.644  0.00  0.00    +0.069 A 
ATOM     18  C   UNL     1      -3.768   0.496  24.683  0.00  0.00    +0.251 C 
ATOM     19  O   UNL     1      -4.554   0.257  24.608  0.00  0.00    -0.270 OA
ENDROOT
BRANCH   2  25
ATOM     25  C   UNL     1      -2.946   4.171  25.169  0.00  0.00    +0.073 A 
ATOM     26  C   UNL     1      -2.627   4.282  25.921  0.00  0.00    +0.103 A 
ATOM     27  N   UNL     1      -1.916   4.690  26.012  0.00  0.00    -0.242 NA
ATOM     28  C   UNL     1      -1.523   4.986  25.349  0.00  0.00    +0.099 A 
ATOM     29  C   UNL     1      -1.842   4.874  24.596  0.00  0.00    +0.021 A 
ATOM     30  C   UNL     1      -2.553   4.467  24.506  0.00  0.00    +0.008 A 
ENDBRANCH   2  25
BRANCH  15  20
ATOM     20  C   UNL     1      -3.448  -2.259  24.374  0.00  0.00    +0.029 A 
ATOM     21  C   UNL     1      -4.012  -2.447  23.802  0.00  0.00    +0.007 A 
ATOM     22  C   UNL     1      -4.213  -3.242  23.893  0.00  0.00    +0.007 A 
ATOM     23  C   UNL     1      -3.773  -3.546  24.521  0.00  0.00    +0.035 A 
ATOM     24  S   UNL     1      -3.300  -2.938  24.818  0.00  0.00    -0.086 S 
ENDBRANCH  15  20
TORSDOF 2
ENDMDL
MODEL 4
REMARK VINA RESULT:     -10.9      2.461      4.046
REMARK  Name = 
REMARK  2 active torsions:
REMARK  status: ('A' for Active; 'I' for Inactive)
REMARK    1  A    between atoms: C_2  and  C_25
REMARK    2  A    between atoms: C_15  and  C_20
REMARK                            x       y       z     vdW  Elec       q    Type
REMARK                         _______ _______ _______ _____ _____    ______ ____
ROOT
ATOM      1  O   UNL     1      -4.704   3.860  24.354  0.00  0.00    -0.270 OA
ATOM      2  C   UNL     1      -4.553   3.099  24.633  0.00  0.00    +0.251 C 
ATOM      3  N   UNL     1      -3.839   2.727  24.452  0.00  0.00    -0.272 N 
ATOM      4  C   UNL     1      -3.276   3.117  23.991  0.00  0.00    +0.115 C 
ATOM      5  C   UNL     1      -2.562   2.746  23.809  0.00  0.00    +0.116 C 
ATOM      6  N   UNL     1      -2.411   1.983  24.089  0.00  0.00    -0.266 N 
ATOM      7  C   UNL     1      -2.974   1.594  24.549  0.00  0.00    +0.174 C 
ATOM      8  C   UNL     1      -3.688   1.965  24.730  0.00  0.00    +0.123 C 
ATOM      9  C   UNL     1      -2.934   0.839  24.880  0.00  0.00    +0.265 C 
ATOM     10  O   UNL     1      -3.594   0.605  25.316  0.00  0.00    -0.271 OA
ATOM     11  N   UNL     1      -2.322   0.288  24.832  0.00  0.00    -0.178 NA
ATOM     12  C   UNL     1      -1.599   0.356  24.442  0.00  0.00    +0.078 A 
ATOM     13  C   UNL     1      -1.142  -0.326  24.532  0.00  0.00    +0.017 A 
ATOM     14  C   UNL     1      -0.396  -0.372  24.183  0.00  0.00    +0.002 A 
ATOM     15  C   UNL     1      -0.106   0.262  23.744  0.00  0.00    +0.006 A 
ATOM     16  C   UNL     1      -0.562   0.945  23.653  0.00  0.00    +0.006 A 
ATOM     17  C   UNL     1      -1.308   0.990  24.003  0.00  0.00    +0.069 A 
ATOM     18  C   UNL     1      -1.670   1.715  23.845  0.00  0.00    +0.251 C 
ATOM     19  O   UNL     1      -1.233   2.241  23.384  0.00  0.00    -0.270 OA
ENDROOT
BRANCH   2  25
ATOM     25  C   UNL     1      -5.116   2.708  25.094  0.00  0.00    +0.073 A 
ATOM     26  C   UNL     1      -5.143   2.836  25.908  0.00  0.00    +0.103 A 
ATOM     27  N   UNL     1      -5.705   2.447  26.368  0.00  0.00    -0.242 NA
ATOM     28  C   UNL     1      -6.241   1.929  26.014  0.00  0.00    +0.099 A 
ATOM     29  C   UNL     1      -6.214   1.801  25.199  0.00  0.00    +0.021 A 
ATOM     30  C   UNL     1      -5.652   2.191  24.739  0.00  0.00    +0.008 A 
ENDBRANCH   2  25
BRANCH  15  20
ATOM     20  C   UNL     1       0.640   0.216  23.396  0.00  0.00    +0.029 A 
ATOM     21  C   UNL     1       1.299   0.669  23.597  0.00  0.00    +0.007 A 
ATOM     22  C   UNL     1       1.925   0.440  23.110  0.00  0.00    +0.007 A 
ATOM     23  C   UNL     1       1.652  -0.153  22.607  0.00  0.00    +0.035 A 
ATOM     24  S   UNL     1       0.858  -0.293  22.783  0.00  0.00    -0.086 S 
ENDBRANCH  15  20
TORSDOF 2
ENDMDL
MODEL 5
REMARK VINA RESULT:     -10.6      2.597      4.012
REMARK  Name = 
REMARK  2 active torsions:
REMARK  status: ('A' for Active; 'I' for Inactive)
REMARK    1  A    between atoms: C_2  and  C_25
REMARK    2  A    between atoms: C_15  and  C_20
REMARK                            x       y       z     vdW  Elec       q    Type
REMARK                         _______ _______ _______ _____ _____    ______ ____
ROOT
ATOM      1  O   UNL     1       0.199  -1.335  24.517  0.00  0.00    -0.270 OA
ATOM      2  C   UNL     1       0.020  -0.637  24.114  0.00  0.00    +0.251 C 
ATOM      3  N   UNL     1      -0.694  -0.251  24.257  0.00  0.00    -0.272 N 
ATOM      4  C   UNL     1      -1.230  -0.561  24.801  0.00  0.00    +0.115 C 
ATOM      5  C   UNL     1      -1.945  -0.175  24.944  0.00  0.00    +0.116 C 
ATOM      6  N   UNL     1      -2.123   0.524  24.541  0.00  0.00    -0.266 N 
ATOM      7  C   UNL     1      -1.587   0.834  23.996  0.00  0.00    +0.174 C 
ATOM      8  C   UNL     1      -0.873   0.447  23.854  0.00  0.00    +0.123 C 
ATOM      9  C   UNL     1      -1.657   1.517  23.539  0.00  0.00    +0.265 C 
ATOM     10  O   UNL     1      -1.020   1.681  23.042  0.00  0.00    -0.271 OA
ATOM     11  N   UNL     1      -2.279   2.059  23.514  0.00  0.00    -0.178 NA
ATOM     12  C   UNL     1      -2.985   2.050  23.940  0.00  0.00    +0.078 A 
ATOM     13  C   UNL     1      -3.460   2.698  23.750  0.00  0.00    +0.017 A 
ATOM     14  C   UNL     1      -4.193   2.794  24.115  0.00  0.00    +0.002 A 
ATOM     15  C   UNL     1      -4.452   2.243  24.671  0.00  0.00    +0.006 A 
ATOM     16  C   UNL     1      -3.978   1.594  24.862  0.00  0.00    +0.006 A 
ATOM     17  C   UNL     1      -3.245   1.499  24.496  0.00  0.00    +0.069 A 
ATOM     18  C   UNL     1      -2.861   0.819  24.764  0.00  0.00    +0.251 C 
ATOM     19  O   UNL     1      -3.268   0.377  25.328  0.00  0.00    -0.270 OA
ENDROOT
BRANCH   2  25
ATOM     25  C   UNL     1       0.557  -0.327  23.569  0.00  0.00    +0.073 A 
ATOM     26  C   UNL     1       1.090   0.257  23.802  0.00  0.00    +0.103 A 
ATOM     27  N   UNL     1       1.626   0.568  23.258  0.00  0.00    -0.242 NA
ATOM     28  C   UNL     1       1.628   0.294  22.479  0.00  0.00    +0.099 A 
ATOM     29  C   UNL     1       1.094  -0.291  22.246  0.00  0.00    +0.021 A 
ATOM     30  C   UNL     1       0.559  -0.601  22.791  0.00  0.00    +0.008 A 
ENDBRANCH   2  25
BRANCH  15  20
ATOM     20  C   UNL     1      -5.186   2.339  25.036  0.00  0.00    +0.029 A 
ATOM     21  C   UNL     1      -5.867   1.903  24.878  0.00  0.00    +0.007 A 
ATOM     22  C   UNL     1      -6.469   2.183  25.369  0.00  0.00    +0.007 A 
ATOM     23  C   UNL     1      -6.159   2.792  25.830  0.00  0.00    +0.035 A 
ATOM     24  S   UNL     1      -5.365   2.889  25.625  0.00  0.00    -0.086 S 
ENDBRANCH  15  20
TORSDOF 2
ENDMDL
