MODEL 1
REMARK VINA RESULT:     -10.6      0.000      0.000
REMARK  Name = 
REMARK  4 active torsions:
REMARK  status: ('A' for Active; 'I' for Inactive)
REMARK    1  A    between atoms: N_2  and  C_3
REMARK    2  A    between atoms: C_6  and  C_9
REMARK    3  A    between atoms: C_12  and  C_14
REMARK    4  A    between atoms: N_18  and  C_19
REMARK                            x       y       z     vdW  Elec       q    Type
REMARK                         _______ _______ _______ _____ _____    ______ ____
ROOT
ATOM      9  C   UNL     1      -4.136   0.711  24.487  0.00  0.00    +0.205 A 
ATOM     10  N   UNL     1      -3.723   0.708  23.773  0.00  0.00    -0.056 NA
ATOM     11  O   UNL     1      -3.459  -0.060  23.634  0.00  0.00    -0.336 OA
ATOM     12  C   UNL     1      -3.709  -0.534  24.263  0.00  0.00    +0.251 A 
ATOM     13  N   UNL     1      -4.127  -0.056  24.789  0.00  0.00    -0.190 NA
ENDROOT
BRANCH   9   6
ATOM      3  C   UNL     1      -5.212   2.677  25.538  0.00  0.00    +0.148 A 
ATOM      4  C   UNL     1      -5.653   1.997  25.387  0.00  0.00    +0.036 A 
ATOM      5  C   UNL     1      -5.295   1.342  25.037  0.00  0.00    +0.008 A 
ATOM      6  C   UNL     1      -4.495   1.366  24.838  0.00  0.00    +0.058 A 
ATOM      7  C   UNL     1      -4.053   2.047  24.989  0.00  0.00    +0.103 A 
ATOM      8  N   UNL     1      -4.411   2.702  25.339  0.00  0.00    -0.228 NA
BRANCH   3   2
ATOM      1  C   UNL     1      -5.580   4.057  25.494  0.00  0.00    +0.137 C 
ATOM      2  N   UNL     1      -5.570   3.332  25.888  0.00  0.00    -0.218 NA
ENDBRANCH   3   2
ENDBRANCH   9   6
BRANCH  12  14
ATOM     14  C   UNL     1      -3.565  -1.341  24.348  0.00  0.00    +0.138 C 
ATOM     15  C   UNL     1      -4.081  -1.950  24.142  0.00  0.00    +0.027 C 
ATOM     16  C   UNL     1      -3.714  -2.667  24.322  0.00  0.00    +0.019 C 
ATOM     17  C   UNL     1      -2.970  -2.500  24.638  0.00  0.00    +0.072 C 
ATOM     18  N   UNL     1      -2.878  -1.681  24.655  0.00  0.00    -0.268 NA
BRANCH  18  19
ATOM     19  C   UNL     1      -2.216  -1.272  24.929  0.00  0.00    +0.063 C 
ATOM     20  C   UNL     1      -1.597  -1.098  24.412  0.00  0.00    +0.048 C 
ATOM     21  C   UNL     1      -0.934  -0.689  24.686  0.00  0.00    +0.144 C 
ATOM     22  O   UNL     1      -0.892  -0.454  25.476  0.00  0.00    -0.354 OA
ATOM     23  C   UNL     1      -1.511  -0.628  25.992  0.00  0.00    +0.144 C 
ATOM     24  C   UNL     1      -2.173  -1.038  25.718  0.00  0.00    +0.048 C 
ENDBRANCH  18  19
ENDBRANCH  12  14
TORSDOF 4
ENDMDL
MODEL 2
REMARK VINA RESULT:     -10.1      1.498      4.455
REMARK  Name = 
REMARK  4 active torsions:
REMARK  status: ('A' for Active; 'I' for Inactive)
REMARK    1  A    between atoms: N_2  and  C_3
REMARK    2  A    between atoms: C_6  and  C_9
REMARK    3  A    between atoms: C_12  and  C_14
REMARK    4  A    between atoms: N_18  and  C_19
REMARK                            x       y       z     vdW  Elec       q    Type
REMARK                         _______ _______ _______ _____ _____    ______ ____
ROOT
ATOM      9  C   UNL     1      -3.784   0.722  24.416  0.00  0.00    +0.205 A 
ATOM     10  N   UNL     1      -3.722   1.184  23.736  0.00  0.00    -0.056 NA
ATOM     11  O   UNL     1      -4.077   1.912  23.888  0.00  0.00    -0.336 OA
ATOM     12  C   UNL     1      -4.359   1.900  24.664  0.00  0.00    +0.251 A 
ATOM     13  N   UNL     1      -4.177   1.165  24.989  0.00  0.00    -0.190 NA
ENDROOT
BRANCH   9   6
ATOM      3  C   UNL     1      -2.936  -1.588  24.689  0.00  0.00    +0.148 A 
ATOM      4  C   UNL     1      -3.706  -1.460  24.423  0.00  0.00    +0.036 A 
ATOM      5  C   UNL     1      -3.989  -0.690  24.332  0.00  0.00    +0.008 A 
ATOM      6  C   UNL     1      -3.501  -0.048  24.507  0.00  0.00    +0.058 A 
ATOM      7  C   UNL     1      -2.730  -0.176  24.774  0.00  0.00    +0.103 A 
ATOM      8  N   UNL     1      -2.448  -0.946  24.865  0.00  0.00    -0.228 NA
BRANCH   3   2
ATOM      1  C   UNL     1      -1.940  -2.579  24.431  0.00  0.00    +0.137 C 
ATOM      2  N   UNL     1      -2.654  -2.357  24.781  0.00  0.00    -0.218 NA
ENDBRANCH   3   2
ENDBRANCH   9   6
BRANCH  12  14
ATOM     14  C   UNL     1      -4.753   2.517  25.045  0.00  0.00    +0.138 C 
ATOM     15  C   UNL     1      -5.558   2.544  25.219  0.00  0.00    +0.027 C 
ATOM     16  C   UNL     1      -5.712   3.260  25.601  0.00  0.00    +0.019 C 
ATOM     17  C   UNL     1      -5.001   3.673  25.663  0.00  0.00    +0.072 C 
ATOM     18  N   UNL     1      -4.408   3.215  25.320  0.00  0.00    -0.268 NA
BRANCH  18  19
ATOM     19  C   UNL     1      -3.610   3.417  25.261  0.00  0.00    +0.063 C 
ATOM     20  C   UNL     1      -3.097   3.252  25.886  0.00  0.00    +0.048 C 
ATOM     21  C   UNL     1      -2.299   3.454  25.828  0.00  0.00    +0.144 C 
ATOM     22  O   UNL     1      -2.015   3.821  25.145  0.00  0.00    -0.354 OA
ATOM     23  C   UNL     1      -2.528   3.985  24.521  0.00  0.00    +0.144 C 
ATOM     24  C   UNL     1      -3.326   3.783  24.579  0.00  0.00    +0.048 C 
ENDBRANCH  18  19
ENDBRANCH  12  14
TORSDOF 4
ENDMDL
MODEL 3
REMARK VINA RESULT:     -10.1      1.964      4.702
REMARK  Name = 
REMARK  4 active torsions:
REMARK  status: ('A' for Active; 'I' for Inactive)
REMARK    1  A    between atoms: N_2  and  C_3
REMARK    2  A    between atoms: C_6  and  C_9
REMARK    3  A    between atoms: C_12  and  C_14
REMARK    4  A    between atoms: N_18  and  C_19
REMARK                            x       y       z     vdW  Elec       q    Type
REMARK                         _______ _______ _______ _____ _____    ______ ____
ROOT
ATOM      9  C   UNL     1      -2.652   0.911  24.473  0.00  0.00    +0.205 A 
ATOM     10  N   UNL     1      -2.664   1.248  23.721  0.00  0.00    -0.056 NA
ATOM     11  O   UNL     1      -2.401   2.026  23.785  0.00  0.00    -0.336 OA
ATOM     12  C   UNL     1      -2.226   2.171  24.579  0.00  0.00    +0.251 A 
ATOM     13  N   UNL     1      -2.381   1.482  25.003  0.00  0.00    -0.190 NA
ENDROOT
BRANCH   9   6
ATOM      3  C   UNL     1      -3.312  -1.406  25.041  0.00  0.00    +0.148 A 
ATOM      4  C   UNL     1      -3.883  -0.861  24.804  0.00  0.00    +0.036 A 
ATOM      5  C   UNL     1      -3.663  -0.089  24.615  0.00  0.00    +0.008 A 
ATOM      6  C   UNL     1      -2.872   0.139  24.663  0.00  0.00    +0.058 A 
ATOM      7  C   UNL     1      -2.300  -0.407  24.901  0.00  0.00    +0.103 A 
ATOM      8  N   UNL     1      -2.520  -1.179  25.090  0.00  0.00    -0.228 NA
BRANCH   3   2
ATOM      1  C   UNL     1      -3.526  -2.764  24.648  0.00  0.00    +0.137 C 
ATOM      2  N   UNL     1      -3.531  -2.178  25.231  0.00  0.00    -0.218 NA
ENDBRANCH   3   2
ENDBRANCH   9   6
BRANCH  12  14
ATOM     14  C   UNL     1      -1.945   2.881  24.891  0.00  0.00    +0.138 C 
ATOM     15  C   UNL     1      -1.155   3.075  25.022  0.00  0.00    +0.027 C 
ATOM     16  C   UNL     1      -1.128   3.836  25.339  0.00  0.00    +0.019 C 
ATOM     17  C   UNL     1      -1.902   4.113  25.404  0.00  0.00    +0.072 C 
ATOM     18  N   UNL     1      -2.408   3.524  25.127  0.00  0.00    -0.268 NA
BRANCH  18  19
ATOM     19  C   UNL     1      -3.231   3.566  25.092  0.00  0.00    +0.063 C 
ATOM     20  C   UNL     1      -3.682   3.378  25.757  0.00  0.00    +0.048 C 
ATOM     21  C   UNL     1      -4.505   3.421  25.723  0.00  0.00    +0.144 C 
ATOM     22  O   UNL     1      -4.878   3.651  25.023  0.00  0.00    -0.354 OA
ATOM     23  C   UNL     1      -4.427   3.838  24.358  0.00  0.00    +0.144 C 
ATOM     24  C   UNL     1      -3.603   3.796  24.393  0.00  0.00    +0.048 C 
ENDBRANCH  18  19
ENDBRANCH  12  14
TORSDOF 4
ENDMDL
MODEL 4
REMARK VINA RESULT:     -10.1      2.010      4.229
REMARK  Name = 
REMARK  4 active torsions:
REMARK  status: ('A' for Active; 'I' for Inactive)
REMARK    1  A    between atoms: N_2  and  C_3
REMARK    2  A    between atoms: C_6  and  C_9
REMARK    3  A    between atoms: C_12  and  C_14
REMARK    4  A    between atoms: N_18  and  C_19
REMARK                            x       y       z     vdW  Elec       q    Type
REMARK                         _______ _______ _______ _____ _____    ______ ____
ROOT
ATOM      9  C   UNL     1      -3.056   0.861  24.415  0.00  0.00    +0.205 A 
ATOM     10  N   UNL     1      -2.890   1.236  23.699  0.00  0.00    -0.056 NA
ATOM     11  O   UNL     1      -2.774   2.037  23.850  0.00  0.00    -0.336 OA
ATOM     12  C   UNL     1      -2.868   2.159  24.662  0.00  0.00    +0.251 A 
ATOM     13  N   UNL     1      -3.042   1.433  25.009  0.00  0.00    -0.190 NA
ENDROOT
BRANCH   9   6
ATOM      3  C   UNL     1      -3.514  -1.551  24.724  0.00  0.00    +0.148 A 
ATOM      4  C   UNL     1      -4.133  -1.031  24.564  0.00  0.00    +0.036 A 
ATOM      5  C   UNL     1      -3.981  -0.227  24.460  0.00  0.00    +0.008 A 
ATOM      6  C   UNL     1      -3.208   0.057  24.518  0.00  0.00    +0.058 A 
ATOM      7  C   UNL     1      -2.588  -0.464  24.678  0.00  0.00    +0.103 A 
ATOM      8  N   UNL     1      -2.741  -1.268  24.781  0.00  0.00    -0.228 NA
BRANCH   3   2
ATOM      1  C   UNL     1      -3.667  -2.862  24.175  0.00  0.00    +0.137 C 
ATOM      2  N   UNL     1      -3.666  -2.355  24.827  0.00  0.00    -0.218 NA
ENDBRANCH   3   2
ENDBRANCH   9   6
BRANCH  12  14
ATOM     14  C   UNL     1      -2.799   2.882  25.054  0.00  0.00    +0.138 C 
ATOM     15  C   UNL     1      -3.420   3.386  25.255  0.00  0.00    +0.027 C 
ATOM     16  C   UNL     1      -3.100   4.043  25.639  0.00  0.00    +0.019 C 
ATOM     17  C   UNL     1      -2.282   3.944  25.675  0.00  0.00    +0.072 C 
ATOM     18  N   UNL     1      -2.095   3.227  25.314  0.00  0.00    -0.268 NA
BRANCH  18  19
ATOM     19  C   UNL     1      -1.339   2.909  25.227  0.00  0.00    +0.063 C 
ATOM     20  C   UNL     1      -1.003   2.473  25.842  0.00  0.00    +0.048 C 
ATOM     21  C   UNL     1      -0.246   2.154  25.756  0.00  0.00    +0.144 C 
ATOM     22  O   UNL     1       0.173   2.272  25.055  0.00  0.00    -0.354 OA
ATOM     23  C   UNL     1      -0.163   2.708  24.441  0.00  0.00    +0.144 C 
ATOM     24  C   UNL     1      -0.920   3.026  24.527  0.00  0.00    +0.048 C 
ENDBRANCH  18  19
ENDBRANCH  12  14
TORSDOF 4
ENDMDL
MODEL 5
REMARK VINA RESULT:      -9.8      1.763      2.280
REMARK  Name = 
REMARK  4 active torsions:
REMARK  status: ('A' for Active; 'I' for Inactive)
REMARK    1  A    between atoms: N_2  and  C_3
REMARK    2  A    between atoms: C_6  and  C_9
REMARK    3  A    between atoms: C_12  and  C_14
REMARK    4  A    between atoms: N_18  and  C_19
REMARK                            x       y       z     vdW  Elec       q    Type
REMARK                         _______ _______ _______ _____ _____    ______ ____
ROOT
ATOM      9  C   UNL     1      -2.503   1.775  24.312  0.00  0.00    +0.205 A 
ATOM     10  N   UNL     1      -2.230   1.474  23.594  0.00  0.00    -0.056 NA
ATOM     11  O   UNL     1      -2.503   0.700  23.522  0.00  0.00    -0.336 OA
ATOM     12  C   UNL     1      -2.945   0.521  24.197  0.00  0.00    +0.251 A 
ATOM     13  N   UNL     1      -2.945   1.186  24.684  0.00  0.00    -0.190 NA
ENDROOT
BRANCH   9   6
ATOM      3  C   UNL     1      -2.073   4.047  25.195  0.00  0.00    +0.148 A 
ATOM      4  C   UNL     1      -1.471   3.483  25.197  0.00  0.00    +0.036 A 
ATOM      5  C   UNL     1      -1.615   2.726  24.903  0.00  0.00    +0.008 A 
ATOM      6  C   UNL     1      -2.360   2.532  24.606  0.00  0.00    +0.058 A 
ATOM      7  C   UNL     1      -2.962   3.097  24.604  0.00  0.00    +0.103 A 
ATOM      8  N   UNL     1      -2.819   3.855  24.899  0.00  0.00    -0.228 NA
BRANCH   3   2
ATOM      1  C   UNL     1      -1.363   5.287  25.130  0.00  0.00    +0.137 C 
ATOM      2  N   UNL     1      -1.929   4.804  25.489  0.00  0.00    -0.218 NA
ENDBRANCH   3   2
ENDBRANCH   9   6
BRANCH  12  14
ATOM     14  C   UNL     1      -3.320  -0.196  24.353  0.00  0.00    +0.138 C 
ATOM     15  C   UNL     1      -4.105  -0.382  24.180  0.00  0.00    +0.027 C 
ATOM     16  C   UNL     1      -4.245  -1.156  24.431  0.00  0.00    +0.019 C 
ATOM     17  C   UNL     1      -3.547  -1.447  24.760  0.00  0.00    +0.072 C 
ATOM     18  N   UNL     1      -2.975  -0.855  24.712  0.00  0.00    -0.268 NA
BRANCH  18  19
ATOM     19  C   UNL     1      -2.196  -0.910  24.976  0.00  0.00    +0.063 C 
ATOM     20  C   UNL     1      -2.012  -0.718  25.758  0.00  0.00    +0.048 C 
ATOM     21  C   UNL     1      -1.232  -0.773  26.023  0.00  0.00    +0.144 C 
ATOM     22  O   UNL     1      -0.637  -1.019  25.506  0.00  0.00    -0.354 OA
ATOM     23  C   UNL     1      -0.821  -1.210  24.726  0.00  0.00    +0.144 C 
ATOM     24  C   UNL     1      -1.601  -1.156  24.461  0.00  0.00    +0.048 C 
ENDBRANCH  18  19
ENDBRANCH  12  14
TORSDOF 4
ENDMDL
