MODEL 1
REMARK VINA RESULT:      -8.1      0.000      0.000
REMARK  Name = 
REMARK  8 active torsions:
REMARK  status: ('A' for Active; 'I' for Inactive)
REMARK    1  A    between atoms: C_2  and  C_4
REMARK    2  A    between atoms: C_6  and  C_7
REMARK    3  A    between atoms: C_7  and  C_8
REMARK    4  A    between atoms: C_22  and  C_23
REMARK    5  A    between atoms: C_23  and  N_24
REMARK    6  A    between atoms: N_24  and  S_25
REMARK    7  A    between atoms: S_25  and  C_28
REMARK    8  A    between atoms: C_31  and  N_32
REMARK                            x       y       z     vdW  Elec       q    Type
REMARK                         _______ _______ _______ _____ _____    ______ ____
ROOT
ATOM      4  C   UNL     1      -1.049   0.665  24.404  0.00  0.00    +0.006 C 
ATOM      5  C   UNL     1      -1.825   0.940  24.446  0.00  0.00    +0.005 C 
ATOM      6  C   UNL     1      -2.145   1.368  23.817  0.00  0.00    +0.027 C 
ATOM     19  C   UNL     1      -1.689   1.521  23.147  0.00  0.00    -0.048 C 
ATOM     20  C   UNL     1      -2.009   1.949  22.518  0.00  0.00    +0.026 C 
ATOM     21  C   UNL     1      -0.913   1.245  23.106  0.00  0.00    -0.033 C 
ATOM     22  C   UNL     1      -0.593   0.817  23.734  0.00  0.00    +0.041 C 
ENDROOT
BRANCH   4   2
ATOM      1  C   UNL     1      -0.425   0.633  25.689  0.00  0.00    +0.000 C 
ATOM      2  C   UNL     1      -0.729   0.237  25.032  0.00  0.00    +0.000 C 
ATOM      3  C   UNL     1      -0.713  -0.587  25.005  0.00  0.00    +0.000 C 
ENDBRANCH   4   2
BRANCH   6   7
ATOM      7  C   UNL     1      -2.922   1.644  23.858  0.00  0.00    +0.089 C 
BRANCH   7   8
ATOM      8  C   UNL     1      -3.521   1.151  24.140  0.00  0.00    +0.226 C 
ATOM      9  O   UNL     1      -3.515   0.347  23.953  0.00  0.00    -0.275 OA
ATOM     10  N   UNL     1      -4.125   1.461  24.608  0.00  0.00    -0.276 N 
ATOM     11  C   UNL     1      -4.130   2.265  24.795  0.00  0.00    +0.115 C 
ATOM     12  C   UNL     1      -4.734   2.575  25.263  0.00  0.00    +0.115 C 
ATOM     13  N   UNL     1      -5.333   2.082  25.545  0.00  0.00    -0.276 N 
ATOM     14  C   UNL     1      -5.327   1.279  25.358  0.00  0.00    +0.115 C 
ATOM     15  C   UNL     1      -4.723   0.968  24.890  0.00  0.00    +0.115 C 
ATOM     16  C   UNL     1      -5.937   2.393  26.013  0.00  0.00    +0.226 C 
ATOM     17  C   UNL     1      -6.535   1.900  26.295  0.00  0.00    +0.095 C 
ATOM     18  O   UNL     1      -5.943   3.196  26.200  0.00  0.00    -0.275 OA
ENDBRANCH   7   8
ENDBRANCH   6   7
BRANCH  22  23
ATOM     23  C   UNL     1       0.184   0.542  23.692  0.00  0.00    +0.120 C 
BRANCH  23  24
ATOM     24  N   UNL     1       0.598   0.580  22.980  0.00  0.00    -0.077 NA
BRANCH  24  25
ATOM     25  S   UNL     1       1.414   0.461  22.970  0.00  0.00    +0.077 S 
ATOM     26  O   UNL     1       1.525   1.196  23.327  0.00  0.00    -0.152 OA
ATOM     27  O   UNL     1       1.302  -0.274  22.612  0.00  0.00    -0.152 OA
BRANCH  25  28
ATOM     28  C   UNL     1       2.230   0.341  22.959  0.00  0.00    +0.124 A 
ATOM     29  C   UNL     1       2.540  -0.405  23.125  0.00  0.00    +0.021 A 
ATOM     30  C   UNL     1       3.356  -0.524  23.115  0.00  0.00    +0.018 A 
ATOM     31  C   UNL     1       3.863   0.104  22.939  0.00  0.00    +0.073 A 
ATOM     36  C   UNL     1       3.553   0.849  22.773  0.00  0.00    +0.018 A 
ATOM     37  C   UNL     1       2.737   0.969  22.783  0.00  0.00    +0.021 A 
BRANCH  31  32
ATOM     32  N   UNL     1       4.679  -0.016  22.928  0.00  0.00    -0.179 NA
ATOM     33  C   UNL     1       5.132   0.178  23.590  0.00  0.00    +0.246 C 
ATOM     34  C   UNL     1       5.948   0.059  23.581  0.00  0.00    +0.097 C 
ATOM     35  O   UNL     1       4.769   0.492  24.262  0.00  0.00    -0.273 OA
ENDBRANCH  31  32
ENDBRANCH  25  28
ENDBRANCH  24  25
ENDBRANCH  23  24
ENDBRANCH  22  23
TORSDOF 8
ENDMDL
MODEL 2
REMARK VINA RESULT:      -7.4      1.281      7.435
REMARK  Name = 
REMARK  8 active torsions:
REMARK  status: ('A' for Active; 'I' for Inactive)
REMARK    1  A    between atoms: C_2  and  C_4
REMARK    2  A    between atoms: C_6  and  C_7
REMARK    3  A    between atoms: C_7  and  C_8
REMARK    4  A    between atoms: C_22  and  C_23
REMARK    5  A    between atoms: C_23  and  N_24
REMARK    6  A    between atoms: N_24  and  S_25
REMARK    7  A    between atoms: S_25  and  C_28
REMARK    8  A    between atoms: C_31  and  N_32
REMARK                            x       y       z     vdW  Elec       q    Type
REMARK                         _______ _______ _______ _____ _____    ______ ____
ROOT
ATOM      4  C   UNL     1       0.242   1.271  24.051  0.00  0.00    +0.006 C 
ATOM      5  C   UNL     1       0.973   0.960  23.832  0.00  0.00    +0.005 C 
ATOM      6  C   UNL     1       1.010   0.290  23.352  0.00  0.00    +0.027 C 
ATOM     19  C   UNL     1       0.314  -0.069  23.091  0.00  0.00    -0.048 C 
ATOM     20  C   UNL     1       0.350  -0.739  22.611  0.00  0.00    +0.026 C 
ATOM     21  C   UNL     1      -0.417   0.243  23.311  0.00  0.00    -0.033 C 
ATOM     22  C   UNL     1      -0.453   0.913  23.791  0.00  0.00    +0.041 C 
ENDROOT
BRANCH   4   2
ATOM      1  C   UNL     1       0.163   2.691  24.191  0.00  0.00    +0.000 C 
ATOM      2  C   UNL     1       0.206   1.941  24.531  0.00  0.00    +0.000 C 
ATOM      3  C   UNL     1       0.213   1.861  25.352  0.00  0.00    +0.000 C 
ENDBRANCH   4   2
BRANCH   6   7
ATOM      7  C   UNL     1       1.742  -0.022  23.133  0.00  0.00    +0.089 C 
BRANCH   7   8
ATOM      8  C   UNL     1       2.355   0.483  22.907  0.00  0.00    +0.226 C 
ATOM      9  O   UNL     1       2.184   1.191  22.519  0.00  0.00    -0.275 OA
ATOM     10  N   UNL     1       3.137   0.280  23.070  0.00  0.00    -0.276 N 
ATOM     11  C   UNL     1       3.308  -0.428  23.459  0.00  0.00    +0.115 C 
ATOM     12  C   UNL     1       4.090  -0.631  23.621  0.00  0.00    +0.115 C 
ATOM     13  N   UNL     1       4.703  -0.126  23.396  0.00  0.00    -0.276 N 
ATOM     14  C   UNL     1       4.533   0.581  23.008  0.00  0.00    +0.115 C 
ATOM     15  C   UNL     1       3.750   0.785  22.845  0.00  0.00    +0.115 C 
ATOM     16  C   UNL     1       5.486  -0.330  23.560  0.00  0.00    +0.226 C 
ATOM     17  C   UNL     1       6.098   0.174  23.334  0.00  0.00    +0.095 C 
ATOM     18  O   UNL     1       5.656  -1.038  23.947  0.00  0.00    -0.275 OA
ENDBRANCH   7   8
ENDBRANCH   6   7
BRANCH  22  23
ATOM     23  C   UNL     1      -1.185   1.224  24.010  0.00  0.00    +0.120 C 
BRANCH  23  24
ATOM     24  N   UNL     1      -1.882   0.870  23.743  0.00  0.00    -0.077 NA
BRANCH  24  25
ATOM     25  S   UNL     1      -2.613   1.168  23.979  0.00  0.00    +0.077 S 
ATOM     26  O   UNL     1      -2.585   0.698  24.656  0.00  0.00    -0.152 OA
ATOM     27  O   UNL     1      -2.641   1.638  23.303  0.00  0.00    -0.152 OA
BRANCH  25  28
ATOM     28  C   UNL     1      -3.344   1.466  24.216  0.00  0.00    +0.124 A 
ATOM     29  C   UNL     1      -3.841   1.011  24.694  0.00  0.00    +0.021 A 
ATOM     30  C   UNL     1      -4.572   1.309  24.930  0.00  0.00    +0.018 A 
ATOM     31  C   UNL     1      -4.809   2.063  24.689  0.00  0.00    +0.073 A 
ATOM     36  C   UNL     1      -4.313   2.517  24.212  0.00  0.00    +0.018 A 
ATOM     37  C   UNL     1      -3.581   2.220  23.975  0.00  0.00    +0.021 A 
BRANCH  31  32
ATOM     32  N   UNL     1      -5.541   2.361  24.926  0.00  0.00    -0.179 NA
ATOM     33  C   UNL     1      -5.589   2.866  25.577  0.00  0.00    +0.246 C 
ATOM     34  C   UNL     1      -6.320   3.164  25.815  0.00  0.00    +0.097 C 
ATOM     35  O   UNL     1      -4.905   3.073  25.991  0.00  0.00    -0.273 OA
ENDBRANCH  31  32
ENDBRANCH  25  28
ENDBRANCH  24  25
ENDBRANCH  23  24
ENDBRANCH  22  23
TORSDOF 8
ENDMDL
MODEL 3
REMARK VINA RESULT:      -4.9     15.009     15.667
REMARK  Name = 
REMARK  8 active torsions:
REMARK  status: ('A' for Active; 'I' for Inactive)
REMARK    1  A    between atoms: C_2  and  C_4
REMARK    2  A    between atoms: C_6  and  C_7
REMARK    3  A    between atoms: C_7  and  C_8
REMARK    4  A    between atoms: C_22  and  C_23
REMARK    5  A    between atoms: C_23  and  N_24
REMARK    6  A    between atoms: N_24  and  S_25
REMARK    7  A    between atoms: S_25  and  C_28
REMARK    8  A    between atoms: C_31  and  N_32
REMARK                            x       y       z     vdW  Elec       q    Type
REMARK                         _______ _______ _______ _____ _____    ______ ____
ROOT
ATOM      4  C   UNL     1      -6.037 -10.132  13.562  0.00  0.00    +0.006 C 
ATOM      5  C   UNL     1      -6.584 -10.164  14.178  0.00  0.00    +0.005 C 
ATOM      6  C   UNL     1      -6.339 -10.381  14.936  0.00  0.00    +0.027 C 
ATOM     19  C   UNL     1      -5.548 -10.565  15.077  0.00  0.00    -0.048 C 
ATOM     20  C   UNL     1      -5.303 -10.781  15.835  0.00  0.00    +0.026 C 
ATOM     21  C   UNL     1      -5.001 -10.532  14.461  0.00  0.00    -0.033 C 
ATOM     22  C   UNL     1      -5.246 -10.316  13.703  0.00  0.00    +0.041 C 
ENDROOT
BRANCH   4   2
ATOM      1  C   UNL     1      -6.692 -10.454  12.334  0.00  0.00    +0.000 C 
ATOM      2  C   UNL     1      -6.281  -9.916  12.805  0.00  0.00    +0.000 C 
ATOM      3  C   UNL     1      -6.116  -9.160  12.517  0.00  0.00    +0.000 C 
ENDBRANCH   4   2
BRANCH   6   7
ATOM      7  C   UNL     1      -6.887 -10.413  15.553  0.00  0.00    +0.089 C 
BRANCH   7   8
ATOM      8  C   UNL     1      -7.234  -9.719  15.833  0.00  0.00    +0.226 C 
ATOM      9  O   UNL     1      -6.815  -9.008  15.808  0.00  0.00    -0.275 OA
ATOM     10  N   UNL     1      -8.000  -9.735  16.140  0.00  0.00    -0.276 N 
ATOM     11  C   UNL     1      -8.419 -10.446  16.165  0.00  0.00    +0.115 C 
ATOM     12  C   UNL     1      -9.184 -10.462  16.471  0.00  0.00    +0.115 C 
ATOM     13  N   UNL     1      -9.532  -9.768  16.752  0.00  0.00    -0.276 N 
ATOM     14  C   UNL     1      -9.113  -9.058  16.726  0.00  0.00    +0.115 C 
ATOM     15  C   UNL     1      -8.347  -9.041  16.420  0.00  0.00    +0.115 C 
ATOM     16  C   UNL     1     -10.298  -9.785  17.058  0.00  0.00    +0.226 C 
ATOM     17  C   UNL     1     -10.645  -9.091  17.338  0.00  0.00    +0.095 C 
ATOM     18  O   UNL     1     -10.716 -10.495  17.083  0.00  0.00    -0.275 OA
ENDBRANCH   7   8
ENDBRANCH   6   7
BRANCH  22  23
ATOM     23  C   UNL     1      -4.698 -10.284  13.087  0.00  0.00    +0.120 C 
BRANCH  23  24
ATOM     24  N   UNL     1      -4.003 -10.728  13.127  0.00  0.00    -0.077 NA
BRANCH  24  25
ATOM     25  S   UNL     1      -3.338 -10.493  12.701  0.00  0.00    +0.077 S 
ATOM     26  O   UNL     1      -2.997 -10.205  13.395  0.00  0.00    -0.152 OA
ATOM     27  O   UNL     1      -3.680 -10.780  12.008  0.00  0.00    -0.152 OA
BRANCH  25  28
ATOM     28  C   UNL     1      -2.672 -10.257  12.275  0.00  0.00    +0.124 A 
ATOM     29  C   UNL     1      -2.754  -9.971  11.505  0.00  0.00    +0.021 A 
ATOM     30  C   UNL     1      -2.088  -9.736  11.080  0.00  0.00    +0.018 A 
ATOM     31  C   UNL     1      -1.339  -9.787  11.424  0.00  0.00    +0.073 A 
ATOM     36  C   UNL     1      -1.257 -10.072  12.193  0.00  0.00    +0.018 A 
ATOM     37  C   UNL     1      -1.923 -10.308  12.619  0.00  0.00    +0.021 A 
BRANCH  31  32
ATOM     32  N   UNL     1      -0.673  -9.551  10.997  0.00  0.00    -0.179 NA
ATOM     33  C   UNL     1      -0.263  -8.869  11.216  0.00  0.00    +0.246 C 
ATOM     34  C   UNL     1       0.402  -8.633  10.791  0.00  0.00    +0.097 C 
ATOM     35  O   UNL     1      -0.520  -8.423  11.862  0.00  0.00    -0.273 OA
ENDBRANCH  31  32
ENDBRANCH  25  28
ENDBRANCH  24  25
ENDBRANCH  23  24
ENDBRANCH  22  23
TORSDOF 8
ENDMDL
MODEL 4
REMARK VINA RESULT:      -4.5     16.302     18.014
REMARK  Name = 
REMARK  8 active torsions:
REMARK  status: ('A' for Active; 'I' for Inactive)
REMARK    1  A    between atoms: C_2  and  C_4
REMARK    2  A    between atoms: C_6  and  C_7
REMARK    3  A    between atoms: C_7  and  C_8
REMARK    4  A    between atoms: C_22  and  C_23
REMARK    5  A    between atoms: C_23  and  N_24
REMARK    6  A    between atoms: N_24  and  S_25
REMARK    7  A    between atoms: S_25  and  C_28
REMARK    8  A    between atoms: C_31  and  N_32
REMARK                            x       y       z     vdW  Elec       q    Type
REMARK                         _______ _______ _______ _____ _____    ______ ____
ROOT
ATOM      4  C   UNL     1      -5.923  -9.757  12.364  0.00  0.00    +0.006 C 
ATOM      5  C   UNL     1      -5.294 -10.071  12.795  0.00  0.00    +0.005 C 
ATOM      6  C   UNL     1      -4.575 -10.227  12.421  0.00  0.00    +0.027 C 
ATOM     19  C   UNL     1      -4.485 -10.069  11.617  0.00  0.00    -0.048 C 
ATOM     20  C   UNL     1      -3.766 -10.225  11.243  0.00  0.00    +0.026 C 
ATOM     21  C   UNL     1      -5.114  -9.755  11.186  0.00  0.00    -0.033 C 
ATOM     22  C   UNL     1      -5.833  -9.599  11.560  0.00  0.00    +0.041 C 
ENDROOT
BRANCH   4   2
ATOM      1  C   UNL     1      -6.896  -8.823  12.835  0.00  0.00    +0.000 C 
ATOM      2  C   UNL     1      -6.641  -9.601  12.738  0.00  0.00    +0.000 C 
ATOM      3  C   UNL     1      -7.107 -10.224  13.014  0.00  0.00    +0.000 C 
ENDBRANCH   4   2
BRANCH   6   7
ATOM      7  C   UNL     1      -3.945 -10.542  12.853  0.00  0.00    +0.089 C 
BRANCH   7   8
ATOM      8  C   UNL     1      -3.998 -10.606  13.673  0.00  0.00    +0.226 C 
ATOM      9  O   UNL     1      -4.731 -10.737  14.031  0.00  0.00    -0.275 OA
ATOM     10  N   UNL     1      -3.320 -10.540  14.138  0.00  0.00    -0.276 N 
ATOM     11  C   UNL     1      -2.587 -10.410  13.780  0.00  0.00    +0.115 C 
ATOM     12  C   UNL     1      -1.908 -10.344  14.244  0.00  0.00    +0.115 C 
ATOM     13  N   UNL     1      -1.962 -10.408  15.065  0.00  0.00    -0.276 N 
ATOM     14  C   UNL     1      -2.693 -10.538  15.422  0.00  0.00    +0.115 C 
ATOM     15  C   UNL     1      -3.373 -10.605  14.958  0.00  0.00    +0.115 C 
ATOM     16  C   UNL     1      -1.282 -10.342  15.528  0.00  0.00    +0.226 C 
ATOM     17  C   UNL     1      -1.335 -10.406  16.349  0.00  0.00    +0.095 C 
ATOM     18  O   UNL     1      -0.550 -10.212  15.172  0.00  0.00    -0.275 OA
ENDBRANCH   7   8
ENDBRANCH   6   7
BRANCH  22  23
ATOM     23  C   UNL     1      -6.462  -9.284  11.128  0.00  0.00    +0.120 C 
BRANCH  23  24
ATOM     24  N   UNL     1      -6.418  -9.240  10.305  0.00  0.00    -0.077 NA
BRANCH  24  25
ATOM     25  S   UNL     1      -7.025  -8.881   9.878  0.00  0.00    +0.077 S 
ATOM     26  O   UNL     1      -6.793  -8.145  10.168  0.00  0.00    -0.152 OA
ATOM     27  O   UNL     1      -7.257  -9.618   9.589  0.00  0.00    -0.152 OA
BRANCH  25  28
ATOM     28  C   UNL     1      -7.632  -8.523   9.451  0.00  0.00    +0.124 A 
ATOM     29  C   UNL     1      -8.420  -8.691   9.631  0.00  0.00    +0.021 A 
ATOM     30  C   UNL     1      -9.027  -8.333   9.203  0.00  0.00    +0.018 A 
ATOM     31  C   UNL     1      -8.847  -7.804   8.595  0.00  0.00    +0.073 A 
ATOM     36  C   UNL     1      -8.060  -7.636   8.414  0.00  0.00    +0.018 A 
ATOM     37  C   UNL     1      -7.452  -7.995   8.842  0.00  0.00    +0.021 A 
BRANCH  31  32
ATOM     32  N   UNL     1      -9.455  -7.446   8.167  0.00  0.00    -0.179 NA
ATOM     33  C   UNL     1      -9.992  -6.952   8.551  0.00  0.00    +0.246 C 
ATOM     34  C   UNL     1     -10.600  -6.593   8.125  0.00  0.00    +0.097 C 
ATOM     35  O   UNL     1      -9.922  -6.816   9.362  0.00  0.00    -0.273 OA
ENDBRANCH  31  32
ENDBRANCH  25  28
ENDBRANCH  24  25
ENDBRANCH  23  24
ENDBRANCH  22  23
TORSDOF 8
ENDMDL
