MODEL 1
REMARK VINA RESULT:     -12.4      0.000      0.000
REMARK  Name = 
REMARK  4 active torsions:
REMARK  status: ('A' for Active; 'I' for Inactive)
REMARK    1  A    between atoms: N_2  and  C_4
REMARK    2  A    between atoms: C_7  and  C_8
REMARK    3  A    between atoms: C_8  and  N_9
REMARK    4  A    between atoms: C_12  and  C_14
REMARK                            x       y       z     vdW  Elec       q    Type
REMARK                         _______ _______ _______ _____ _____    ______ ____
ROOT
ATOM      9  N   UNL     1      -4.310   1.186  24.951  0.00  0.00    -0.269 NA
ATOM     10  C   UNL     1      -4.645   1.612  24.329  0.00  0.00    +0.073 C 
ATOM     11  C   UNL     1      -4.187   2.287  24.207  0.00  0.00    +0.026 C 
ATOM     12  C   UNL     1      -3.569   2.279  24.754  0.00  0.00    +0.076 C 
ATOM     13  C   UNL     1      -3.645   1.598  25.213  0.00  0.00    +0.080 C 
ENDROOT
BRANCH  12  14
ATOM     14  C   UNL     1      -2.979   2.851  24.828  0.00  0.00    +0.140 A 
ATOM     15  N   UNL     1      -3.095   3.646  25.014  0.00  0.00    -0.229 NA
ATOM     16  C   UNL     1      -2.357   4.014  25.030  0.00  0.00    +0.102 A 
ATOM     17  C   UNL     1      -1.785   3.447  24.852  0.00  0.00    +0.100 A 
ATOM     18  N   UNL     1      -2.169   2.728  24.728  0.00  0.00    -0.229 NA
ATOM     19  C   UNL     1      -0.988   3.659  24.828  0.00  0.00    +0.023 A 
ATOM     20  C   UNL     1      -0.763   4.437  24.980  0.00  0.00    +0.031 A 
ATOM     21  C   UNL     1      -1.336   5.005  25.157  0.00  0.00    +0.142 A 
ATOM     22  F   UNL     1      -1.111   5.784  25.310  0.00  0.00    -0.204 F 
ATOM     23  C   UNL     1      -2.133   4.794  25.182  0.00  0.00    +0.050 A 
ENDBRANCH  12  14
BRANCH   9   8
ATOM      8  C   UNL     1      -4.590   0.473  25.257  0.00  0.00    +0.099 C 
BRANCH   8   7
ATOM      4  C   UNL     1      -3.432  -1.646  24.718  0.00  0.00    +0.048 A 
ATOM      5  C   UNL     1      -3.292  -1.272  25.440  0.00  0.00    +0.014 A 
ATOM      6  C   UNL     1      -3.678  -0.566  25.620  0.00  0.00    -0.002 A 
ATOM      7  C   UNL     1      -4.204  -0.234  25.077  0.00  0.00    -0.006 A 
ATOM     24  C   UNL     1      -4.343  -0.607  24.355  0.00  0.00    -0.002 A 
ATOM     25  C   UNL     1      -3.956  -1.314  24.176  0.00  0.00    +0.014 A 
BRANCH   4   2
ATOM      1  C   UNL     1      -2.220  -2.378  24.514  0.00  0.00    +0.112 C 
ATOM      2  N   UNL     1      -3.045  -2.353  24.539  0.00  0.00    -0.304 N 
ATOM      3  C   UNL     1      -3.482  -3.035  24.385  0.00  0.00    +0.112 C 
ENDBRANCH   4   2
ENDBRANCH   8   7
ENDBRANCH   9   8
TORSDOF 4
ENDMDL
MODEL 2
REMARK VINA RESULT:     -12.4      2.128      5.323
REMARK  Name = 
REMARK  4 active torsions:
REMARK  status: ('A' for Active; 'I' for Inactive)
REMARK    1  A    between atoms: N_2  and  C_4
REMARK    2  A    between atoms: C_7  and  C_8
REMARK    3  A    between atoms: C_8  and  N_9
REMARK    4  A    between atoms: C_12  and  C_14
REMARK                            x       y       z     vdW  Elec       q    Type
REMARK                         _______ _______ _______ _____ _____    ______ ____
ROOT
ATOM      9  N   UNL     1      -4.600   2.142  24.720  0.00  0.00    -0.269 NA
ATOM     10  C   UNL     1      -5.219   1.925  25.221  0.00  0.00    +0.073 C 
ATOM     11  C   UNL     1      -5.188   1.107  25.325  0.00  0.00    +0.026 C 
ATOM     12  C   UNL     1      -4.549   0.818  24.888  0.00  0.00    +0.076 C 
ATOM     13  C   UNL     1      -4.186   1.458  24.515  0.00  0.00    +0.080 C 
ENDROOT
BRANCH  12  14
ATOM     14  C   UNL     1      -4.315   0.029  24.835  0.00  0.00    +0.140 A 
ATOM     15  N   UNL     1      -4.473  -0.483  24.208  0.00  0.00    -0.229 NA
ATOM     16  C   UNL     1      -4.138  -1.215  24.385  0.00  0.00    +0.102 A 
ATOM     17  C   UNL     1      -3.773  -1.156  25.123  0.00  0.00    +0.100 A 
ATOM     18  N   UNL     1      -3.882  -0.388  25.401  0.00  0.00    -0.229 NA
ATOM     19  C   UNL     1      -3.388  -1.811  25.445  0.00  0.00    +0.023 A 
ATOM     20  C   UNL     1      -3.368  -2.524  25.031  0.00  0.00    +0.031 A 
ATOM     21  C   UNL     1      -3.733  -2.582  24.293  0.00  0.00    +0.142 A 
ATOM     22  F   UNL     1      -3.714  -3.295  23.878  0.00  0.00    -0.204 F 
ATOM     23  C   UNL     1      -4.118  -1.928  23.970  0.00  0.00    +0.050 A 
ENDBRANCH  12  14
BRANCH   9   8
ATOM      8  C   UNL     1      -4.425   2.907  24.469  0.00  0.00    +0.099 C 
BRANCH   8   7
ATOM      4  C   UNL     1      -2.246   3.931  25.041  0.00  0.00    +0.048 A 
ATOM      5  C   UNL     1      -2.342   3.542  24.320  0.00  0.00    +0.014 A 
ATOM      6  C   UNL     1      -3.068   3.201  24.129  0.00  0.00    -0.002 A 
ATOM      7  C   UNL     1      -3.699   3.249  24.660  0.00  0.00    -0.006 A 
ATOM     24  C   UNL     1      -3.603   3.638  25.381  0.00  0.00    -0.002 A 
ATOM     25  C   UNL     1      -2.876   3.979  25.572  0.00  0.00    +0.014 A 
BRANCH   4   2
ATOM      1  C   UNL     1      -1.416   5.089  25.164  0.00  0.00    +0.112 C 
ATOM      2  N   UNL     1      -1.519   4.273  25.232  0.00  0.00    -0.304 N 
ATOM      3  C   UNL     1      -0.896   3.799  25.490  0.00  0.00    +0.112 C 
ENDBRANCH   4   2
ENDBRANCH   8   7
ENDBRANCH   9   8
TORSDOF 4
ENDMDL
MODEL 3
REMARK VINA RESULT:     -11.4      1.520      2.168
REMARK  Name = 
REMARK  4 active torsions:
REMARK  status: ('A' for Active; 'I' for Inactive)
REMARK    1  A    between atoms: N_2  and  C_4
REMARK    2  A    between atoms: C_7  and  C_8
REMARK    3  A    between atoms: C_8  and  N_9
REMARK    4  A    between atoms: C_12  and  C_14
REMARK                            x       y       z     vdW  Elec       q    Type
REMARK                         _______ _______ _______ _____ _____    ______ ____
ROOT
ATOM      9  N   UNL     1      -1.024   0.175  25.369  0.00  0.00    -0.269 NA
ATOM     10  C   UNL     1      -0.471   0.293  24.768  0.00  0.00    +0.073 C 
ATOM     11  C   UNL     1      -0.438   1.102  24.607  0.00  0.00    +0.026 C 
ATOM     12  C   UNL     1      -0.971   1.483  25.109  0.00  0.00    +0.076 C 
ATOM     13  C   UNL     1      -1.333   0.911  25.579  0.00  0.00    +0.080 C 
ENDROOT
BRANCH  12  14
ATOM     14  C   UNL     1      -1.116   2.295  25.135  0.00  0.00    +0.140 A 
ATOM     15  N   UNL     1      -0.583   2.890  24.927  0.00  0.00    -0.229 NA
ATOM     16  C   UNL     1      -0.957   3.616  25.037  0.00  0.00    +0.102 A 
ATOM     17  C   UNL     1      -1.721   3.471  25.313  0.00  0.00    +0.100 A 
ATOM     18  N   UNL     1      -1.819   2.655  25.373  0.00  0.00    -0.229 NA
ATOM     19  C   UNL     1      -2.228   4.102  25.473  0.00  0.00    +0.023 A 
ATOM     20  C   UNL     1      -1.972   4.877  25.358  0.00  0.00    +0.031 A 
ATOM     21  C   UNL     1      -1.208   5.022  25.082  0.00  0.00    +0.142 A 
ATOM     22  F   UNL     1      -0.951   5.798  24.966  0.00  0.00    -0.204 F 
ATOM     23  C   UNL     1      -0.700   4.393  24.921  0.00  0.00    +0.050 A 
ENDBRANCH  12  14
BRANCH   9   8
ATOM      8  C   UNL     1      -1.232  -0.551  25.701  0.00  0.00    +0.099 C 
BRANCH   8   7
ATOM      4  C   UNL     1      -3.053  -1.894  24.700  0.00  0.00    +0.048 A 
ATOM      5  C   UNL     1      -3.227  -1.324  25.269  0.00  0.00    +0.014 A 
ATOM      6  C   UNL     1      -2.620  -0.875  25.603  0.00  0.00    -0.002 A 
ATOM      7  C   UNL     1      -1.839  -0.999  25.367  0.00  0.00    -0.006 A 
ATOM     24  C   UNL     1      -1.665  -1.569  24.797  0.00  0.00    -0.002 A 
ATOM     25  C   UNL     1      -2.273  -2.017  24.464  0.00  0.00    +0.014 A 
BRANCH   4   2
ATOM      1  C   UNL     1      -3.681  -3.160  24.479  0.00  0.00    +0.112 C 
ATOM      2  N   UNL     1      -3.661  -2.342  24.366  0.00  0.00    -0.304 N 
ATOM      3  C   UNL     1      -4.248  -1.973  23.920  0.00  0.00    +0.112 C 
ENDBRANCH   4   2
ENDBRANCH   8   7
ENDBRANCH   9   8
TORSDOF 4
ENDMDL
MODEL 4
REMARK VINA RESULT:     -11.1      2.440      5.710
REMARK  Name = 
REMARK  4 active torsions:
REMARK  status: ('A' for Active; 'I' for Inactive)
REMARK    1  A    between atoms: N_2  and  C_4
REMARK    2  A    between atoms: C_7  and  C_8
REMARK    3  A    between atoms: C_8  and  N_9
REMARK    4  A    between atoms: C_12  and  C_14
REMARK                            x       y       z     vdW  Elec       q    Type
REMARK                         _______ _______ _______ _____ _____    ______ ____
ROOT
ATOM      9  N   UNL     1      -0.636   1.099  25.246  0.00  0.00    -0.269 NA
ATOM     10  C   UNL     1      -0.242   0.816  24.579  0.00  0.00    +0.073 C 
ATOM     11  C   UNL     1      -0.684   0.194  24.267  0.00  0.00    +0.026 C 
ATOM     12  C   UNL     1      -1.353   0.093  24.741  0.00  0.00    +0.076 C 
ATOM     13  C   UNL     1      -1.323   0.652  25.346  0.00  0.00    +0.080 C 
ENDROOT
BRANCH  12  14
ATOM     14  C   UNL     1      -1.946  -0.469  24.629  0.00  0.00    +0.140 A 
ATOM     15  N   UNL     1      -2.690  -0.331  24.300  0.00  0.00    -0.229 NA
ATOM     16  C   UNL     1      -3.103  -1.044  24.294  0.00  0.00    +0.102 A 
ATOM     17  C   UNL     1      -2.614  -1.625  24.619  0.00  0.00    +0.100 A 
ATOM     18  N   UNL     1      -1.899  -1.270  24.826  0.00  0.00    -0.229 NA
ATOM     19  C   UNL     1      -2.884  -2.402  24.683  0.00  0.00    +0.023 A 
ATOM     20  C   UNL     1      -3.642  -2.598  24.424  0.00  0.00    +0.031 A 
ATOM     21  C   UNL     1      -4.130  -2.018  24.100  0.00  0.00    +0.142 A 
ATOM     22  F   UNL     1      -4.888  -2.214  23.840  0.00  0.00    -0.204 F 
ATOM     23  C   UNL     1      -3.861  -1.241  24.034  0.00  0.00    +0.050 A 
ENDBRANCH  12  14
BRANCH   9   8
ATOM      8  C   UNL     1      -0.388   1.720  25.729  0.00  0.00    +0.099 C 
BRANCH   8   7
ATOM      4  C   UNL     1      -1.207   4.018  25.310  0.00  0.00    +0.048 A 
ATOM      5  C   UNL     1      -1.612   3.525  25.833  0.00  0.00    +0.014 A 
ATOM      6  C   UNL     1      -1.340   2.759  25.973  0.00  0.00    -0.002 A 
ATOM      7  C   UNL     1      -0.661   2.486  25.589  0.00  0.00    -0.006 A 
ATOM     24  C   UNL     1      -0.256   2.980  25.067  0.00  0.00    -0.002 A 
ATOM     25  C   UNL     1      -0.530   3.746  24.927  0.00  0.00    +0.014 A 
BRANCH   4   2
ATOM      1  C   UNL     1      -2.276   4.968  25.298  0.00  0.00    +0.112 C 
ATOM      2  N   UNL     1      -1.481   4.784  25.171  0.00  0.00    -0.304 N 
ATOM      3  C   UNL     1      -0.961   5.365  24.904  0.00  0.00    +0.112 C 
ENDBRANCH   4   2
ENDBRANCH   8   7
ENDBRANCH   9   8
TORSDOF 4
ENDMDL
MODEL 5
REMARK VINA RESULT:     -10.0      2.417      5.289
REMARK  Name = 
REMARK  4 active torsions:
REMARK  status: ('A' for Active; 'I' for Inactive)
REMARK    1  A    between atoms: N_2  and  C_4
REMARK    2  A    between atoms: C_7  and  C_8
REMARK    3  A    between atoms: C_8  and  N_9
REMARK    4  A    between atoms: C_12  and  C_14
REMARK                            x       y       z     vdW  Elec       q    Type
REMARK                         _______ _______ _______ _____ _____    ______ ____
ROOT
ATOM      9  N   UNL     1      -1.986   1.910  24.792  0.00  0.00    -0.269 NA
ATOM     10  C   UNL     1      -1.315   1.711  25.228  0.00  0.00    +0.073 C 
ATOM     11  C   UNL     1      -1.291   0.889  25.298  0.00  0.00    +0.026 C 
ATOM     12  C   UNL     1      -1.948   0.580  24.905  0.00  0.00    +0.076 C 
ATOM     13  C   UNL     1      -2.377   1.211  24.592  0.00  0.00    +0.080 C 
ENDROOT
BRANCH  12  14
ATOM     14  C   UNL     1      -2.141  -0.219  24.837  0.00  0.00    +0.140 A 
ATOM     15  N   UNL     1      -2.888  -0.550  24.952  0.00  0.00    -0.229 NA
ATOM     16  C   UNL     1      -2.829  -1.362  24.828  0.00  0.00    +0.102 A 
ATOM     17  C   UNL     1      -2.045  -1.535  24.635  0.00  0.00    +0.100 A 
ATOM     18  N   UNL     1      -1.620  -0.829  24.640  0.00  0.00    -0.229 NA
ATOM     19  C   UNL     1      -1.821  -2.314  24.480  0.00  0.00    +0.023 A 
ATOM     20  C   UNL     1      -2.380  -2.919  24.517  0.00  0.00    +0.031 A 
ATOM     21  C   UNL     1      -3.163  -2.747  24.710  0.00  0.00    +0.142 A 
ATOM     22  F   UNL     1      -3.722  -3.352  24.747  0.00  0.00    -0.204 F 
ATOM     23  C   UNL     1      -3.388  -1.969  24.865  0.00  0.00    +0.050 A 
ENDBRANCH  12  14
BRANCH   9   8
ATOM      8  C   UNL     1      -2.225   2.673  24.590  0.00  0.00    +0.099 C 
BRANCH   8   7
ATOM      4  C   UNL     1      -4.472   3.480  25.241  0.00  0.00    +0.048 A 
ATOM      5  C   UNL     1      -3.840   3.556  25.764  0.00  0.00    +0.014 A 
ATOM      6  C   UNL     1      -3.090   3.287  25.548  0.00  0.00    -0.002 A 
ATOM      7  C   UNL     1      -2.974   2.942  24.807  0.00  0.00    -0.006 A 
ATOM     24  C   UNL     1      -3.607   2.866  24.284  0.00  0.00    -0.002 A 
ATOM     25  C   UNL     1      -4.357   3.135  24.501  0.00  0.00    +0.014 A 
BRANCH   4   2
ATOM      1  C   UNL     1      -5.797   3.212  25.708  0.00  0.00    +0.112 C 
ATOM      2  N   UNL     1      -5.222   3.749  25.458  0.00  0.00    -0.304 N 
ATOM      3  C   UNL     1      -5.396   4.554  25.426  0.00  0.00    +0.112 C 
ENDBRANCH   4   2
ENDBRANCH   8   7
ENDBRANCH   9   8
TORSDOF 4
ENDMDL
MODEL 6
REMARK VINA RESULT:     -10.0      2.024      2.950
REMARK  Name = 
REMARK  4 active torsions:
REMARK  status: ('A' for Active; 'I' for Inactive)
REMARK    1  A    between atoms: N_2  and  C_4
REMARK    2  A    between atoms: C_7  and  C_8
REMARK    3  A    between atoms: C_8  and  N_9
REMARK    4  A    between atoms: C_12  and  C_14
REMARK                            x       y       z     vdW  Elec       q    Type
REMARK                         _______ _______ _______ _____ _____    ______ ____
ROOT
ATOM      9  N   UNL     1      -3.953  -0.728  25.061  0.00  0.00    -0.269 NA
ATOM     10  C   UNL     1      -4.423  -0.738  24.383  0.00  0.00    +0.073 C 
ATOM     11  C   UNL     1      -4.730   0.020  24.274  0.00  0.00    +0.026 C 
ATOM     12  C   UNL     1      -4.450   0.499  24.885  0.00  0.00    +0.076 C 
ATOM     13  C   UNL     1      -3.970   0.037  25.371  0.00  0.00    +0.080 C 
ENDROOT
BRANCH  12  14
ATOM     14  C   UNL     1      -4.620   1.300  24.991  0.00  0.00    +0.140 A 
ATOM     15  N   UNL     1      -5.319   1.610  25.299  0.00  0.00    -0.229 NA
ATOM     16  C   UNL     1      -5.251   2.432  25.305  0.00  0.00    +0.102 A 
ATOM     17  C   UNL     1      -4.510   2.630  25.001  0.00  0.00    +0.100 A 
ATOM     18  N   UNL     1      -4.120   1.930  24.807  0.00  0.00    -0.229 NA
ATOM     19  C   UNL     1      -4.287   3.422  24.940  0.00  0.00    +0.023 A 
ATOM     20  C   UNL     1      -4.805   4.016  25.184  0.00  0.00    +0.031 A 
ATOM     21  C   UNL     1      -5.546   3.818  25.488  0.00  0.00    +0.142 A 
ATOM     22  F   UNL     1      -6.064   4.412  25.731  0.00  0.00    -0.204 F 
ATOM     23  C   UNL     1      -5.769   3.027  25.549  0.00  0.00    +0.050 A 
ENDBRANCH  12  14
BRANCH   9   8
ATOM      8  C   UNL     1      -3.540  -1.369  25.374  0.00  0.00    +0.099 C 
BRANCH   8   7
ATOM      4  C   UNL     1      -1.098  -1.560  25.019  0.00  0.00    +0.048 A 
ATOM      5  C   UNL     1      -1.619  -1.969  24.528  0.00  0.00    +0.014 A 
ATOM      6  C   UNL     1      -2.433  -1.906  24.647  0.00  0.00    -0.002 A 
ATOM      7  C   UNL     1      -2.725  -1.432  25.256  0.00  0.00    -0.006 A 
ATOM     24  C   UNL     1      -2.204  -1.023  25.747  0.00  0.00    -0.002 A 
ATOM     25  C   UNL     1      -1.390  -1.087  25.628  0.00  0.00    +0.014 A 
BRANCH   4   2
ATOM      1  C   UNL     1       0.148  -2.201  25.302  0.00  0.00    +0.112 C 
ATOM      2  N   UNL     1      -0.284  -1.624  24.900  0.00  0.00    -0.304 N 
ATOM      3  C   UNL     1       0.099  -1.111  24.380  0.00  0.00    +0.112 C 
ENDBRANCH   4   2
ENDBRANCH   8   7
ENDBRANCH   9   8
TORSDOF 4
ENDMDL
MODEL 7
REMARK VINA RESULT:      -9.5      2.563      4.023
REMARK  Name = 
REMARK  4 active torsions:
REMARK  status: ('A' for Active; 'I' for Inactive)
REMARK    1  A    between atoms: N_2  and  C_4
REMARK    2  A    between atoms: C_7  and  C_8
REMARK    3  A    between atoms: C_8  and  N_9
REMARK    4  A    between atoms: C_12  and  C_14
REMARK                            x       y       z     vdW  Elec       q    Type
REMARK                         _______ _______ _______ _____ _____    ______ ____
ROOT
ATOM      9  N   UNL     1      -1.328   3.166  25.388  0.00  0.00    -0.269 NA
ATOM     10  C   UNL     1      -1.510   3.966  25.305  0.00  0.00    +0.073 C 
ATOM     11  C   UNL     1      -2.331   4.039  25.268  0.00  0.00    +0.026 C 
ATOM     12  C   UNL     1      -2.656   3.282  25.328  0.00  0.00    +0.076 C 
ATOM     13  C   UNL     1      -2.036   2.743  25.401  0.00  0.00    +0.080 C 
ENDROOT
BRANCH  12  14
ATOM     14  C   UNL     1      -3.460   3.098  25.315  0.00  0.00    +0.140 A 
ATOM     15  N   UNL     1      -3.807   2.466  24.915  0.00  0.00    -0.229 NA
ATOM     16  C   UNL     1      -4.620   2.492  25.054  0.00  0.00    +0.102 A 
ATOM     17  C   UNL     1      -4.775   3.140  25.540  0.00  0.00    +0.100 A 
ATOM     18  N   UNL     1      -4.059   3.515  25.702  0.00  0.00    -0.229 NA
ATOM     19  C   UNL     1      -5.550   3.304  25.773  0.00  0.00    +0.023 A 
ATOM     20  C   UNL     1      -6.168   2.821  25.519  0.00  0.00    +0.031 A 
ATOM     21  C   UNL     1      -6.012   2.173  25.033  0.00  0.00    +0.142 A 
ATOM     22  F   UNL     1      -6.630   1.690  24.778  0.00  0.00    -0.204 F 
ATOM     23  C   UNL     1      -5.239   2.008  24.800  0.00  0.00    +0.050 A 
ENDBRANCH  12  14
BRANCH   9   8
ATOM      8  C   UNL     1      -0.571   2.844  25.446  0.00  0.00    +0.099 C 
BRANCH   8   7
ATOM      4  C   UNL     1      -0.027   0.737  24.268  0.00  0.00    +0.048 A 
ATOM      5  C   UNL     1      -0.336   0.714  25.032  0.00  0.00    +0.014 A 
ATOM      6  C   UNL     1      -0.517   1.416  25.425  0.00  0.00    -0.002 A 
ATOM      7  C   UNL     1      -0.389   2.142  25.053  0.00  0.00    -0.006 A 
ATOM     24  C   UNL     1      -0.080   2.164  24.288  0.00  0.00    -0.002 A 
ATOM     25  C   UNL     1       0.101   1.461  23.896  0.00  0.00    +0.014 A 
BRANCH   4   2
ATOM      1  C   UNL     1      -0.196  -0.675  24.115  0.00  0.00    +0.112 C 
ATOM      2  N   UNL     1       0.154   0.033  23.875  0.00  0.00    -0.304 N 
ATOM      3  C   UNL     1       0.684   0.038  23.244  0.00  0.00    +0.112 C 
ENDBRANCH   4   2
ENDBRANCH   8   7
ENDBRANCH   9   8
TORSDOF 4
ENDMDL
MODEL 8
REMARK VINA RESULT:      -9.4      2.896      4.853
REMARK  Name = 
REMARK  4 active torsions:
REMARK  status: ('A' for Active; 'I' for Inactive)
REMARK    1  A    between atoms: N_2  and  C_4
REMARK    2  A    between atoms: C_7  and  C_8
REMARK    3  A    between atoms: C_8  and  N_9
REMARK    4  A    between atoms: C_12  and  C_14
REMARK                            x       y       z     vdW  Elec       q    Type
REMARK                         _______ _______ _______ _____ _____    ______ ____
ROOT
ATOM      9  N   UNL     1      -1.454   3.446  25.316  0.00  0.00    -0.269 NA
ATOM     10  C   UNL     1      -0.972   3.281  25.965  0.00  0.00    +0.073 C 
ATOM     11  C   UNL     1      -0.516   2.618  25.782  0.00  0.00    +0.026 C 
ATOM     12  C   UNL     1      -0.716   2.374  25.020  0.00  0.00    +0.076 C 
ATOM     13  C   UNL     1      -1.295   2.885  24.732  0.00  0.00    +0.080 C 
ENDROOT
BRANCH  12  14
ATOM     14  C   UNL     1      -0.393   1.730  24.617  0.00  0.00    +0.140 A 
ATOM     15  N   UNL     1       0.256   1.753  24.108  0.00  0.00    -0.229 NA
ATOM     16  C   UNL     1       0.388   0.988  23.829  0.00  0.00    +0.102 A 
ATOM     17  C   UNL     1      -0.180   0.493  24.165  0.00  0.00    +0.100 A 
ATOM     18  N   UNL     1      -0.663   0.951  24.652  0.00  0.00    -0.229 NA
ATOM     19  C   UNL     1      -0.183  -0.312  23.983  0.00  0.00    +0.023 A 
ATOM     20  C   UNL     1       0.380  -0.621  23.466  0.00  0.00    +0.031 A 
ATOM     21  C   UNL     1       0.947  -0.126  23.131  0.00  0.00    +0.142 A 
ATOM     22  F   UNL     1       1.511  -0.434  22.614  0.00  0.00    -0.204 F 
ATOM     23  C   UNL     1       0.952   0.679  23.311  0.00  0.00    +0.050 A 
ENDBRANCH  12  14
BRANCH   9   8
ATOM      8  C   UNL     1      -1.998   4.063  25.260  0.00  0.00    +0.099 C 
BRANCH   8   7
ATOM      4  C   UNL     1      -4.419   3.603  25.481  0.00  0.00    +0.048 A 
ATOM      5  C   UNL     1      -4.066   3.601  24.736  0.00  0.00    +0.014 A 
ATOM      6  C   UNL     1      -3.258   3.755  24.662  0.00  0.00    -0.002 A 
ATOM      7  C   UNL     1      -2.805   3.910  25.334  0.00  0.00    -0.006 A 
ATOM     24  C   UNL     1      -3.159   3.912  26.079  0.00  0.00    -0.002 A 
ATOM     25  C   UNL     1      -3.966   3.758  26.153  0.00  0.00    +0.014 A 
BRANCH   4   2
ATOM      1  C   UNL     1      -5.494   2.672  25.634  0.00  0.00    +0.112 C 
ATOM      2  N   UNL     1      -5.227   3.449  25.555  0.00  0.00    -0.304 N 
ATOM      3  C   UNL     1      -5.767   4.072  25.549  0.00  0.00    +0.112 C 
ENDBRANCH   4   2
ENDBRANCH   8   7
ENDBRANCH   9   8
TORSDOF 4
ENDMDL
