MODEL 1
REMARK VINA RESULT:     -10.4      0.000      0.000
REMARK  Name = 
REMARK  8 active torsions:
REMARK  status: ('A' for Active; 'I' for Inactive)
REMARK    1  A    between atoms: C_2  and  C_4
REMARK    2  A    between atoms: C_6  and  C_7
REMARK    3  A    between atoms: C_7  and  C_8
REMARK    4  A    between atoms: C_11  and  C_13
REMARK    5  A    between atoms: C_23  and  C_24
REMARK    6  A    between atoms: C_24  and  N_25
REMARK    7  A    between atoms: C_26  and  C_28
REMARK    8  A    between atoms: C_31  and  N_32
REMARK                            x       y       z     vdW  Elec       q    Type
REMARK                         _______ _______ _______ _____ _____    ______ ____
ROOT
ATOM      4  C   UNL     1      -0.864   0.855  24.474  0.00  0.00    +0.006 C 
ATOM      5  C   UNL     1      -1.278   1.425  24.903  0.00  0.00    +0.005 C 
ATOM      6  C   UNL     1      -1.013   2.205  24.918  0.00  0.00    +0.027 C 
ATOM     20  C   UNL     1      -0.332   2.417  24.503  0.00  0.00    -0.048 C 
ATOM     21  C   UNL     1      -0.066   3.198  24.518  0.00  0.00    +0.026 C 
ATOM     22  C   UNL     1       0.083   1.847  24.073  0.00  0.00    -0.033 C 
ATOM     23  C   UNL     1      -0.182   1.067  24.059  0.00  0.00    +0.043 C 
ENDROOT
BRANCH   4   2
ATOM      1  C   UNL     1      -0.884  -0.456  25.042  0.00  0.00    +0.000 C 
ATOM      2  C   UNL     1      -1.130   0.074  24.460  0.00  0.00    +0.000 C 
ATOM      3  C   UNL     1      -1.641  -0.176  23.863  0.00  0.00    +0.000 C 
ENDBRANCH   4   2
BRANCH   6   7
ATOM      7  C   UNL     1      -1.428   2.774  25.348  0.00  0.00    +0.091 C 
BRANCH   7   8
ATOM      8  C   UNL     1      -2.207   2.956  25.147  0.00  0.00    +0.227 A 
ATOM      9  N   UNL     1      -2.451   3.570  24.654  0.00  0.00    -0.111 NA
ATOM     10  N   UNL     1      -3.275   3.549  24.606  0.00  0.00    -0.107 NA
ATOM     11  C   UNL     1      -3.540   2.920  25.070  0.00  0.00    +0.252 A 
ATOM     12  O   UNL     1      -2.881   2.554  25.405  0.00  0.00    -0.419 OA
BRANCH  11  13
ATOM     13  C   UNL     1      -4.326   2.698  25.181  0.00  0.00    +0.083 A 
ATOM     14  C   UNL     1      -4.760   3.015  25.807  0.00  0.00    +0.007 A 
ATOM     15  C   UNL     1      -5.547   2.792  25.918  0.00  0.00    +0.000 A 
ATOM     16  C   UNL     1      -5.899   2.253  25.403  0.00  0.00    +0.002 A 
ATOM     17  C   UNL     1      -5.465   1.936  24.777  0.00  0.00    +0.030 A 
ATOM     18  C   UNL     1      -4.679   2.159  24.666  0.00  0.00    +0.145 A 
ATOM     19  F   UNL     1      -4.245   1.842  24.039  0.00  0.00    -0.204 F 
ENDBRANCH  11  13
ENDBRANCH   7   8
ENDBRANCH   6   7
BRANCH  23  24
ATOM     24  C   UNL     1       0.232   0.498  23.630  0.00  0.00    +0.120 C 
BRANCH  24  25
ATOM     25  N   UNL     1       1.056   0.518  23.605  0.00  0.00    -0.201 NA
ATOM     26  C   UNL     1       1.459   0.169  22.976  0.00  0.00    +0.265 C 
ATOM     27  O   UNL     1       1.037  -0.201  22.370  0.00  0.00    -0.268 OA
BRANCH  26  28
ATOM     28  C   UNL     1       2.284   0.189  22.951  0.00  0.00    +0.055 A 
ATOM     29  C   UNL     1       2.674   0.896  22.782  0.00  0.00    +0.006 A 
ATOM     30  C   UNL     1       3.498   0.916  22.757  0.00  0.00    +0.017 A 
ATOM     31  C   UNL     1       3.933   0.229  22.902  0.00  0.00    +0.073 A 
ATOM     36  C   UNL     1       3.542  -0.477  23.071  0.00  0.00    +0.017 A 
ATOM     37  C   UNL     1       2.717  -0.497  23.096  0.00  0.00    +0.006 A 
BRANCH  31  32
ATOM     32  N   UNL     1       4.756   0.250  22.877  0.00  0.00    -0.179 NA
ATOM     33  C   UNL     1       5.187   0.374  23.570  0.00  0.00    +0.246 C 
ATOM     34  C   UNL     1       6.011   0.394  23.545  0.00  0.00    +0.097 C 
ATOM     35  O   UNL     1       4.793   0.479  24.286  0.00  0.00    -0.273 OA
ENDBRANCH  31  32
ENDBRANCH  26  28
ENDBRANCH  24  25
ENDBRANCH  23  24
TORSDOF 8
ENDMDL
MODEL 2
REMARK VINA RESULT:      -9.2      2.326      3.018
REMARK  Name = 
REMARK  8 active torsions:
REMARK  status: ('A' for Active; 'I' for Inactive)
REMARK    1  A    between atoms: C_2  and  C_4
REMARK    2  A    between atoms: C_6  and  C_7
REMARK    3  A    between atoms: C_7  and  C_8
REMARK    4  A    between atoms: C_11  and  C_13
REMARK    5  A    between atoms: C_23  and  C_24
REMARK    6  A    between atoms: C_24  and  N_25
REMARK    7  A    between atoms: C_26  and  C_28
REMARK    8  A    between atoms: C_31  and  N_32
REMARK                            x       y       z     vdW  Elec       q    Type
REMARK                         _______ _______ _______ _____ _____    ______ ____
ROOT
ATOM      4  C   UNL     1      -0.572   0.589  24.224  0.00  0.00    +0.006 C 
ATOM      5  C   UNL     1      -1.045   0.323  24.845  0.00  0.00    +0.005 C 
ATOM      6  C   UNL     1      -0.898  -0.411  25.190  0.00  0.00    +0.027 C 
ATOM     20  C   UNL     1      -0.278  -0.881  24.914  0.00  0.00    -0.048 C 
ATOM     21  C   UNL     1      -0.132  -1.615  25.260  0.00  0.00    +0.026 C 
ATOM     22  C   UNL     1       0.195  -0.615  24.292  0.00  0.00    -0.033 C 
ATOM     23  C   UNL     1       0.049   0.119  23.948  0.00  0.00    +0.043 C 
ENDROOT
BRANCH   4   2
ATOM      1  C   UNL     1      -0.366   2.002  24.188  0.00  0.00    +0.000 C 
ATOM      2  C   UNL     1      -0.719   1.324  23.878  0.00  0.00    +0.000 C 
ATOM      3  C   UNL     1      -1.218   1.379  23.225  0.00  0.00    +0.000 C 
ENDBRANCH   4   2
BRANCH   6   7
ATOM      7  C   UNL     1      -1.372  -0.677  25.812  0.00  0.00    +0.091 C 
BRANCH   7   8
ATOM      8  C   UNL     1      -2.148  -0.915  25.667  0.00  0.00    +0.227 A 
ATOM      9  N   UNL     1      -2.806  -0.731  26.129  0.00  0.00    -0.111 NA
ATOM     10  N   UNL     1      -3.468  -1.081  25.782  0.00  0.00    -0.107 NA
ATOM     11  C   UNL     1      -3.219  -1.481  25.105  0.00  0.00    +0.252 A 
ATOM     12  O   UNL     1      -2.403  -1.379  25.033  0.00  0.00    -0.419 OA
BRANCH  11  13
ATOM     13  C   UNL     1      -3.701  -1.908  24.589  0.00  0.00    +0.083 A 
ATOM     14  C   UNL     1      -3.687  -2.734  24.602  0.00  0.00    +0.007 A 
ATOM     15  C   UNL     1      -4.169  -3.161  24.086  0.00  0.00    +0.000 A 
ATOM     16  C   UNL     1      -4.663  -2.765  23.559  0.00  0.00    +0.002 A 
ATOM     17  C   UNL     1      -4.677  -1.939  23.547  0.00  0.00    +0.030 A 
ATOM     18  C   UNL     1      -4.195  -1.512  24.062  0.00  0.00    +0.145 A 
ATOM     19  F   UNL     1      -4.209  -0.687  24.050  0.00  0.00    -0.204 F 
ENDBRANCH  11  13
ENDBRANCH   7   8
ENDBRANCH   6   7
BRANCH  23  24
ATOM     24  C   UNL     1       0.521   0.385  23.326  0.00  0.00    +0.120 C 
BRANCH  24  25
ATOM     25  N   UNL     1       1.343   0.363  23.394  0.00  0.00    -0.201 NA
ATOM     26  C   UNL     1       1.808   0.232  22.725  0.00  0.00    +0.265 C 
ATOM     27  O   UNL     1       1.452   0.123  21.989  0.00  0.00    -0.268 OA
BRANCH  26  28
ATOM     28  C   UNL     1       2.631   0.209  22.793  0.00  0.00    +0.055 A 
ATOM     29  C   UNL     1       3.074   0.894  22.668  0.00  0.00    +0.006 A 
ATOM     30  C   UNL     1       3.895   0.872  22.736  0.00  0.00    +0.017 A 
ATOM     31  C   UNL     1       4.275   0.164  22.928  0.00  0.00    +0.073 A 
ATOM     36  C   UNL     1       3.831  -0.520  23.052  0.00  0.00    +0.017 A 
ATOM     37  C   UNL     1       3.009  -0.498  22.984  0.00  0.00    +0.006 A 
BRANCH  31  32
ATOM     32  N   UNL     1       5.096   0.141  22.995  0.00  0.00    -0.179 NA
ATOM     33  C   UNL     1       5.454   0.281  23.724  0.00  0.00    +0.246 C 
ATOM     34  C   UNL     1       6.276   0.259  23.792  0.00  0.00    +0.097 C 
ATOM     35  O   UNL     1       4.990   0.444  24.386  0.00  0.00    -0.273 OA
ENDBRANCH  31  32
ENDBRANCH  26  28
ENDBRANCH  24  25
ENDBRANCH  23  24
TORSDOF 8
ENDMDL
MODEL 3
REMARK VINA RESULT:      -9.1      2.757      6.095
REMARK  Name = 
REMARK  8 active torsions:
REMARK  status: ('A' for Active; 'I' for Inactive)
REMARK    1  A    between atoms: C_2  and  C_4
REMARK    2  A    between atoms: C_6  and  C_7
REMARK    3  A    between atoms: C_7  and  C_8
REMARK    4  A    between atoms: C_11  and  C_13
REMARK    5  A    between atoms: C_23  and  C_24
REMARK    6  A    between atoms: C_24  and  N_25
REMARK    7  A    between atoms: C_26  and  C_28
REMARK    8  A    between atoms: C_31  and  N_32
REMARK                            x       y       z     vdW  Elec       q    Type
REMARK                         _______ _______ _______ _____ _____    ______ ____
ROOT
ATOM      4  C   UNL     1      -0.459   0.725  24.572  0.00  0.00    +0.006 C 
ATOM      5  C   UNL     1      -0.398  -0.096  24.619  0.00  0.00    +0.005 C 
ATOM      6  C   UNL     1      -0.670  -0.492  25.289  0.00  0.00    +0.027 C 
ATOM     20  C   UNL     1      -1.004  -0.068  25.912  0.00  0.00    -0.048 C 
ATOM     21  C   UNL     1      -1.276  -0.464  26.583  0.00  0.00    +0.026 C 
ATOM     22  C   UNL     1      -1.064   0.754  25.865  0.00  0.00    -0.033 C 
ATOM     23  C   UNL     1      -0.792   1.150  25.196  0.00  0.00    +0.043 C 
ENDROOT
BRANCH   4   2
ATOM      1  C   UNL     1      -0.663   1.170  23.229  0.00  0.00    +0.000 C 
ATOM      2  C   UNL     1      -0.186   1.121  23.901  0.00  0.00    +0.000 C 
ATOM      3  C   UNL     1       0.562   1.468  23.903  0.00  0.00    +0.000 C 
ENDBRANCH   4   2
BRANCH   6   7
ATOM      7  C   UNL     1      -0.610  -1.314  25.336  0.00  0.00    +0.091 C 
BRANCH   7   8
ATOM      8  C   UNL     1      -1.130  -1.792  24.909  0.00  0.00    +0.227 A 
ATOM      9  N   UNL     1      -0.919  -2.415  24.412  0.00  0.00    -0.111 NA
ATOM     10  N   UNL     1      -1.612  -2.738  24.100  0.00  0.00    -0.107 NA
ATOM     11  C   UNL     1      -2.251  -2.314  24.404  0.00  0.00    +0.252 A 
ATOM     12  O   UNL     1      -1.953  -1.728  24.904  0.00  0.00    -0.419 OA
BRANCH  11  13
ATOM     13  C   UNL     1      -3.047  -2.450  24.237  0.00  0.00    +0.083 A 
ATOM     14  C   UNL     1      -3.385  -3.182  24.414  0.00  0.00    +0.007 A 
ATOM     15  C   UNL     1      -4.182  -3.318  24.248  0.00  0.00    +0.000 A 
ATOM     16  C   UNL     1      -4.639  -2.724  23.905  0.00  0.00    +0.002 A 
ATOM     17  C   UNL     1      -4.300  -1.992  23.728  0.00  0.00    +0.030 A 
ATOM     18  C   UNL     1      -3.504  -1.856  23.894  0.00  0.00    +0.145 A 
ATOM     19  F   UNL     1      -3.165  -1.124  23.718  0.00  0.00    -0.204 F 
ENDBRANCH  11  13
ENDBRANCH   7   8
ENDBRANCH   6   7
BRANCH  23  24
ATOM     24  C   UNL     1      -0.852   1.972  25.149  0.00  0.00    +0.120 C 
BRANCH  24  25
ATOM     25  N   UNL     1      -1.594   2.333  25.166  0.00  0.00    -0.201 NA
ATOM     26  C   UNL     1      -1.665   3.115  25.417  0.00  0.00    +0.265 C 
ATOM     27  O   UNL     1      -0.995   3.537  25.650  0.00  0.00    -0.268 OA
BRANCH  26  28
ATOM     28  C   UNL     1      -2.407   3.477  25.435  0.00  0.00    +0.055 A 
ATOM     29  C   UNL     1      -2.697   3.789  26.141  0.00  0.00    +0.006 A 
ATOM     30  C   UNL     1      -3.438   4.151  26.159  0.00  0.00    +0.017 A 
ATOM     31  C   UNL     1      -3.890   4.200  25.470  0.00  0.00    +0.073 A 
ATOM     36  C   UNL     1      -3.600   3.887  24.764  0.00  0.00    +0.017 A 
ATOM     37  C   UNL     1      -2.858   3.526  24.746  0.00  0.00    +0.006 A 
BRANCH  31  32
ATOM     32  N   UNL     1      -4.631   4.561  25.487  0.00  0.00    -0.179 NA
ATOM     33  C   UNL     1      -5.313   4.101  25.557  0.00  0.00    +0.246 C 
ATOM     34  C   UNL     1      -6.054   4.463  25.574  0.00  0.00    +0.097 C 
ATOM     35  O   UNL     1      -5.252   3.280  25.608  0.00  0.00    -0.273 OA
ENDBRANCH  31  32
ENDBRANCH  26  28
ENDBRANCH  24  25
ENDBRANCH  23  24
TORSDOF 8
ENDMDL
MODEL 4
REMARK VINA RESULT:      -8.8      2.470      4.466
REMARK  Name = 
REMARK  8 active torsions:
REMARK  status: ('A' for Active; 'I' for Inactive)
REMARK    1  A    between atoms: C_2  and  C_4
REMARK    2  A    between atoms: C_6  and  C_7
REMARK    3  A    between atoms: C_7  and  C_8
REMARK    4  A    between atoms: C_11  and  C_13
REMARK    5  A    between atoms: C_23  and  C_24
REMARK    6  A    between atoms: C_24  and  N_25
REMARK    7  A    between atoms: C_26  and  C_28
REMARK    8  A    between atoms: C_31  and  N_32
REMARK                            x       y       z     vdW  Elec       q    Type
REMARK                         _______ _______ _______ _____ _____    ______ ____
ROOT
ATOM      4  C   UNL     1      -0.221   1.572  24.437  0.00  0.00    +0.006 C 
ATOM      5  C   UNL     1      -0.296   2.372  24.622  0.00  0.00    +0.005 C 
ATOM      6  C   UNL     1      -0.414   2.606  25.403  0.00  0.00    +0.027 C 
ATOM     20  C   UNL     1      -0.458   2.041  26.002  0.00  0.00    -0.048 C 
ATOM     21  C   UNL     1      -0.576   2.275  26.784  0.00  0.00    +0.026 C 
ATOM     22  C   UNL     1      -0.382   1.239  25.818  0.00  0.00    -0.033 C 
ATOM     23  C   UNL     1      -0.264   1.005  25.037  0.00  0.00    +0.043 C 
ENDROOT
BRANCH   4   2
ATOM      1  C   UNL     1      -0.738   1.327  23.128  0.00  0.00    +0.000 C 
ATOM      2  C   UNL     1      -0.103   1.337  23.655  0.00  0.00    +0.000 C 
ATOM      3  C   UNL     1       0.648   1.113  23.402  0.00  0.00    +0.000 C 
ENDBRANCH   4   2
BRANCH   6   7
ATOM      7  C   UNL     1      -0.489   3.408  25.587  0.00  0.00    +0.091 C 
BRANCH   7   8
ATOM      8  C   UNL     1      -1.194   3.805  25.423  0.00  0.00    +0.227 A 
ATOM      9  N   UNL     1      -1.266   4.600  25.218  0.00  0.00    -0.111 NA
ATOM     10  N   UNL     1      -2.067   4.763  25.103  0.00  0.00    -0.107 NA
ATOM     11  C   UNL     1      -2.490   4.067  25.237  0.00  0.00    +0.252 A 
ATOM     12  O   UNL     1      -1.950   3.475  25.435  0.00  0.00    -0.419 OA
BRANCH  11  13
ATOM     13  C   UNL     1      -3.308   3.979  25.183  0.00  0.00    +0.083 A 
ATOM     14  C   UNL     1      -3.664   3.874  24.445  0.00  0.00    +0.007 A 
ATOM     15  C   UNL     1      -4.482   3.786  24.391  0.00  0.00    +0.000 A 
ATOM     16  C   UNL     1      -4.945   3.803  25.073  0.00  0.00    +0.002 A 
ATOM     17  C   UNL     1      -4.589   3.908  25.811  0.00  0.00    +0.030 A 
ATOM     18  C   UNL     1      -3.771   3.996  25.865  0.00  0.00    +0.145 A 
ATOM     19  F   UNL     1      -3.416   4.101  26.603  0.00  0.00    -0.204 F 
ENDBRANCH  11  13
ENDBRANCH   7   8
ENDBRANCH   6   7
BRANCH  23  24
ATOM     24  C   UNL     1      -0.189   0.205  24.852  0.00  0.00    +0.120 C 
BRANCH  24  25
ATOM     25  N   UNL     1      -0.863  -0.259  24.743  0.00  0.00    -0.201 NA
ATOM     26  C   UNL     1      -0.854  -1.056  24.956  0.00  0.00    +0.265 C 
ATOM     27  O   UNL     1      -0.171  -1.390  25.278  0.00  0.00    -0.268 OA
BRANCH  26  28
ATOM     28  C   UNL     1      -1.528  -1.520  24.847  0.00  0.00    +0.055 A 
ATOM     29  C   UNL     1      -1.515  -2.145  24.308  0.00  0.00    +0.006 A 
ATOM     30  C   UNL     1      -2.189  -2.608  24.199  0.00  0.00    +0.017 A 
ATOM     31  C   UNL     1      -2.875  -2.447  24.629  0.00  0.00    +0.073 A 
ATOM     36  C   UNL     1      -2.887  -1.823  25.167  0.00  0.00    +0.017 A 
ATOM     37  C   UNL     1      -2.213  -1.359  25.276  0.00  0.00    +0.006 A 
BRANCH  31  32
ATOM     32  N   UNL     1      -3.548  -2.910  24.520  0.00  0.00    -0.179 NA
ATOM     33  C   UNL     1      -4.137  -2.667  23.996  0.00  0.00    +0.246 C 
ATOM     34  C   UNL     1      -4.810  -3.131  23.887  0.00  0.00    +0.097 C 
ATOM     35  O   UNL     1      -4.051  -1.960  23.580  0.00  0.00    -0.273 OA
ENDBRANCH  31  32
ENDBRANCH  26  28
ENDBRANCH  24  25
ENDBRANCH  23  24
TORSDOF 8
ENDMDL
MODEL 5
REMARK VINA RESULT:      -8.7      1.658      7.229
REMARK  Name = 
REMARK  8 active torsions:
REMARK  status: ('A' for Active; 'I' for Inactive)
REMARK    1  A    between atoms: C_2  and  C_4
REMARK    2  A    between atoms: C_6  and  C_7
REMARK    3  A    between atoms: C_7  and  C_8
REMARK    4  A    between atoms: C_11  and  C_13
REMARK    5  A    between atoms: C_23  and  C_24
REMARK    6  A    between atoms: C_24  and  N_25
REMARK    7  A    between atoms: C_26  and  C_28
REMARK    8  A    between atoms: C_31  and  N_32
REMARK                            x       y       z     vdW  Elec       q    Type
REMARK                         _______ _______ _______ _____ _____    ______ ____
ROOT
ATOM      4  C   UNL     1      -0.084   1.825  24.321  0.00  0.00    +0.006 C 
ATOM      5  C   UNL     1       0.364   1.157  24.136  0.00  0.00    +0.005 C 
ATOM      6  C   UNL     1       0.008   0.509  23.772  0.00  0.00    +0.027 C 
ATOM     20  C   UNL     1      -0.797   0.527  23.593  0.00  0.00    -0.048 C 
ATOM     21  C   UNL     1      -1.154  -0.121  23.229  0.00  0.00    +0.026 C 
ATOM     22  C   UNL     1      -1.246   1.195  23.778  0.00  0.00    -0.033 C 
ATOM     23  C   UNL     1      -0.890   1.843  24.142  0.00  0.00    +0.043 C 
ENDROOT
BRANCH   4   2
ATOM      1  C   UNL     1       0.550   3.102  24.228  0.00  0.00    +0.000 C 
ATOM      2  C   UNL     1       0.273   2.473  24.685  0.00  0.00    +0.000 C 
ATOM      3  C   UNL     1       0.353   2.493  25.505  0.00  0.00    +0.000 C 
ENDBRANCH   4   2
BRANCH   6   7
ATOM      7  C   UNL     1       0.456  -0.159  23.587  0.00  0.00    +0.091 C 
BRANCH   7   8
ATOM      8  C   UNL     1       1.165  -0.078  23.173  0.00  0.00    +0.227 A 
ATOM      9  N   UNL     1       1.249  -0.057  22.353  0.00  0.00    -0.111 NA
ATOM     10  N   UNL     1       2.052   0.030  22.180  0.00  0.00    -0.107 NA
ATOM     11  C   UNL     1       2.464   0.063  22.894  0.00  0.00    +0.252 A 
ATOM     12  O   UNL     1       1.916  -0.004  23.508  0.00  0.00    -0.419 OA
BRANCH  11  13
ATOM     13  C   UNL     1       3.280   0.148  22.980  0.00  0.00    +0.083 A 
ATOM     14  C   UNL     1       3.740  -0.499  23.204  0.00  0.00    +0.007 A 
ATOM     15  C   UNL     1       4.556  -0.414  23.289  0.00  0.00    +0.000 A 
ATOM     16  C   UNL     1       4.912   0.317  23.151  0.00  0.00    +0.002 A 
ATOM     17  C   UNL     1       4.451   0.964  22.927  0.00  0.00    +0.030 A 
ATOM     18  C   UNL     1       3.635   0.879  22.841  0.00  0.00    +0.145 A 
ATOM     19  F   UNL     1       3.175   1.526  22.617  0.00  0.00    -0.204 F 
ENDBRANCH  11  13
ENDBRANCH   7   8
ENDBRANCH   6   7
BRANCH  23  24
ATOM     24  C   UNL     1      -1.337   2.511  24.327  0.00  0.00    +0.120 C 
BRANCH  24  25
ATOM     25  N   UNL     1      -2.129   2.430  24.546  0.00  0.00    -0.201 NA
ATOM     26  C   UNL     1      -2.625   3.088  24.547  0.00  0.00    +0.265 C 
ATOM     27  O   UNL     1      -2.331   3.828  24.330  0.00  0.00    -0.268 OA
BRANCH  26  28
ATOM     28  C   UNL     1      -3.417   3.007  24.765  0.00  0.00    +0.055 A 
ATOM     29  C   UNL     1      -3.673   3.286  25.499  0.00  0.00    +0.006 A 
ATOM     30  C   UNL     1      -4.465   3.205  25.717  0.00  0.00    +0.017 A 
ATOM     31  C   UNL     1      -5.000   2.845  25.202  0.00  0.00    +0.073 A 
ATOM     36  C   UNL     1      -4.744   2.566  24.470  0.00  0.00    +0.017 A 
ATOM     37  C   UNL     1      -3.952   2.647  24.251  0.00  0.00    +0.006 A 
BRANCH  31  32
ATOM     32  N   UNL     1      -5.791   2.764  25.420  0.00  0.00    -0.179 NA
ATOM     33  C   UNL     1      -6.061   2.052  25.738  0.00  0.00    +0.246 C 
ATOM     34  C   UNL     1      -6.852   1.971  25.957  0.00  0.00    +0.097 C 
ATOM     35  O   UNL     1      -5.538   1.422  25.838  0.00  0.00    -0.273 OA
ENDBRANCH  31  32
ENDBRANCH  26  28
ENDBRANCH  24  25
ENDBRANCH  23  24
TORSDOF 8
ENDMDL
MODEL 6
REMARK VINA RESULT:      -8.3      1.829      2.746
REMARK  Name = 
REMARK  8 active torsions:
REMARK  status: ('A' for Active; 'I' for Inactive)
REMARK    1  A    between atoms: C_2  and  C_4
REMARK    2  A    between atoms: C_6  and  C_7
REMARK    3  A    between atoms: C_7  and  C_8
REMARK    4  A    between atoms: C_11  and  C_13
REMARK    5  A    between atoms: C_23  and  C_24
REMARK    6  A    between atoms: C_24  and  N_25
REMARK    7  A    between atoms: C_26  and  C_28
REMARK    8  A    between atoms: C_31  and  N_32
REMARK                            x       y       z     vdW  Elec       q    Type
REMARK                         _______ _______ _______ _____ _____    ______ ____
ROOT
ATOM      4  C   UNL     1      -3.044  -0.642  25.050  0.00  0.00    +0.006 C 
ATOM      5  C   UNL     1      -3.804  -0.327  24.981  0.00  0.00    +0.005 C 
ATOM      6  C   UNL     1      -3.987   0.175  24.354  0.00  0.00    +0.027 C 
ATOM     20  C   UNL     1      -3.411   0.364  23.794  0.00  0.00    -0.048 C 
ATOM     21  C   UNL     1      -3.594   0.867  23.167  0.00  0.00    +0.026 C 
ATOM     22  C   UNL     1      -2.650   0.050  23.864  0.00  0.00    -0.033 C 
ATOM     23  C   UNL     1      -2.467  -0.452  24.491  0.00  0.00    +0.043 C 
ENDROOT
BRANCH   4   2
ATOM      1  C   UNL     1      -2.484  -0.845  26.349  0.00  0.00    +0.000 C 
ATOM      2  C   UNL     1      -2.861  -1.144  25.678  0.00  0.00    +0.000 C 
ATOM      3  C   UNL     1      -3.054  -1.945  25.635  0.00  0.00    +0.000 C 
ENDBRANCH   4   2
BRANCH   6   7
ATOM      7  C   UNL     1      -4.747   0.489  24.284  0.00  0.00    +0.091 C 
BRANCH   7   8
ATOM      8  C   UNL     1      -4.990   1.095  24.788  0.00  0.00    +0.227 A 
ATOM      9  N   UNL     1      -5.491   1.014  25.438  0.00  0.00    -0.111 NA
ATOM     10  N   UNL     1      -5.586   1.759  25.782  0.00  0.00    -0.107 NA
ATOM     11  C   UNL     1      -5.144   2.300  25.344  0.00  0.00    +0.252 A 
ATOM     12  O   UNL     1      -4.775   1.890  24.729  0.00  0.00    -0.419 OA
BRANCH  11  13
ATOM     13  C   UNL     1      -5.080   3.108  25.494  0.00  0.00    +0.083 A 
ATOM     14  C   UNL     1      -5.738   3.598  25.398  0.00  0.00    +0.007 A 
ATOM     15  C   UNL     1      -5.675   4.407  25.547  0.00  0.00    +0.000 A 
ATOM     16  C   UNL     1      -4.955   4.726  25.793  0.00  0.00    +0.002 A 
ATOM     17  C   UNL     1      -4.297   4.236  25.888  0.00  0.00    +0.030 A 
ATOM     18  C   UNL     1      -4.361   3.428  25.739  0.00  0.00    +0.145 A 
ATOM     19  F   UNL     1      -3.703   2.938  25.835  0.00  0.00    -0.204 F 
ENDBRANCH  11  13
ENDBRANCH   7   8
ENDBRANCH   6   7
BRANCH  23  24
ATOM     24  C   UNL     1      -1.708  -0.766  24.560  0.00  0.00    +0.120 C 
BRANCH  24  25
ATOM     25  N   UNL     1      -1.072  -0.399  24.184  0.00  0.00    -0.201 NA
ATOM     26  C   UNL     1      -0.345  -0.782  24.134  0.00  0.00    +0.265 C 
ATOM     27  O   UNL     1      -0.251  -1.534  24.461  0.00  0.00    -0.268 OA
BRANCH  26  28
ATOM     28  C   UNL     1       0.291  -0.414  23.757  0.00  0.00    +0.055 A 
ATOM     29  C   UNL     1       0.609  -0.743  23.070  0.00  0.00    +0.006 A 
ATOM     30  C   UNL     1       1.245  -0.375  22.693  0.00  0.00    +0.017 A 
ATOM     31  C   UNL     1       1.562   0.321  23.003  0.00  0.00    +0.073 A 
ATOM     36  C   UNL     1       1.243   0.649  23.690  0.00  0.00    +0.017 A 
ATOM     37  C   UNL     1       0.608   0.281  24.067  0.00  0.00    +0.006 A 
BRANCH  31  32
ATOM     32  N   UNL     1       2.196   0.689  22.627  0.00  0.00    -0.179 NA
ATOM     33  C   UNL     1       2.952   0.363  22.680  0.00  0.00    +0.246 C 
ATOM     34  C   UNL     1       3.588   0.731  22.304  0.00  0.00    +0.097 C 
ATOM     35  O   UNL     1       3.073  -0.330  23.111  0.00  0.00    -0.273 OA
ENDBRANCH  31  32
ENDBRANCH  26  28
ENDBRANCH  24  25
ENDBRANCH  23  24
TORSDOF 8
ENDMDL
