MODEL 1
REMARK VINA RESULT:     -14.7      0.000      0.000
REMARK  Name = 
REMARK  6 active torsions:
REMARK  status: ('A' for Active; 'I' for Inactive)
REMARK    1  A    between atoms: O_2  and  C_3
REMARK    2  A    between atoms: C_6  and  N_7
REMARK    3  A    between atoms: C_19  and  N_20
REMARK    4  A    between atoms: C_21  and  C_23
REMARK    5  A    between atoms: C_23  and  O_24
REMARK    6  A    between atoms: O_24  and  C_25
REMARK                            x       y       z     vdW  Elec       q    Type
REMARK                         _______ _______ _______ _____ _____    ______ ____
ROOT
ATOM      7  N   UNL     1      -4.641  -0.029  25.310  0.00  0.00    -0.162 NA
ATOM      8  C   UNL     1      -4.537   0.741  25.032  0.00  0.00    +0.327 C 
ATOM      9  O   UNL     1      -3.951   0.903  24.475  0.00  0.00    -0.250 OA
ATOM     10  N   UNL     1      -5.020   1.349  25.312  0.00  0.00    -0.262 N 
ATOM     11  C   UNL     1      -5.622   1.726  25.753  0.00  0.00    +0.097 C 
ATOM     12  C   UNL     1      -5.508   2.652  25.429  0.00  0.00    +0.043 C 
ATOM     13  C   UNL     1      -5.544   3.450  25.267  0.00  0.00    +0.011 C 
ATOM     14  C   UNL     1      -5.163   2.896  25.065  0.00  0.00    +0.058 C 
ATOM     15  C   UNL     1      -5.285   2.006  25.388  0.00  0.00    +0.101 C 
ATOM     16  C   UNL     1      -4.470   2.662  24.508  0.00  0.00    +0.041 A 
ATOM     17  C   UNL     1      -3.945   2.993  23.965  0.00  0.00    +0.014 A 
ATOM     18  C   UNL     1      -3.388   2.517  23.587  0.00  0.00    +0.023 A 
ATOM     19  C   UNL     1      -3.355   1.709  23.753  0.00  0.00    +0.129 A 
ATOM     31  C   UNL     1      -3.879   1.378  24.297  0.00  0.00    +0.276 A 
ATOM     32  O   UNL     1      -3.655   0.584  24.291  0.00  0.00    -0.266 OA
ATOM     33  N   UNL     1      -4.437   1.855  24.674  0.00  0.00    -0.298 N 
ATOM     34  C   UNL     1      -4.785   2.399  24.851  0.00  0.00    +0.110 C 
ENDROOT
BRANCH   7   6
ATOM      3  C   UNL     1      -3.191  -1.852  24.471  0.00  0.00    +0.139 A 
ATOM      4  C   UNL     1      -2.993  -1.453  25.164  0.00  0.00    +0.038 A 
ATOM      5  C   UNL     1      -3.475  -0.845  25.444  0.00  0.00    +0.020 A 
ATOM      6  C   UNL     1      -4.158  -0.637  25.030  0.00  0.00    +0.075 A 
ATOM     35  C   UNL     1      -4.357  -1.036  24.335  0.00  0.00    +0.020 A 
ATOM     36  C   UNL     1      -3.874  -1.643  24.056  0.00  0.00    +0.038 A 
BRANCH   3   2
ATOM      1  C   UNL     1      -1.898  -2.445  24.338  0.00  0.00    +0.252 C 
ATOM      2  O   UNL     1      -2.709  -2.459  24.191  0.00  0.00    -0.471 OA
ENDBRANCH   3   2
ENDBRANCH   7   6
BRANCH  19  20
ATOM     20  N   UNL     1      -2.797   1.233  23.375  0.00  0.00    -0.171 NA
ATOM     21  C   UNL     1      -1.995   1.417  23.428  0.00  0.00    +0.290 C 
ATOM     22  O   UNL     1      -1.437   0.940  23.049  0.00  0.00    -0.269 OA
BRANCH  21  23
ATOM     23  C   UNL     1      -1.750   2.077  23.858  0.00  0.00    +0.291 C 
BRANCH  23  24
ATOM     24  O   UNL     1      -0.945   2.214  23.979  0.00  0.00    -0.466 OA
BRANCH  24  25
ATOM     25  C   UNL     1      -0.691   2.609  24.658  0.00  0.00    +0.139 A 
ATOM     26  C   UNL     1      -0.445   2.180  25.317  0.00  0.00    +0.037 A 
ATOM     27  C   UNL     1      -0.192   2.575  25.996  0.00  0.00    +0.003 A 
ATOM     28  C   UNL     1      -0.185   3.399  26.014  0.00  0.00    +0.000 A 
ATOM     29  C   UNL     1      -0.432   3.829  25.355  0.00  0.00    +0.003 A 
ATOM     30  C   UNL     1      -0.685   3.434  24.676  0.00  0.00    +0.037 A 
ENDBRANCH  24  25
ENDBRANCH  23  24
ENDBRANCH  21  23
ENDBRANCH  19  20
TORSDOF 6
ENDMDL
MODEL 2
REMARK VINA RESULT:     -14.2      1.240      3.926
REMARK  Name = 
REMARK  6 active torsions:
REMARK  status: ('A' for Active; 'I' for Inactive)
REMARK    1  A    between atoms: O_2  and  C_3
REMARK    2  A    between atoms: C_6  and  N_7
REMARK    3  A    between atoms: C_19  and  N_20
REMARK    4  A    between atoms: C_21  and  C_23
REMARK    5  A    between atoms: C_23  and  O_24
REMARK    6  A    between atoms: O_24  and  C_25
REMARK                            x       y       z     vdW  Elec       q    Type
REMARK                         _______ _______ _______ _____ _____    ______ ____
ROOT
ATOM      7  N   UNL     1      -3.535   3.789  25.739  0.00  0.00    -0.162 NA
ATOM      8  C   UNL     1      -3.934   3.134  25.436  0.00  0.00    +0.327 C 
ATOM      9  O   UNL     1      -3.532   2.584  24.971  0.00  0.00    -0.250 OA
ATOM     10  N   UNL     1      -4.737   3.029  25.598  0.00  0.00    -0.262 N 
ATOM     11  C   UNL     1      -5.495   3.185  25.914  0.00  0.00    +0.097 C 
ATOM     12  C   UNL     1      -5.985   2.405  25.557  0.00  0.00    +0.043 C 
ATOM     13  C   UNL     1      -6.523   1.830  25.344  0.00  0.00    +0.011 C 
ATOM     14  C   UNL     1      -5.843   1.969  25.239  0.00  0.00    +0.058 C 
ATOM     15  C   UNL     1      -5.382   2.728  25.591  0.00  0.00    +0.101 C 
ATOM     16  C   UNL     1      -5.097   1.640  24.815  0.00  0.00    +0.041 A 
ATOM     17  C   UNL     1      -4.855   1.008  24.344  0.00  0.00    +0.014 A 
ATOM     18  C   UNL     1      -4.072   0.960  24.089  0.00  0.00    +0.023 A 
ATOM     19  C   UNL     1      -3.530   1.543  24.307  0.00  0.00    +0.129 A 
ATOM     31  C   UNL     1      -3.772   2.175  24.778  0.00  0.00    +0.276 A 
ATOM     32  O   UNL     1      -3.075   2.609  24.856  0.00  0.00    -0.266 OA
ATOM     33  N   UNL     1      -4.555   2.223  25.033  0.00  0.00    -0.298 N 
ATOM     34  C   UNL     1      -5.201   2.068  25.118  0.00  0.00    +0.110 C 
ENDROOT
BRANCH   7   6
ATOM      3  C   UNL     1      -1.128   4.104  25.252  0.00  0.00    +0.139 A 
ATOM      4  C   UNL     1      -1.697   4.445  24.762  0.00  0.00    +0.038 A 
ATOM      5  C   UNL     1      -2.498   4.340  24.923  0.00  0.00    +0.020 A 
ATOM      6  C   UNL     1      -2.732   3.894  25.577  0.00  0.00    +0.075 A 
ATOM     35  C   UNL     1      -2.164   3.552  26.069  0.00  0.00    +0.020 A 
ATOM     36  C   UNL     1      -1.362   3.658  25.906  0.00  0.00    +0.038 A 
BRANCH   3   2
ATOM      1  C   UNL     1       0.086   3.639  24.660  0.00  0.00    +0.252 C 
ATOM      2  O   UNL     1      -0.326   4.209  25.090  0.00  0.00    -0.471 OA
ENDBRANCH   3   2
ENDBRANCH   7   6
BRANCH  19  20
ATOM     20  N   UNL     1      -2.747   1.494  24.052  0.00  0.00    -0.171 NA
ATOM     21  C   UNL     1      -2.344   0.776  24.092  0.00  0.00    +0.290 C 
ATOM     22  O   UNL     1      -1.560   0.727  23.837  0.00  0.00    -0.269 OA
BRANCH  21  23
ATOM     23  C   UNL     1      -2.724   0.106  24.388  0.00  0.00    +0.291 C 
BRANCH  23  24
ATOM     24  O   UNL     1      -2.287  -0.573  24.562  0.00  0.00    -0.466 OA
BRANCH  24  25
ATOM     25  C   UNL     1      -2.674  -1.264  24.795  0.00  0.00    +0.139 A 
ATOM     26  C   UNL     1      -2.904  -1.362  25.581  0.00  0.00    +0.037 A 
ATOM     27  C   UNL     1      -3.291  -2.053  25.814  0.00  0.00    +0.003 A 
ATOM     28  C   UNL     1      -3.447  -2.644  25.261  0.00  0.00    +0.000 A 
ATOM     29  C   UNL     1      -3.217  -2.545  24.475  0.00  0.00    +0.003 A 
ATOM     30  C   UNL     1      -2.830  -1.855  24.242  0.00  0.00    +0.037 A 
ENDBRANCH  24  25
ENDBRANCH  23  24
ENDBRANCH  21  23
ENDBRANCH  19  20
TORSDOF 6
ENDMDL
MODEL 3
REMARK VINA RESULT:     -13.4      1.361      4.248
REMARK  Name = 
REMARK  6 active torsions:
REMARK  status: ('A' for Active; 'I' for Inactive)
REMARK    1  A    between atoms: O_2  and  C_3
REMARK    2  A    between atoms: C_6  and  N_7
REMARK    3  A    between atoms: C_19  and  N_20
REMARK    4  A    between atoms: C_21  and  C_23
REMARK    5  A    between atoms: C_23  and  O_24
REMARK    6  A    between atoms: O_24  and  C_25
REMARK                            x       y       z     vdW  Elec       q    Type
REMARK                         _______ _______ _______ _____ _____    ______ ____
ROOT
ATOM      7  N   UNL     1      -0.933  -0.375  25.051  0.00  0.00    -0.162 NA
ATOM      8  C   UNL     1      -1.702  -0.533  24.800  0.00  0.00    +0.327 C 
ATOM      9  O   UNL     1      -2.126   0.041  24.384  0.00  0.00    -0.250 OA
ATOM     10  N   UNL     1      -2.047  -1.264  24.963  0.00  0.00    -0.262 N 
ATOM     11  C   UNL     1      -2.122  -2.042  25.259  0.00  0.00    +0.097 C 
ATOM     12  C   UNL     1      -3.043  -2.244  24.963  0.00  0.00    +0.043 C 
ATOM     13  C   UNL     1      -3.774  -2.561  24.794  0.00  0.00    +0.011 C 
ATOM     14  C   UNL     1      -3.431  -1.958  24.683  0.00  0.00    +0.058 C 
ATOM     15  C   UNL     1      -2.540  -1.778  24.975  0.00  0.00    +0.101 C 
ATOM     16  C   UNL     1      -3.534  -1.132  24.294  0.00  0.00    +0.041 A 
ATOM     17  C   UNL     1      -4.087  -0.684  23.878  0.00  0.00    +0.014 A 
ATOM     18  C   UNL     1      -3.899   0.081  23.634  0.00  0.00    +0.023 A 
ATOM     19  C   UNL     1      -3.157   0.399  23.807  0.00  0.00    +0.129 A 
ATOM     31  C   UNL     1      -2.604  -0.049  24.224  0.00  0.00    +0.276 A 
ATOM     32  O   UNL     1      -1.964   0.469  24.271  0.00  0.00    -0.266 OA
ATOM     33  N   UNL     1      -2.792  -0.814  24.467  0.00  0.00    -0.298 N 
ATOM     34  C   UNL     1      -3.140  -1.378  24.560  0.00  0.00    +0.110 C 
ENDROOT
BRANCH   7   6
ATOM      3  C   UNL     1       0.104   1.819  24.560  0.00  0.00    +0.139 A 
ATOM      4  C   UNL     1      -0.315   1.709  25.262  0.00  0.00    +0.038 A 
ATOM      5  C   UNL     1      -0.661   0.978  25.426  0.00  0.00    +0.020 A 
ATOM      6  C   UNL     1      -0.587   0.357  24.887  0.00  0.00    +0.075 A 
ATOM     35  C   UNL     1      -0.167   0.467  24.185  0.00  0.00    +0.020 A 
ATOM     36  C   UNL     1       0.178   1.198  24.022  0.00  0.00    +0.038 A 
BRANCH   3   2
ATOM      1  C   UNL     1      -0.020   3.224  24.333  0.00  0.00    +0.252 C 
ATOM      2  O   UNL     1       0.449   2.550  24.396  0.00  0.00    -0.471 OA
ENDBRANCH   3   2
ENDBRANCH   7   6
BRANCH  19  20
ATOM     20  N   UNL     1      -2.970   1.164  23.564  0.00  0.00    -0.171 NA
ATOM     21  C   UNL     1      -3.486   1.787  23.727  0.00  0.00    +0.290 C 
ATOM     22  O   UNL     1      -3.298   2.553  23.483  0.00  0.00    -0.269 OA
BRANCH  21  23
ATOM     23  C   UNL     1      -4.189   1.645  24.134  0.00  0.00    +0.291 C 
BRANCH  23  24
ATOM     24  O   UNL     1      -4.739   2.253  24.233  0.00  0.00    -0.466 OA
BRANCH  24  25
ATOM     25  C   UNL     1      -5.251   2.244  24.880  0.00  0.00    +0.139 A 
ATOM     26  C   UNL     1      -5.960   1.824  24.838  0.00  0.00    +0.037 A 
ATOM     27  C   UNL     1      -6.472   1.815  25.485  0.00  0.00    +0.003 A 
ATOM     28  C   UNL     1      -6.276   2.226  26.172  0.00  0.00    +0.000 A 
ATOM     29  C   UNL     1      -5.567   2.646  26.213  0.00  0.00    +0.003 A 
ATOM     30  C   UNL     1      -5.054   2.655  25.567  0.00  0.00    +0.037 A 
ENDBRANCH  24  25
ENDBRANCH  23  24
ENDBRANCH  21  23
ENDBRANCH  19  20
TORSDOF 6
ENDMDL
MODEL 4
REMARK VINA RESULT:     -12.9      1.310      3.610
REMARK  Name = 
REMARK  6 active torsions:
REMARK  status: ('A' for Active; 'I' for Inactive)
REMARK    1  A    between atoms: O_2  and  C_3
REMARK    2  A    between atoms: C_6  and  N_7
REMARK    3  A    between atoms: C_19  and  N_20
REMARK    4  A    between atoms: C_21  and  C_23
REMARK    5  A    between atoms: C_23  and  O_24
REMARK    6  A    between atoms: O_24  and  C_25
REMARK                            x       y       z     vdW  Elec       q    Type
REMARK                         _______ _______ _______ _____ _____    ______ ____
ROOT
ATOM      7  N   UNL     1      -0.578   0.360  25.678  0.00  0.00    -0.162 NA
ATOM      8  C   UNL     1      -0.850   1.076  25.373  0.00  0.00    +0.327 C 
ATOM      9  O   UNL     1      -1.444   1.081  24.800  0.00  0.00    -0.250 OA
ATOM     10  N   UNL     1      -0.528   1.787  25.641  0.00  0.00    -0.262 N 
ATOM     11  C   UNL     1      -0.042   2.306  26.079  0.00  0.00    +0.097 C 
ATOM     12  C   UNL     1      -0.359   3.171  25.721  0.00  0.00    +0.043 C 
ATOM     13  C   UNL     1      -0.505   3.950  25.533  0.00  0.00    +0.011 C 
ATOM     14  C   UNL     1      -0.742   3.317  25.343  0.00  0.00    +0.058 C 
ATOM     15  C   UNL     1      -0.425   2.490  25.698  0.00  0.00    +0.101 C 
ATOM     16  C   UNL     1      -1.347   2.913  24.783  0.00  0.00    +0.041 A 
ATOM     17  C   UNL     1      -1.920   3.097  24.219  0.00  0.00    +0.014 A 
ATOM     18  C   UNL     1      -2.342   2.493  23.847  0.00  0.00    +0.023 A 
ATOM     19  C   UNL     1      -2.192   1.705  24.040  0.00  0.00    +0.129 A 
ATOM     31  C   UNL     1      -1.619   1.521  24.604  0.00  0.00    +0.276 A 
ATOM     32  O   UNL     1      -1.653   0.697  24.621  0.00  0.00    -0.266 OA
ATOM     33  N   UNL     1      -1.197   2.125  24.976  0.00  0.00    -0.298 N 
ATOM     34  C   UNL     1      -0.989   2.740  25.139  0.00  0.00    +0.110 C 
ENDROOT
BRANCH   7   6
ATOM      3  C   UNL     1      -1.544  -1.774  24.876  0.00  0.00    +0.139 A 
ATOM      4  C   UNL     1      -1.867  -1.396  25.534  0.00  0.00    +0.038 A 
ATOM      5  C   UNL     1      -1.546  -0.685  25.802  0.00  0.00    +0.020 A 
ATOM      6  C   UNL     1      -0.900  -0.352  25.411  0.00  0.00    +0.075 A 
ATOM     35  C   UNL     1      -0.576  -0.729  24.752  0.00  0.00    +0.020 A 
ATOM     36  C   UNL     1      -0.898  -1.440  24.485  0.00  0.00    +0.038 A 
BRANCH   3   2
ATOM      1  C   UNL     1      -2.682  -2.569  24.537  0.00  0.00    +0.252 C 
ATOM      2  O   UNL     1      -1.865  -2.485  24.608  0.00  0.00    -0.471 OA
ENDBRANCH   3   2
ENDBRANCH   7   6
BRANCH  19  20
ATOM     20  N   UNL     1      -2.614   1.102  23.669  0.00  0.00    -0.171 NA
ATOM     21  C   UNL     1      -3.438   1.098  23.696  0.00  0.00    +0.290 C 
ATOM     22  O   UNL     1      -3.861   0.494  23.324  0.00  0.00    -0.269 OA
BRANCH  21  23
ATOM     23  C   UNL     1      -3.841   1.699  24.094  0.00  0.00    +0.291 C 
BRANCH  23  24
ATOM     24  O   UNL     1      -4.665   1.681  24.142  0.00  0.00    -0.466 OA
BRANCH  24  25
ATOM     25  C   UNL     1      -5.049   2.052  24.771  0.00  0.00    +0.139 A 
ATOM     26  C   UNL     1      -5.106   2.874  24.792  0.00  0.00    +0.037 A 
ATOM     27  C   UNL     1      -5.490   3.245  25.421  0.00  0.00    +0.003 A 
ATOM     28  C   UNL     1      -5.817   2.793  26.028  0.00  0.00    +0.000 A 
ATOM     29  C   UNL     1      -5.760   1.971  26.007  0.00  0.00    +0.003 A 
ATOM     30  C   UNL     1      -5.376   1.600  25.378  0.00  0.00    +0.037 A 
ENDBRANCH  24  25
ENDBRANCH  23  24
ENDBRANCH  21  23
ENDBRANCH  19  20
TORSDOF 6
ENDMDL
