MODEL 1
REMARK VINA RESULT:      -9.0      0.000      0.000
REMARK  Name = 
REMARK  6 active torsions:
REMARK  status: ('A' for Active; 'I' for Inactive)
REMARK    1  A    between atoms: O_2  and  C_3
REMARK    2  A    between atoms: C_3  and  C_5
REMARK    3  A    between atoms: C_5  and  O_6
REMARK    4  A    between atoms: O_6  and  C_7
REMARK    5  A    between atoms: C_11  and  N_15
REMARK    6  A    between atoms: C_18  and  C_22
REMARK                            x       y       z     vdW  Elec       q    Type
REMARK                         _______ _______ _______ _____ _____    ______ ____
ROOT
ATOM     15  N   UNL     1      -1.070   1.164  24.595  0.00  0.00    -0.200 NA
ATOM     16  C   UNL     1      -1.662   1.715  24.432  0.00  0.00    +0.237 A 
ATOM     17  N   UNL     1      -2.440   1.569  24.668  0.00  0.00    -0.212 NA
ATOM     18  C   UNL     1      -3.031   2.120  24.505  0.00  0.00    +0.086 A 
ATOM     19  C   UNL     1      -2.845   2.818  24.105  0.00  0.00    +0.040 A 
ATOM     20  C   UNL     1      -2.069   2.964  23.870  0.00  0.00    +0.103 A 
ATOM     21  N   UNL     1      -1.477   2.413  24.033  0.00  0.00    -0.211 NA
ENDROOT
BRANCH  18  22
ATOM     22  C   UNL     1      -3.807   1.973  24.740  0.00  0.00    +0.021 A 
ATOM     23  C   UNL     1      -4.196   2.506  25.235  0.00  0.00    +0.042 A 
ATOM     24  C   UNL     1      -4.973   2.360  25.472  0.00  0.00    +0.176 A 
ATOM     25  C   UNL     1      -5.361   1.680  25.212  0.00  0.00    +0.176 A 
ATOM     26  O   UNL     1      -6.120   1.682  25.533  0.00  0.00    -0.435 OA
ATOM     27  C   UNL     1      -6.202   2.362  25.991  0.00  0.00    +0.429 C 
ATOM     28  O   UNL     1      -5.492   2.781  25.953  0.00  0.00    -0.435 OA
ATOM     29  C   UNL     1      -4.972   1.146  24.716  0.00  0.00    +0.040 A 
ATOM     30  C   UNL     1      -4.196   1.293  24.481  0.00  0.00    +0.005 A 
ENDBRANCH  18  22
BRANCH  15  11
ATOM      7  C   UNL     1       1.376   0.679  23.330  0.00  0.00    +0.175 C 
ATOM      8  C   UNL     1       0.930   0.011  23.143  0.00  0.00    +0.174 C 
ATOM      9  O   UNL     1       0.187   0.094  23.492  0.00  0.00    -0.349 OA
ATOM     10  C   UNL     1       0.174   0.814  23.894  0.00  0.00    +0.167 C 
ATOM     11  C   UNL     1      -0.294   1.310  24.359  0.00  0.00    +0.154 C 
ATOM     12  C   UNL     1       0.152   1.979  24.545  0.00  0.00    +0.166 C 
ATOM     13  O   UNL     1       0.895   1.895  24.197  0.00  0.00    -0.349 OA
ATOM     14  C   UNL     1       0.909   1.176  23.794  0.00  0.00    +0.173 C 
BRANCH   7   6
ATOM      6  O   UNL     1       2.152   0.826  23.094  0.00  0.00    -0.340 OA
BRANCH   6   5
ATOM      5  C   UNL     1       2.628   0.205  22.831  0.00  0.00    +0.252 C 
BRANCH   5   3
ATOM      3  C   UNL     1       3.426   0.337  22.668  0.00  0.00    +0.348 C 
ATOM      4  O   UNL     1       3.643   0.839  22.051  0.00  0.00    -0.247 OA
BRANCH   3   2
ATOM      1  C   UNL     1       4.788   0.225  23.084  0.00  0.00    +0.256 C 
ATOM      2  O   UNL     1       4.006  -0.033  23.122  0.00  0.00    -0.443 OA
ENDBRANCH   3   2
ENDBRANCH   5   3
ENDBRANCH   6   5
ENDBRANCH   7   6
ENDBRANCH  15  11
TORSDOF 6
ENDMDL
MODEL 2
REMARK VINA RESULT:      -7.9      2.113      2.657
REMARK  Name = 
REMARK  6 active torsions:
REMARK  status: ('A' for Active; 'I' for Inactive)
REMARK    1  A    between atoms: O_2  and  C_3
REMARK    2  A    between atoms: C_3  and  C_5
REMARK    3  A    between atoms: C_5  and  O_6
REMARK    4  A    between atoms: O_6  and  C_7
REMARK    5  A    between atoms: C_11  and  N_15
REMARK    6  A    between atoms: C_18  and  C_22
REMARK                            x       y       z     vdW  Elec       q    Type
REMARK                         _______ _______ _______ _____ _____    ______ ____
ROOT
ATOM     15  N   UNL     1      -0.170   0.387  23.368  0.00  0.00    -0.200 NA
ATOM     16  C   UNL     1      -0.640   0.223  24.026  0.00  0.00    +0.237 A 
ATOM     17  N   UNL     1      -1.403  -0.076  23.925  0.00  0.00    -0.212 NA
ATOM     18  C   UNL     1      -1.872  -0.240  24.583  0.00  0.00    +0.086 A 
ATOM     19  C   UNL     1      -1.579  -0.106  25.342  0.00  0.00    +0.040 A 
ATOM     20  C   UNL     1      -0.817   0.193  25.444  0.00  0.00    +0.103 A 
ATOM     21  N   UNL     1      -0.347   0.357  24.786  0.00  0.00    -0.211 NA
ENDROOT
BRANCH  18  22
ATOM     22  C   UNL     1      -2.634  -0.538  24.482  0.00  0.00    +0.021 A 
ATOM     23  C   UNL     1      -2.745  -1.337  24.310  0.00  0.00    +0.042 A 
ATOM     24  C   UNL     1      -3.507  -1.636  24.209  0.00  0.00    +0.176 A 
ATOM     25  C   UNL     1      -4.159  -1.135  24.279  0.00  0.00    +0.176 A 
ATOM     26  O   UNL     1      -4.839  -1.582  24.151  0.00  0.00    -0.435 OA
ATOM     27  C   UNL     1      -4.609  -2.360  24.001  0.00  0.00    +0.429 C 
ATOM     28  O   UNL     1      -3.786  -2.393  24.037  0.00  0.00    -0.435 OA
ATOM     29  C   UNL     1      -4.048  -0.335  24.451  0.00  0.00    +0.040 A 
ATOM     30  C   UNL     1      -3.286  -0.037  24.552  0.00  0.00    +0.005 A 
ENDBRANCH  18  22
BRANCH  15  11
ATOM      7  C   UNL     1       2.589   0.603  22.969  0.00  0.00    +0.175 C 
ATOM      8  C   UNL     1       2.373  -0.015  22.467  0.00  0.00    +0.174 C 
ATOM      9  O   UNL     1       1.559  -0.129  22.540  0.00  0.00    -0.349 OA
ATOM     10  C   UNL     1       1.273   0.418  23.087  0.00  0.00    +0.167 C 
ATOM     11  C   UNL     1       0.592   0.685  23.469  0.00  0.00    +0.154 C 
ATOM     12  C   UNL     1       0.809   1.303  23.971  0.00  0.00    +0.166 C 
ATOM     13  O   UNL     1       1.622   1.418  23.898  0.00  0.00    -0.349 OA
ATOM     14  C   UNL     1       1.909   0.871  23.352  0.00  0.00    +0.173 C 
BRANCH   7   6
ATOM      6  O   UNL     1       3.351   0.902  23.070  0.00  0.00    -0.340 OA
BRANCH   6   5
ATOM      5  C   UNL     1       4.003   0.463  22.817  0.00  0.00    +0.252 C 
BRANCH   5   3
ATOM      3  C   UNL     1       4.738   0.574  23.175  0.00  0.00    +0.348 C 
ATOM      4  O   UNL     1       4.900   1.275  23.577  0.00  0.00    -0.247 OA
BRANCH   3   2
ATOM      1  C   UNL     1       5.818  -0.151  23.767  0.00  0.00    +0.256 C 
ATOM      2  O   UNL     1       5.311  -0.018  23.131  0.00  0.00    -0.443 OA
ENDBRANCH   3   2
ENDBRANCH   5   3
ENDBRANCH   6   5
ENDBRANCH   7   6
ENDBRANCH  15  11
TORSDOF 6
ENDMDL
MODEL 3
REMARK VINA RESULT:      -7.5      1.293      6.822
REMARK  Name = 
REMARK  6 active torsions:
REMARK  status: ('A' for Active; 'I' for Inactive)
REMARK    1  A    between atoms: O_2  and  C_3
REMARK    2  A    between atoms: C_3  and  C_5
REMARK    3  A    between atoms: C_5  and  O_6
REMARK    4  A    between atoms: O_6  and  C_7
REMARK    5  A    between atoms: C_11  and  N_15
REMARK    6  A    between atoms: C_18  and  C_22
REMARK                            x       y       z     vdW  Elec       q    Type
REMARK                         _______ _______ _______ _____ _____    ______ ____
ROOT
ATOM     15  N   UNL     1      -0.930   1.400  23.878  0.00  0.00    -0.200 NA
ATOM     16  C   UNL     1      -0.448   0.734  23.812  0.00  0.00    +0.237 A 
ATOM     17  N   UNL     1       0.285   0.790  23.437  0.00  0.00    -0.212 NA
ATOM     18  C   UNL     1       0.767   0.124  23.371  0.00  0.00    +0.086 A 
ATOM     19  C   UNL     1       0.516  -0.599  23.680  0.00  0.00    +0.040 A 
ATOM     20  C   UNL     1      -0.216  -0.655  24.055  0.00  0.00    +0.103 A 
ATOM     21  N   UNL     1      -0.698   0.011  24.122  0.00  0.00    -0.211 NA
ENDROOT
BRANCH  18  22
ATOM     22  C   UNL     1       1.499   0.180  22.995  0.00  0.00    +0.021 A 
ATOM     23  C   UNL     1       2.108   0.613  23.343  0.00  0.00    +0.042 A 
ATOM     24  C   UNL     1       2.841   0.670  22.968  0.00  0.00    +0.176 A 
ATOM     25  C   UNL     1       2.964   0.293  22.244  0.00  0.00    +0.176 A 
ATOM     26  O   UNL     1       3.738   0.445  22.005  0.00  0.00    -0.435 OA
ATOM     27  C   UNL     1       4.094   0.916  22.581  0.00  0.00    +0.429 C 
ATOM     28  O   UNL     1       3.540   1.055  23.175  0.00  0.00    -0.435 OA
ATOM     29  C   UNL     1       2.354  -0.141  21.896  0.00  0.00    +0.040 A 
ATOM     30  C   UNL     1       1.622  -0.197  22.272  0.00  0.00    +0.005 A 
ENDBRANCH  18  22
BRANCH  15  11
ATOM      7  C   UNL     1      -3.678   1.769  24.240  0.00  0.00    +0.175 C 
ATOM      8  C   UNL     1      -3.530   2.139  23.518  0.00  0.00    +0.174 C 
ATOM      9  O   UNL     1      -2.725   2.064  23.353  0.00  0.00    -0.349 OA
ATOM     10  C   UNL     1      -2.376   1.648  23.973  0.00  0.00    +0.167 C 
ATOM     11  C   UNL     1      -1.662   1.343  24.254  0.00  0.00    +0.154 C 
ATOM     12  C   UNL     1      -1.810   0.973  24.976  0.00  0.00    +0.166 C 
ATOM     13  O   UNL     1      -2.615   1.048  25.141  0.00  0.00    -0.349 OA
ATOM     14  C   UNL     1      -2.964   1.465  24.522  0.00  0.00    +0.173 C 
BRANCH   7   6
ATOM      6  O   UNL     1      -4.410   1.713  24.615  0.00  0.00    -0.340 OA
BRANCH   6   5
ATOM      5  C   UNL     1      -4.931   2.352  24.601  0.00  0.00    +0.252 C 
BRANCH   5   3
ATOM      3  C   UNL     1      -5.579   2.367  25.112  0.00  0.00    +0.348 C 
ATOM      4  O   UNL     1      -6.232   1.885  24.965  0.00  0.00    -0.247 OA
BRANCH   3   2
ATOM      1  C   UNL     1      -5.965   3.590  25.742  0.00  0.00    +0.256 C 
ATOM      2  O   UNL     1      -5.573   2.865  25.770  0.00  0.00    -0.443 OA
ENDBRANCH   3   2
ENDBRANCH   5   3
ENDBRANCH   6   5
ENDBRANCH   7   6
ENDBRANCH  15  11
TORSDOF 6
ENDMDL
MODEL 4
REMARK VINA RESULT:      -7.5      1.435      7.077
REMARK  Name = 
REMARK  6 active torsions:
REMARK  status: ('A' for Active; 'I' for Inactive)
REMARK    1  A    between atoms: O_2  and  C_3
REMARK    2  A    between atoms: C_3  and  C_5
REMARK    3  A    between atoms: C_5  and  O_6
REMARK    4  A    between atoms: O_6  and  C_7
REMARK    5  A    between atoms: C_11  and  N_15
REMARK    6  A    between atoms: C_18  and  C_22
REMARK                            x       y       z     vdW  Elec       q    Type
REMARK                         _______ _______ _______ _____ _____    ______ ____
ROOT
ATOM     15  N   UNL     1       0.562   1.229  24.100  0.00  0.00    -0.200 NA
ATOM     16  C   UNL     1       0.983   0.770  23.559  0.00  0.00    +0.237 A 
ATOM     17  N   UNL     1       1.808   0.802  23.545  0.00  0.00    -0.212 NA
ATOM     18  C   UNL     1       2.230   0.343  23.004  0.00  0.00    +0.086 A 
ATOM     19  C   UNL     1       1.826  -0.147  22.478  0.00  0.00    +0.040 A 
ATOM     20  C   UNL     1       1.003  -0.179  22.491  0.00  0.00    +0.103 A 
ATOM     21  N   UNL     1       0.581   0.279  23.032  0.00  0.00    -0.211 NA
ENDROOT
BRANCH  18  22
ATOM     22  C   UNL     1       3.053   0.375  22.991  0.00  0.00    +0.021 A 
ATOM     23  C   UNL     1       3.495  -0.197  23.387  0.00  0.00    +0.042 A 
ATOM     24  C   UNL     1       4.320  -0.165  23.374  0.00  0.00    +0.176 A 
ATOM     25  C   UNL     1       4.702   0.440  22.963  0.00  0.00    +0.176 A 
ATOM     26  O   UNL     1       5.515   0.330  23.047  0.00  0.00    -0.435 OA
ATOM     27  C   UNL     1       5.635  -0.342  23.508  0.00  0.00    +0.429 C 
ATOM     28  O   UNL     1       4.897  -0.648  23.710  0.00  0.00    -0.435 OA
ATOM     29  C   UNL     1       4.260   1.013  22.566  0.00  0.00    +0.040 A 
ATOM     30  C   UNL     1       3.436   0.980  22.580  0.00  0.00    +0.005 A 
ENDBRANCH  18  22
BRANCH  15  11
ATOM      7  C   UNL     1      -2.056   2.204  24.240  0.00  0.00    +0.175 C 
ATOM      8  C   UNL     1      -1.595   2.887  24.292  0.00  0.00    +0.174 C 
ATOM      9  O   UNL     1      -0.802   2.663  24.256  0.00  0.00    -0.349 OA
ATOM     10  C   UNL     1      -0.772   1.842  24.182  0.00  0.00    +0.167 C 
ATOM     11  C   UNL     1      -0.262   1.197  24.113  0.00  0.00    +0.154 C 
ATOM     12  C   UNL     1      -0.722   0.514  24.061  0.00  0.00    +0.166 C 
ATOM     13  O   UNL     1      -1.516   0.737  24.097  0.00  0.00    -0.349 OA
ATOM     14  C   UNL     1      -1.546   1.558  24.172  0.00  0.00    +0.173 C 
BRANCH   7   6
ATOM      6  O   UNL     1      -2.879   2.172  24.253  0.00  0.00    -0.340 OA
BRANCH   6   5
ATOM      5  C   UNL     1      -3.312   2.802  24.564  0.00  0.00    +0.252 C 
BRANCH   5   3
ATOM      3  C   UNL     1      -4.124   2.725  24.686  0.00  0.00    +0.348 C 
ATOM      4  O   UNL     1      -4.620   2.536  24.055  0.00  0.00    -0.247 OA
BRANCH   3   2
ATOM      1  C   UNL     1      -5.232   3.047  25.528  0.00  0.00    +0.256 C 
ATOM      2  O   UNL     1      -4.440   2.836  25.439  0.00  0.00    -0.443 OA
ENDBRANCH   3   2
ENDBRANCH   5   3
ENDBRANCH   6   5
ENDBRANCH   7   6
ENDBRANCH  15  11
TORSDOF 6
ENDMDL
MODEL 5
REMARK VINA RESULT:      -6.6     14.982     15.913
REMARK  Name = 
REMARK  6 active torsions:
REMARK  status: ('A' for Active; 'I' for Inactive)
REMARK    1  A    between atoms: O_2  and  C_3
REMARK    2  A    between atoms: C_3  and  C_5
REMARK    3  A    between atoms: C_5  and  O_6
REMARK    4  A    between atoms: O_6  and  C_7
REMARK    5  A    between atoms: C_11  and  N_15
REMARK    6  A    between atoms: C_18  and  C_22
REMARK                            x       y       z     vdW  Elec       q    Type
REMARK                         _______ _______ _______ _____ _____    ______ ____
ROOT
ATOM     15  N   UNL     1      -5.748 -10.480  14.933  0.00  0.00    -0.200 NA
ATOM     16  C   UNL     1      -5.330 -10.487  15.645  0.00  0.00    +0.237 A 
ATOM     17  N   UNL     1      -5.737 -10.546  16.361  0.00  0.00    -0.212 NA
ATOM     18  C   UNL     1      -5.319 -10.552  17.073  0.00  0.00    +0.086 A 
ATOM     19  C   UNL     1      -4.496 -10.500  17.068  0.00  0.00    +0.040 A 
ATOM     20  C   UNL     1      -4.090 -10.441  16.353  0.00  0.00    +0.103 A 
ATOM     21  N   UNL     1      -4.507 -10.434  15.642  0.00  0.00    -0.211 NA
ENDROOT
BRANCH  18  22
ATOM     22  C   UNL     1      -5.725 -10.612  17.788  0.00  0.00    +0.021 A 
ATOM     23  C   UNL     1      -6.549 -10.610  17.796  0.00  0.00    +0.042 A 
ATOM     24  C   UNL     1      -6.956 -10.670  18.511  0.00  0.00    +0.176 A 
ATOM     25  C   UNL     1      -6.537 -10.730  19.220  0.00  0.00    +0.176 A 
ATOM     26  O   UNL     1      -7.083 -10.781  19.835  0.00  0.00    -0.435 OA
ATOM     27  C   UNL     1      -7.840 -10.751  19.508  0.00  0.00    +0.429 C 
ATOM     28  O   UNL     1      -7.761 -10.683  18.690  0.00  0.00    -0.435 OA
ATOM     29  C   UNL     1      -5.712 -10.731  19.212  0.00  0.00    +0.040 A 
ATOM     30  C   UNL     1      -5.306 -10.672  18.496  0.00  0.00    +0.005 A 
ENDBRANCH  18  22
BRANCH  15  11
ATOM      7  C   UNL     1      -5.259  -9.659  12.305  0.00  0.00    +0.175 C 
ATOM      8  C   UNL     1      -5.981  -9.302  12.485  0.00  0.00    +0.174 C 
ATOM      9  O   UNL     1      -6.183  -9.508  13.258  0.00  0.00    -0.349 OA
ATOM     10  C   UNL     1      -5.586  -9.993  13.555  0.00  0.00    +0.167 C 
ATOM     11  C   UNL     1      -5.342 -10.421  14.218  0.00  0.00    +0.154 C 
ATOM     12  C   UNL     1      -4.620 -10.778  14.038  0.00  0.00    +0.166 C 
ATOM     13  O   UNL     1      -4.419 -10.572  13.266  0.00  0.00    -0.349 OA
ATOM     14  C   UNL     1      -5.015 -10.087  12.967  0.00  0.00    +0.173 C 
BRANCH   7   6
ATOM      6  O   UNL     1      -4.854  -9.600  11.590  0.00  0.00    -0.340 OA
BRANCH   6   5
ATOM      5  C   UNL     1      -5.208  -9.228  10.944  0.00  0.00    +0.252 C 
BRANCH   5   3
ATOM      3  C   UNL     1      -4.802  -9.170  10.228  0.00  0.00    +0.348 C 
ATOM      4  O   UNL     1      -4.106  -8.730  10.182  0.00  0.00    -0.247 OA
BRANCH   3   2
ATOM      1  C   UNL     1      -4.762  -9.401   8.818  0.00  0.00    +0.256 C 
ATOM      2  O   UNL     1      -5.093  -9.554   9.558  0.00  0.00    -0.443 OA
ENDBRANCH   3   2
ENDBRANCH   5   3
ENDBRANCH   6   5
ENDBRANCH   7   6
ENDBRANCH  15  11
TORSDOF 6
ENDMDL
MODEL 6
REMARK VINA RESULT:      -6.4     15.756     17.151
REMARK  Name = 
REMARK  6 active torsions:
REMARK  status: ('A' for Active; 'I' for Inactive)
REMARK    1  A    between atoms: O_2  and  C_3
REMARK    2  A    between atoms: C_3  and  C_5
REMARK    3  A    between atoms: C_5  and  O_6
REMARK    4  A    between atoms: O_6  and  C_7
REMARK    5  A    between atoms: C_11  and  N_15
REMARK    6  A    between atoms: C_18  and  C_22
REMARK                            x       y       z     vdW  Elec       q    Type
REMARK                         _______ _______ _______ _____ _____    ______ ____
ROOT
ATOM     15  N   UNL     1      -5.370 -10.229  13.459  0.00  0.00    -0.200 NA
ATOM     16  C   UNL     1      -5.674  -9.792  12.828  0.00  0.00    +0.237 A 
ATOM     17  N   UNL     1      -5.299  -9.815  12.092  0.00  0.00    -0.212 NA
ATOM     18  C   UNL     1      -5.602  -9.378  11.462  0.00  0.00    +0.086 A 
ATOM     19  C   UNL     1      -6.280  -8.919  11.566  0.00  0.00    +0.040 A 
ATOM     20  C   UNL     1      -6.654  -8.897  12.300  0.00  0.00    +0.103 A 
ATOM     21  N   UNL     1      -6.351  -9.333  12.931  0.00  0.00    -0.211 NA
ENDROOT
BRANCH  18  22
ATOM     22  C   UNL     1      -5.228  -9.401  10.727  0.00  0.00    +0.021 A 
ATOM     23  C   UNL     1      -5.493  -9.921  10.145  0.00  0.00    +0.042 A 
ATOM     24  C   UNL     1      -5.119  -9.943   9.410  0.00  0.00    +0.176 A 
ATOM     25  C   UNL     1      -4.479  -9.446   9.258  0.00  0.00    +0.176 A 
ATOM     26  O   UNL     1      -4.222  -9.590   8.488  0.00  0.00    -0.435 OA
ATOM     27  C   UNL     1      -4.702 -10.176   8.164  0.00  0.00    +0.429 C 
ATOM     28  O   UNL     1      -5.256 -10.394   8.734  0.00  0.00    -0.435 OA
ATOM     29  C   UNL     1      -4.213  -8.925   9.841  0.00  0.00    +0.040 A 
ATOM     30  C   UNL     1      -4.588  -8.903  10.575  0.00  0.00    +0.005 A 
ENDBRANCH  18  22
BRANCH  15  11
ATOM      7  C   UNL     1      -5.579 -10.187  16.247  0.00  0.00    +0.175 C 
ATOM      8  C   UNL     1      -4.764 -10.217  16.118  0.00  0.00    +0.174 C 
ATOM      9  O   UNL     1      -4.636 -10.232  15.303  0.00  0.00    -0.349 OA
ATOM     10  C   UNL     1      -5.370 -10.211  14.929  0.00  0.00    +0.167 C 
ATOM     11  C   UNL     1      -5.744 -10.206  14.193  0.00  0.00    +0.154 C 
ATOM     12  C   UNL     1      -6.559 -10.176  14.323  0.00  0.00    +0.166 C 
ATOM     13  O   UNL     1      -6.688 -10.161  15.137  0.00  0.00    -0.349 OA
ATOM     14  C   UNL     1      -5.954 -10.183  15.512  0.00  0.00    +0.173 C 
BRANCH   7   6
ATOM      6  O   UNL     1      -5.953 -10.164  16.982  0.00  0.00    -0.340 OA
BRANCH   6   5
ATOM      5  C   UNL     1      -5.550 -10.413  17.657  0.00  0.00    +0.252 C 
BRANCH   5   3
ATOM      3  C   UNL     1      -5.936 -10.424  18.386  0.00  0.00    +0.348 C 
ATOM      4  O   UNL     1      -6.681 -10.078  18.465  0.00  0.00    -0.247 OA
BRANCH   3   2
ATOM      1  C   UNL     1      -5.956 -10.781  19.770  0.00  0.00    +0.256 C 
ATOM      2  O   UNL     1      -5.577 -10.781  19.037  0.00  0.00    -0.443 OA
ENDBRANCH   3   2
ENDBRANCH   5   3
ENDBRANCH   6   5
ENDBRANCH   7   6
ENDBRANCH  15  11
TORSDOF 6
ENDMDL
