MODEL 1
REMARK VINA RESULT:     -12.7      0.000      0.000
REMARK  Name = 
REMARK  8 active torsions:
REMARK  status: ('A' for Active; 'I' for Inactive)
REMARK    1  A    between atoms: C_4  and  C_5
REMARK    2  A    between atoms: C_5  and  N_6
REMARK    3  A    between atoms: N_6  and  C_7
REMARK    4  A    between atoms: C_12  and  C_13
REMARK    5  A    between atoms: C_13  and  C_14
REMARK    6  A    between atoms: C_14  and  C_15
REMARK    7  A    between atoms: N_17  and  C_18
REMARK    8  A    between atoms: C_18  and  C_19
REMARK                            x       y       z     vdW  Elec       q    Type
REMARK                         _______ _______ _______ _____ _____    ______ ____
ROOT
ATOM      7  C   UNL     1      -1.021   0.710  25.075  0.00  0.00    +0.091 C 
ATOM      8  C   UNL     1      -0.320   0.955  24.714  0.00  0.00    +0.044 C 
ATOM      9  C   UNL     1      -0.263   1.773  24.799  0.00  0.00    +0.138 C 
ATOM     10  N   UNL     1      -0.928   2.034  25.212  0.00  0.00    -0.265 NA
ATOM     11  C   UNL     1      -1.396   1.377  25.382  0.00  0.00    +0.090 C 
ATOM     12  C   UNL     1      -1.021   2.836  25.379  0.00  0.00    +0.080 C 
ATOM     25  C   UNL     1      -0.449   3.378  25.133  0.00  0.00    +0.131 C 
ATOM     26  N   UNL     1       0.216   3.117  24.721  0.00  0.00    -0.203 NA
ATOM     27  C   UNL     1       0.309   2.315  24.553  0.00  0.00    +0.256 C 
ATOM     28  O   UNL     1       0.974   2.054  24.140  0.00  0.00    -0.272 OA
ENDROOT
BRANCH   7   6
ATOM      6  N   UNL     1      -1.297  -0.067  25.120  0.00  0.00    -0.213 NA
BRANCH   6   5
ATOM      5  C   UNL     1      -2.072  -0.243  24.904  0.00  0.00    +0.116 C 
BRANCH   5   4
ATOM      1  C   UNL     1      -1.972  -3.127  24.586  0.00  0.00    +0.130 C 
ATOM      2  N   UNL     1      -2.242  -2.349  24.596  0.00  0.00    -0.324 N 
ATOM      3  C   UNL     1      -1.802  -1.685  24.813  0.00  0.00    +0.073 A 
ATOM      4  C   UNL     1      -2.289  -1.023  24.743  0.00  0.00    +0.014 A 
ATOM     29  C   UNL     1      -3.029  -1.276  24.482  0.00  0.00    +0.015 A 
ATOM     30  C   UNL     1      -3.001  -2.096  24.391  0.00  0.00    +0.060 A 
ATOM     31  C   UNL     1      -3.669  -2.505  24.134  0.00  0.00    +0.017 A 
ATOM     32  C   UNL     1      -4.366  -2.096  23.968  0.00  0.00    +0.001 A 
ATOM     33  C   UNL     1      -4.394  -1.277  24.058  0.00  0.00    +0.000 A 
ATOM     34  C   UNL     1      -3.726  -0.866  24.316  0.00  0.00    +0.001 A 
ENDBRANCH   5   4
ENDBRANCH   6   5
ENDBRANCH   7   6
BRANCH  12  13
ATOM     13  C   UNL     1      -1.686   3.097  25.792  0.00  0.00    +0.027 C 
BRANCH  13  14
ATOM     14  C   UNL     1      -2.121   3.739  25.510  0.00  0.00    +0.088 C 
BRANCH  14  15
ATOM     15  C   UNL     1      -2.897   3.856  25.765  0.00  0.00    +0.242 C 
ATOM     16  O   UNL     1      -3.054   4.378  26.384  0.00  0.00    -0.273 OA
ATOM     17  N   UNL     1      -3.516   3.450  25.400  0.00  0.00    -0.201 NA
BRANCH  17  18
ATOM     18  C   UNL     1      -4.292   3.566  25.655  0.00  0.00    +0.141 C 
BRANCH  18  19
ATOM     19  C   UNL     1      -4.873   3.011  25.471  0.00  0.00    -0.001 A 
ATOM     20  C   UNL     1      -5.400   2.756  26.053  0.00  0.00    -0.003 A 
ATOM     21  C   UNL     1      -5.982   2.201  25.870  0.00  0.00    -0.000 A 
ATOM     22  C   UNL     1      -6.037   1.900  25.104  0.00  0.00    -0.000 A 
ATOM     23  C   UNL     1      -5.510   2.154  24.521  0.00  0.00    -0.000 A 
ATOM     24  C   UNL     1      -4.929   2.709  24.705  0.00  0.00    -0.003 A 
ENDBRANCH  18  19
ENDBRANCH  17  18
ENDBRANCH  14  15
ENDBRANCH  13  14
ENDBRANCH  12  13
TORSDOF 8
ENDMDL
MODEL 2
REMARK VINA RESULT:     -12.4      1.379      3.905
REMARK  Name = 
REMARK  8 active torsions:
REMARK  status: ('A' for Active; 'I' for Inactive)
REMARK    1  A    between atoms: C_4  and  C_5
REMARK    2  A    between atoms: C_5  and  N_6
REMARK    3  A    between atoms: N_6  and  C_7
REMARK    4  A    between atoms: C_12  and  C_13
REMARK    5  A    between atoms: C_13  and  C_14
REMARK    6  A    between atoms: C_14  and  C_15
REMARK    7  A    between atoms: N_17  and  C_18
REMARK    8  A    between atoms: C_18  and  C_19
REMARK                            x       y       z     vdW  Elec       q    Type
REMARK                         _______ _______ _______ _____ _____    ______ ____
ROOT
ATOM      7  C   UNL     1      -4.610   0.948  24.860  0.00  0.00    +0.091 C 
ATOM      8  C   UNL     1      -5.319   1.107  25.252  0.00  0.00    +0.044 C 
ATOM      9  C   UNL     1      -5.361   1.922  25.379  0.00  0.00    +0.138 C 
ATOM     10  N   UNL     1      -4.679   2.265  25.067  0.00  0.00    -0.265 NA
ATOM     11  C   UNL     1      -4.216   1.663  24.746  0.00  0.00    +0.090 C 
ATOM     12  C   UNL     1      -4.569   3.080  25.115  0.00  0.00    +0.080 C 
ATOM     25  C   UNL     1      -5.140   3.554  25.476  0.00  0.00    +0.131 C 
ATOM     26  N   UNL     1      -5.822   3.211  25.789  0.00  0.00    -0.203 NA
ATOM     27  C   UNL     1      -5.932   2.394  25.740  0.00  0.00    +0.256 C 
ATOM     28  O   UNL     1      -6.614   2.051  26.053  0.00  0.00    -0.272 OA
ENDROOT
BRANCH   7   6
ATOM      6  N   UNL     1      -4.344   0.203  24.623  0.00  0.00    -0.213 NA
BRANCH   6   5
ATOM      5  C   UNL     1      -3.651  -0.108  24.941  0.00  0.00    +0.116 C 
BRANCH   5   4
ATOM      1  C   UNL     1      -3.776  -2.906  24.176  0.00  0.00    +0.130 C 
ATOM      2  N   UNL     1      -3.491  -2.173  24.424  0.00  0.00    -0.324 N 
ATOM      3  C   UNL     1      -3.939  -1.487  24.522  0.00  0.00    +0.073 A 
ATOM      4  C   UNL     1      -3.434  -0.887  24.775  0.00  0.00    +0.014 A 
ATOM     29  C   UNL     1      -2.673  -1.201  24.835  0.00  0.00    +0.015 A 
ATOM     30  C   UNL     1      -2.709  -1.996  24.617  0.00  0.00    +0.060 A 
ATOM     31  C   UNL     1      -2.024  -2.456  24.623  0.00  0.00    +0.017 A 
ATOM     32  C   UNL     1      -1.304  -2.122  24.847  0.00  0.00    +0.001 A 
ATOM     33  C   UNL     1      -1.268  -1.327  25.064  0.00  0.00    +0.000 A 
ATOM     34  C   UNL     1      -1.953  -0.866  25.058  0.00  0.00    +0.001 A 
ENDBRANCH   5   4
ENDBRANCH   6   5
ENDBRANCH   7   6
BRANCH  12  13
ATOM     13  C   UNL     1      -3.887   3.424  24.802  0.00  0.00    +0.027 C 
BRANCH  13  14
ATOM     14  C   UNL     1      -3.439   3.943  25.261  0.00  0.00    +0.088 C 
BRANCH  14  15
ATOM     15  C   UNL     1      -2.655   4.101  25.058  0.00  0.00    +0.242 C 
ATOM     16  O   UNL     1      -2.470   4.778  24.624  0.00  0.00    -0.273 OA
ATOM     17  N   UNL     1      -2.056   3.583  25.288  0.00  0.00    -0.201 NA
BRANCH  17  18
ATOM     18  C   UNL     1      -1.272   3.741  25.085  0.00  0.00    +0.141 C 
BRANCH  18  19
ATOM     19  C   UNL     1      -0.701   3.150  25.152  0.00  0.00    -0.001 A 
ATOM     20  C   UNL     1      -0.415   2.773  24.476  0.00  0.00    -0.003 A 
ATOM     21  C   UNL     1       0.155   2.182  24.543  0.00  0.00    -0.000 A 
ATOM     22  C   UNL     1       0.441   1.967  25.287  0.00  0.00    -0.000 A 
ATOM     23  C   UNL     1       0.155   2.344  25.963  0.00  0.00    -0.000 A 
ATOM     24  C   UNL     1      -0.415   2.935  25.896  0.00  0.00    -0.003 A 
ENDBRANCH  18  19
ENDBRANCH  17  18
ENDBRANCH  14  15
ENDBRANCH  13  14
ENDBRANCH  12  13
TORSDOF 8
ENDMDL
MODEL 3
REMARK VINA RESULT:     -12.1      1.112      4.399
REMARK  Name = 
REMARK  8 active torsions:
REMARK  status: ('A' for Active; 'I' for Inactive)
REMARK    1  A    between atoms: C_4  and  C_5
REMARK    2  A    between atoms: C_5  and  N_6
REMARK    3  A    between atoms: N_6  and  C_7
REMARK    4  A    between atoms: C_12  and  C_13
REMARK    5  A    between atoms: C_13  and  C_14
REMARK    6  A    between atoms: C_14  and  C_15
REMARK    7  A    between atoms: N_17  and  C_18
REMARK    8  A    between atoms: C_18  and  C_19
REMARK                            x       y       z     vdW  Elec       q    Type
REMARK                         _______ _______ _______ _____ _____    ______ ____
ROOT
ATOM      7  C   UNL     1      -2.027   2.686  24.954  0.00  0.00    +0.091 C 
ATOM      8  C   UNL     1      -1.393   3.090  24.614  0.00  0.00    +0.044 C 
ATOM      9  C   UNL     1      -0.762   2.563  24.548  0.00  0.00    +0.138 C 
ATOM     10  N   UNL     1      -1.006   1.834  24.848  0.00  0.00    -0.265 NA
ATOM     11  C   UNL     1      -1.787   1.911  25.099  0.00  0.00    +0.090 C 
ATOM     12  C   UNL     1      -0.484   1.195  24.853  0.00  0.00    +0.080 C 
ATOM     25  C   UNL     1       0.282   1.285  24.559  0.00  0.00    +0.131 C 
ATOM     26  N   UNL     1       0.525   2.014  24.259  0.00  0.00    -0.203 NA
ATOM     27  C   UNL     1       0.003   2.653  24.254  0.00  0.00    +0.256 C 
ATOM     28  O   UNL     1       0.247   3.382  23.954  0.00  0.00    -0.272 OA
ENDROOT
BRANCH   7   6
ATOM      6  N   UNL     1      -2.770   3.004  25.121  0.00  0.00    -0.213 NA
BRANCH   6   5
ATOM      5  C   UNL     1      -3.444   2.687  24.767  0.00  0.00    +0.116 C 
BRANCH   5   4
ATOM      1  C   UNL     1      -5.645   4.317  25.733  0.00  0.00    +0.130 C 
ATOM      2  N   UNL     1      -5.205   3.674  25.463  0.00  0.00    -0.324 N 
ATOM      3  C   UNL     1      -4.405   3.685  25.258  0.00  0.00    +0.073 A 
ATOM      4  C   UNL     1      -4.193   2.925  25.019  0.00  0.00    +0.014 A 
ATOM     29  C   UNL     1      -4.861   2.443  25.077  0.00  0.00    +0.015 A 
ATOM     30  C   UNL     1      -5.486   2.906  25.351  0.00  0.00    +0.060 A 
ATOM     31  C   UNL     1      -6.230   2.569  25.464  0.00  0.00    +0.017 A 
ATOM     32  C   UNL     1      -6.350   1.769  25.302  0.00  0.00    +0.001 A 
ATOM     33  C   UNL     1      -5.724   1.306  25.028  0.00  0.00    +0.000 A 
ATOM     34  C   UNL     1      -4.979   1.643  24.915  0.00  0.00    +0.001 A 
ENDBRANCH   5   4
ENDBRANCH   6   5
ENDBRANCH   7   6
BRANCH  12  13
ATOM     13  C   UNL     1      -0.728   0.466  25.153  0.00  0.00    +0.027 C 
BRANCH  13  14
ATOM     14  C   UNL     1      -0.607  -0.222  24.714  0.00  0.00    +0.088 C 
BRANCH  14  15
ATOM     15  C   UNL     1      -0.973  -0.925  24.941  0.00  0.00    +0.242 C 
ATOM     16  O   UNL     1      -0.615  -1.415  25.500  0.00  0.00    -0.273 OA
ATOM     17  N   UNL     1      -1.698  -1.140  24.609  0.00  0.00    -0.201 NA
BRANCH  17  18
ATOM     18  C   UNL     1      -2.064  -1.843  24.836  0.00  0.00    +0.141 C 
BRANCH  18  19
ATOM     19  C   UNL     1      -2.810  -2.033  24.541  0.00  0.00    -0.001 A 
ATOM     20  C   UNL     1      -3.070  -2.817  24.551  0.00  0.00    -0.003 A 
ATOM     21  C   UNL     1      -3.816  -3.007  24.256  0.00  0.00    -0.000 A 
ATOM     22  C   UNL     1      -4.303  -2.415  23.951  0.00  0.00    -0.000 A 
ATOM     23  C   UNL     1      -4.043  -1.632  23.941  0.00  0.00    -0.000 A 
ATOM     24  C   UNL     1      -3.297  -1.441  24.236  0.00  0.00    -0.003 A 
ENDBRANCH  18  19
ENDBRANCH  17  18
ENDBRANCH  14  15
ENDBRANCH  13  14
ENDBRANCH  12  13
TORSDOF 8
ENDMDL
MODEL 4
REMARK VINA RESULT:     -12.0      1.658      4.983
REMARK  Name = 
REMARK  8 active torsions:
REMARK  status: ('A' for Active; 'I' for Inactive)
REMARK    1  A    between atoms: C_4  and  C_5
REMARK    2  A    between atoms: C_5  and  N_6
REMARK    3  A    between atoms: N_6  and  C_7
REMARK    4  A    between atoms: C_12  and  C_13
REMARK    5  A    between atoms: C_13  and  C_14
REMARK    6  A    between atoms: C_14  and  C_15
REMARK    7  A    between atoms: N_17  and  C_18
REMARK    8  A    between atoms: C_18  and  C_19
REMARK                            x       y       z     vdW  Elec       q    Type
REMARK                         _______ _______ _______ _____ _____    ______ ____
ROOT
ATOM      7  C   UNL     1      -3.859  -0.580  24.955  0.00  0.00    +0.091 C 
ATOM      8  C   UNL     1      -4.031  -1.361  24.752  0.00  0.00    +0.044 C 
ATOM      9  C   UNL     1      -3.316  -1.754  24.627  0.00  0.00    +0.138 C 
ATOM     10  N   UNL     1      -2.704  -1.216  24.752  0.00  0.00    -0.265 NA
ATOM     11  C   UNL     1      -3.040  -0.491  24.955  0.00  0.00    +0.090 C 
ATOM     12  C   UNL     1      -1.920  -1.456  24.664  0.00  0.00    +0.080 C 
ATOM     25  C   UNL     1      -1.748  -2.235  24.452  0.00  0.00    +0.131 C 
ATOM     26  N   UNL     1      -2.360  -2.773  24.327  0.00  0.00    -0.203 NA
ATOM     27  C   UNL     1      -3.145  -2.532  24.414  0.00  0.00    +0.256 C 
ATOM     28  O   UNL     1      -3.758  -3.070  24.289  0.00  0.00    -0.272 OA
ENDROOT
BRANCH   7   6
ATOM      6  N   UNL     1      -4.412   0.008  25.128  0.00  0.00    -0.213 NA
BRANCH   6   5
ATOM      5  C   UNL     1      -4.409   0.716  24.706  0.00  0.00    +0.116 C 
BRANCH   5   4
ATOM      1  C   UNL     1      -6.233   2.409  26.201  0.00  0.00    +0.130 C 
ATOM      2  N   UNL     1      -5.629   2.159  25.699  0.00  0.00    -0.324 N 
ATOM      3  C   UNL     1      -5.421   1.376  25.542  0.00  0.00    +0.073 A 
ATOM      4  C   UNL     1      -4.790   1.381  25.012  0.00  0.00    +0.014 A 
ATOM     29  C   UNL     1      -4.607   2.167  24.839  0.00  0.00    +0.015 A 
ATOM     30  C   UNL     1      -5.125   2.648  25.264  0.00  0.00    +0.060 A 
ATOM     31  C   UNL     1      -5.072   3.468  25.201  0.00  0.00    +0.017 A 
ATOM     32  C   UNL     1      -4.501   3.808  24.712  0.00  0.00    +0.001 A 
ATOM     33  C   UNL     1      -3.982   3.327  24.287  0.00  0.00    +0.000 A 
ATOM     34  C   UNL     1      -4.036   2.506  24.351  0.00  0.00    +0.001 A 
ENDBRANCH   5   4
ENDBRANCH   6   5
ENDBRANCH   7   6
BRANCH  12  13
ATOM     13  C   UNL     1      -1.307  -0.918  24.789  0.00  0.00    +0.027 C 
BRANCH  13  14
ATOM     14  C   UNL     1      -0.836  -0.675  24.157  0.00  0.00    +0.088 C 
BRANCH  14  15
ATOM     15  C   UNL     1      -0.266  -0.089  24.268  0.00  0.00    +0.242 C 
ATOM     16  O   UNL     1       0.534  -0.268  24.175  0.00  0.00    -0.273 OA
ATOM     17  N   UNL     1      -0.496   0.676  24.473  0.00  0.00    -0.201 NA
BRANCH  17  18
ATOM     18  C   UNL     1       0.073   1.263  24.584  0.00  0.00    +0.141 C 
BRANCH  18  19
ATOM     19  C   UNL     1      -0.154   2.016  24.830  0.00  0.00    -0.001 A 
ATOM     20  C   UNL     1      -0.271   2.170  25.633  0.00  0.00    -0.003 A 
ATOM     21  C   UNL     1      -0.498   2.924  25.880  0.00  0.00    -0.000 A 
ATOM     22  C   UNL     1      -0.608   3.524  25.325  0.00  0.00    -0.000 A 
ATOM     23  C   UNL     1      -0.491   3.370  24.522  0.00  0.00    -0.000 A 
ATOM     24  C   UNL     1      -0.264   2.617  24.276  0.00  0.00    -0.003 A 
ENDBRANCH  18  19
ENDBRANCH  17  18
ENDBRANCH  14  15
ENDBRANCH  13  14
ENDBRANCH  12  13
TORSDOF 8
ENDMDL
MODEL 5
REMARK VINA RESULT:     -11.5      1.586      4.367
REMARK  Name = 
REMARK  8 active torsions:
REMARK  status: ('A' for Active; 'I' for Inactive)
REMARK    1  A    between atoms: C_4  and  C_5
REMARK    2  A    between atoms: C_5  and  N_6
REMARK    3  A    between atoms: N_6  and  C_7
REMARK    4  A    between atoms: C_12  and  C_13
REMARK    5  A    between atoms: C_13  and  C_14
REMARK    6  A    between atoms: C_14  and  C_15
REMARK    7  A    between atoms: N_17  and  C_18
REMARK    8  A    between atoms: C_18  and  C_19
REMARK                            x       y       z     vdW  Elec       q    Type
REMARK                         _______ _______ _______ _____ _____    ______ ____
ROOT
ATOM      7  C   UNL     1      -0.836   0.553  24.761  0.00  0.00    +0.091 C 
ATOM      8  C   UNL     1      -0.417  -0.115  25.005  0.00  0.00    +0.044 C 
ATOM      9  C   UNL     1      -0.931  -0.760  24.975  0.00  0.00    +0.138 C 
ATOM     10  N   UNL     1      -1.665  -0.491  24.714  0.00  0.00    -0.265 NA
ATOM     11  C   UNL     1      -1.606   0.320  24.582  0.00  0.00    +0.090 C 
ATOM     12  C   UNL     1      -2.292  -1.021  24.631  0.00  0.00    +0.080 C 
ATOM     25  C   UNL     1      -2.185  -1.819  24.808  0.00  0.00    +0.131 C 
ATOM     26  N   UNL     1      -1.450  -2.088  25.070  0.00  0.00    -0.203 NA
ATOM     27  C   UNL     1      -0.823  -1.559  25.153  0.00  0.00    +0.256 C 
ATOM     28  O   UNL     1      -0.088  -1.828  25.415  0.00  0.00    -0.272 OA
ENDROOT
BRANCH   7   6
ATOM      6  N   UNL     1      -0.535   1.320  24.707  0.00  0.00    -0.213 NA
BRANCH   6   5
ATOM      5  C   UNL     1      -0.839   1.918  25.185  0.00  0.00    +0.116 C 
BRANCH   5   4
ATOM      1  C   UNL     1      -0.017   4.329  23.791  0.00  0.00    +0.130 C 
ATOM      2  N   UNL     1      -0.403   3.814  24.306  0.00  0.00    -0.324 N 
ATOM      3  C   UNL     1      -0.280   3.000  24.362  0.00  0.00    +0.073 A 
ATOM      4  C   UNL     1      -0.781   2.706  24.948  0.00  0.00    +0.014 A 
ATOM     29  C   UNL     1      -1.214   3.338  25.254  0.00  0.00    +0.015 A 
ATOM     30  C   UNL     1      -0.981   4.023  24.858  0.00  0.00    +0.060 A 
ATOM     31  C   UNL     1      -1.324   4.748  25.050  0.00  0.00    +0.017 A 
ATOM     32  C   UNL     1      -1.901   4.789  25.638  0.00  0.00    +0.001 A 
ATOM     33  C   UNL     1      -2.135   4.104  26.034  0.00  0.00    +0.000 A 
ATOM     34  C   UNL     1      -1.791   3.378  25.842  0.00  0.00    +0.001 A 
ENDBRANCH   5   4
ENDBRANCH   6   5
ENDBRANCH   7   6
BRANCH  12  13
ATOM     13  C   UNL     1      -3.027  -0.751  24.369  0.00  0.00    +0.027 C 
BRANCH  13  14
ATOM     14  C   UNL     1      -3.679  -0.775  24.875  0.00  0.00    +0.088 C 
BRANCH  14  15
ATOM     15  C   UNL     1      -4.369  -0.370  24.676  0.00  0.00    +0.242 C 
ATOM     16  O   UNL     1      -4.920  -0.716  24.169  0.00  0.00    -0.273 OA
ATOM     17  N   UNL     1      -4.509   0.383  24.986  0.00  0.00    -0.201 NA
BRANCH  17  18
ATOM     18  C   UNL     1      -5.200   0.788  24.788  0.00  0.00    +0.141 C 
BRANCH  18  19
ATOM     19  C   UNL     1      -5.302   1.570  25.028  0.00  0.00    -0.001 A 
ATOM     20  C   UNL     1      -5.678   1.736  25.744  0.00  0.00    -0.003 A 
ATOM     21  C   UNL     1      -5.780   2.518  25.985  0.00  0.00    -0.000 A 
ATOM     22  C   UNL     1      -5.507   3.135  25.510  0.00  0.00    -0.000 A 
ATOM     23  C   UNL     1      -5.131   2.969  24.794  0.00  0.00    -0.000 A 
ATOM     24  C   UNL     1      -5.029   2.187  24.553  0.00  0.00    -0.003 A 
ENDBRANCH  18  19
ENDBRANCH  17  18
ENDBRANCH  14  15
ENDBRANCH  13  14
ENDBRANCH  12  13
TORSDOF 8
ENDMDL
MODEL 6
REMARK VINA RESULT:     -11.4      1.481      2.755
REMARK  Name = 
REMARK  8 active torsions:
REMARK  status: ('A' for Active; 'I' for Inactive)
REMARK    1  A    between atoms: C_4  and  C_5
REMARK    2  A    between atoms: C_5  and  N_6
REMARK    3  A    between atoms: N_6  and  C_7
REMARK    4  A    between atoms: C_12  and  C_13
REMARK    5  A    between atoms: C_13  and  C_14
REMARK    6  A    between atoms: C_14  and  C_15
REMARK    7  A    between atoms: N_17  and  C_18
REMARK    8  A    between atoms: C_18  and  C_19
REMARK                            x       y       z     vdW  Elec       q    Type
REMARK                         _______ _______ _______ _____ _____    ______ ____
ROOT
ATOM      7  C   UNL     1      -0.719   2.897  24.991  0.00  0.00    +0.091 C 
ATOM      8  C   UNL     1      -0.457   3.669  24.865  0.00  0.00    +0.044 C 
ATOM      9  C   UNL     1      -1.075   4.181  25.058  0.00  0.00    +0.138 C 
ATOM     10  N   UNL     1      -1.718   3.725  25.302  0.00  0.00    -0.265 NA
ATOM     11  C   UNL     1      -1.497   2.932  25.261  0.00  0.00    +0.090 C 
ATOM     12  C   UNL     1      -2.420   4.092  25.531  0.00  0.00    +0.080 C 
ATOM     25  C   UNL     1      -2.480   4.915  25.516  0.00  0.00    +0.131 C 
ATOM     26  N   UNL     1      -1.838   5.371  25.271  0.00  0.00    -0.203 NA
ATOM     27  C   UNL     1      -1.135   5.004  25.042  0.00  0.00    +0.256 C 
ATOM     28  O   UNL     1      -0.492   5.460  24.798  0.00  0.00    -0.272 OA
ENDROOT
BRANCH   7   6
ATOM      6  N   UNL     1      -0.278   2.210  24.867  0.00  0.00    -0.213 NA
BRANCH   6   5
ATOM      5  C   UNL     1      -0.573   1.480  25.111  0.00  0.00    +0.116 C 
BRANCH   5   4
ATOM      1  C   UNL     1       0.486  -0.316  23.090  0.00  0.00    +0.130 C 
ATOM      2  N   UNL     1       0.119  -0.031  23.771  0.00  0.00    -0.324 N 
ATOM      3  C   UNL     1       0.030   0.763  23.978  0.00  0.00    +0.073 A 
ATOM      4  C   UNL     1      -0.368   0.795  24.700  0.00  0.00    +0.014 A 
ATOM     29  C   UNL     1      -0.525   0.020  24.939  0.00  0.00    +0.015 A 
ATOM     30  C   UNL     1      -0.225  -0.490  24.365  0.00  0.00    +0.060 A 
ATOM     31  C   UNL     1      -0.302  -1.305  24.457  0.00  0.00    +0.017 A 
ATOM     32  C   UNL     1      -0.681  -1.612  25.123  0.00  0.00    +0.001 A 
ATOM     33  C   UNL     1      -0.981  -1.102  25.697  0.00  0.00    +0.000 A 
ATOM     34  C   UNL     1      -0.904  -0.285  25.605  0.00  0.00    +0.001 A 
ENDBRANCH   5   4
ENDBRANCH   6   5
ENDBRANCH   7   6
BRANCH  12  13
ATOM     13  C   UNL     1      -3.062   3.636  25.776  0.00  0.00    +0.027 C 
BRANCH  13  14
ATOM     14  C   UNL     1      -3.767   3.652  25.346  0.00  0.00    +0.088 C 
BRANCH  14  15
ATOM     15  C   UNL     1      -4.309   3.035  25.419  0.00  0.00    +0.242 C 
ATOM     16  O   UNL     1      -4.970   3.121  25.905  0.00  0.00    -0.273 OA
ATOM     17  N   UNL     1      -4.189   2.330  25.007  0.00  0.00    -0.201 NA
BRANCH  17  18
ATOM     18  C   UNL     1      -4.731   1.712  25.080  0.00  0.00    +0.141 C 
BRANCH  18  19
ATOM     19  C   UNL     1      -4.535   0.958  24.811  0.00  0.00    -0.001 A 
ATOM     20  C   UNL     1      -4.660   0.301  25.296  0.00  0.00    -0.003 A 
ATOM     21  C   UNL     1      -4.463  -0.453  25.027  0.00  0.00    -0.000 A 
ATOM     22  C   UNL     1      -4.141  -0.553  24.274  0.00  0.00    -0.000 A 
ATOM     23  C   UNL     1      -4.016   0.104  23.790  0.00  0.00    -0.000 A 
ATOM     24  C   UNL     1      -4.213   0.858  24.058  0.00  0.00    -0.003 A 
ENDBRANCH  18  19
ENDBRANCH  17  18
ENDBRANCH  14  15
ENDBRANCH  13  14
ENDBRANCH  12  13
TORSDOF 8
ENDMDL
MODEL 7
REMARK VINA RESULT:     -11.1      1.733      5.575
REMARK  Name = 
REMARK  8 active torsions:
REMARK  status: ('A' for Active; 'I' for Inactive)
REMARK    1  A    between atoms: C_4  and  C_5
REMARK    2  A    between atoms: C_5  and  N_6
REMARK    3  A    between atoms: N_6  and  C_7
REMARK    4  A    between atoms: C_12  and  C_13
REMARK    5  A    between atoms: C_13  and  C_14
REMARK    6  A    between atoms: C_14  and  C_15
REMARK    7  A    between atoms: N_17  and  C_18
REMARK    8  A    between atoms: C_18  and  C_19
REMARK                            x       y       z     vdW  Elec       q    Type
REMARK                         _______ _______ _______ _____ _____    ______ ____
ROOT
ATOM      7  C   UNL     1      -3.972   3.350  25.213  0.00  0.00    +0.091 C 
ATOM      8  C   UNL     1      -4.710   3.575  25.504  0.00  0.00    +0.044 C 
ATOM      9  C   UNL     1      -5.219   2.929  25.434  0.00  0.00    +0.138 C 
ATOM     10  N   UNL     1      -4.796   2.306  25.099  0.00  0.00    -0.265 NA
ATOM     11  C   UNL     1      -4.025   2.566  24.963  0.00  0.00    +0.090 C 
ATOM     12  C   UNL     1      -5.167   1.582  24.962  0.00  0.00    +0.080 C 
ATOM     25  C   UNL     1      -5.961   1.482  25.160  0.00  0.00    +0.131 C 
ATOM     26  N   UNL     1      -6.385   2.105  25.494  0.00  0.00    -0.203 NA
ATOM     27  C   UNL     1      -6.014   2.830  25.631  0.00  0.00    +0.256 C 
ATOM     28  O   UNL     1      -6.438   3.454  25.965  0.00  0.00    -0.272 OA
ENDROOT
BRANCH   7   6
ATOM      6  N   UNL     1      -3.299   3.826  25.178  0.00  0.00    -0.213 NA
BRANCH   6   5
ATOM      5  C   UNL     1      -2.680   3.706  25.708  0.00  0.00    +0.116 C 
BRANCH   5   4
ATOM      1  C   UNL     1      -0.374   5.082  24.603  0.00  0.00    +0.130 C 
ATOM      2  N   UNL     1      -0.845   4.519  24.978  0.00  0.00    -0.324 N 
ATOM      3  C   UNL     1      -1.663   4.566  25.086  0.00  0.00    +0.073 A 
ATOM      4  C   UNL     1      -1.906   3.887  25.486  0.00  0.00    +0.014 A 
ATOM     29  C   UNL     1      -1.239   3.420  25.626  0.00  0.00    +0.015 A 
ATOM     30  C   UNL     1      -0.584   3.811  25.312  0.00  0.00    +0.060 A 
ATOM     31  C   UNL     1       0.165   3.472  25.370  0.00  0.00    +0.017 A 
ATOM     32  C   UNL     1       0.260   2.741  25.742  0.00  0.00    +0.001 A 
ATOM     33  C   UNL     1      -0.395   2.350  26.056  0.00  0.00    +0.000 A 
ATOM     34  C   UNL     1      -1.145   2.690  25.998  0.00  0.00    +0.001 A 
ENDBRANCH   5   4
ENDBRANCH   6   5
ENDBRANCH   7   6
BRANCH  12  13
ATOM     13  C   UNL     1      -4.743   0.958  24.628  0.00  0.00    +0.027 C 
BRANCH  13  14
ATOM     14  C   UNL     1      -4.728   0.223  25.002  0.00  0.00    +0.088 C 
BRANCH  14  15
ATOM     15  C   UNL     1      -4.248  -0.380  24.707  0.00  0.00    +0.242 C 
ATOM     16  O   UNL     1      -4.516  -0.857  24.090  0.00  0.00    -0.273 OA
ATOM     17  N   UNL     1      -3.498  -0.506  25.029  0.00  0.00    -0.201 NA
BRANCH  17  18
ATOM     18  C   UNL     1      -3.018  -1.108  24.734  0.00  0.00    +0.141 C 
BRANCH  18  19
ATOM     19  C   UNL     1      -2.223  -1.144  24.950  0.00  0.00    -0.001 A 
ATOM     20  C   UNL     1      -1.647  -1.296  24.378  0.00  0.00    -0.003 A 
ATOM     21  C   UNL     1      -0.852  -1.332  24.594  0.00  0.00    -0.000 A 
ATOM     22  C   UNL     1      -0.631  -1.217  25.380  0.00  0.00    -0.000 A 
ATOM     23  C   UNL     1      -1.208  -1.066  25.952  0.00  0.00    -0.000 A 
ATOM     24  C   UNL     1      -2.003  -1.029  25.736  0.00  0.00    -0.003 A 
ENDBRANCH  18  19
ENDBRANCH  17  18
ENDBRANCH  14  15
ENDBRANCH  13  14
ENDBRANCH  12  13
TORSDOF 8
ENDMDL
MODEL 8
REMARK VINA RESULT:     -10.4      1.697      4.313
REMARK  Name = 
REMARK  8 active torsions:
REMARK  status: ('A' for Active; 'I' for Inactive)
REMARK    1  A    between atoms: C_4  and  C_5
REMARK    2  A    between atoms: C_5  and  N_6
REMARK    3  A    between atoms: N_6  and  C_7
REMARK    4  A    between atoms: C_12  and  C_13
REMARK    5  A    between atoms: C_13  and  C_14
REMARK    6  A    between atoms: C_14  and  C_15
REMARK    7  A    between atoms: N_17  and  C_18
REMARK    8  A    between atoms: C_18  and  C_19
REMARK                            x       y       z     vdW  Elec       q    Type
REMARK                         _______ _______ _______ _____ _____    ______ ____
ROOT
ATOM      7  C   UNL     1      -1.775  -0.823  24.505  0.00  0.00    +0.091 C 
ATOM      8  C   UNL     1      -1.901  -1.637  24.544  0.00  0.00    +0.044 C 
ATOM      9  C   UNL     1      -2.712  -1.773  24.480  0.00  0.00    +0.138 C 
ATOM     10  N   UNL     1      -3.088  -1.043  24.400  0.00  0.00    -0.265 NA
ATOM     11  C   UNL     1      -2.509  -0.456  24.415  0.00  0.00    +0.090 C 
ATOM     12  C   UNL     1      -3.908  -1.008  24.324  0.00  0.00    +0.080 C 
ATOM     25  C   UNL     1      -4.353  -1.702  24.328  0.00  0.00    +0.131 C 
ATOM     26  N   UNL     1      -3.978  -2.432  24.407  0.00  0.00    -0.203 NA
ATOM     27  C   UNL     1      -3.157  -2.468  24.484  0.00  0.00    +0.256 C 
ATOM     28  O   UNL     1      -2.781  -3.198  24.563  0.00  0.00    -0.272 OA
ENDROOT
BRANCH   7   6
ATOM      6  N   UNL     1      -1.044  -0.443  24.547  0.00  0.00    -0.213 NA
BRANCH   6   5
ATOM      5  C   UNL     1      -0.922   0.158  25.097  0.00  0.00    +0.116 C 
BRANCH   5   4
ATOM      1  C   UNL     1       0.951   1.894  23.713  0.00  0.00    +0.130 C 
ATOM      2  N   UNL     1       0.412   1.604  24.266  0.00  0.00    -0.324 N 
ATOM      3  C   UNL     1       0.045   0.865  24.244  0.00  0.00    +0.073 A 
ATOM      4  C   UNL     1      -0.449   0.806  24.902  0.00  0.00    +0.014 A 
ATOM     29  C   UNL     1      -0.386   1.508  25.332  0.00  0.00    +0.015 A 
ATOM     30  C   UNL     1       0.146   2.001  24.939  0.00  0.00    +0.060 A 
ATOM     31  C   UNL     1       0.318   2.747  25.244  0.00  0.00    +0.017 A 
ATOM     32  C   UNL     1      -0.041   3.002  25.942  0.00  0.00    +0.001 A 
ATOM     33  C   UNL     1      -0.573   2.508  26.335  0.00  0.00    +0.000 A 
ATOM     34  C   UNL     1      -0.746   1.761  26.030  0.00  0.00    +0.001 A 
ENDBRANCH   5   4
ENDBRANCH   6   5
ENDBRANCH   7   6
BRANCH  12  13
ATOM     13  C   UNL     1      -4.283  -0.278  24.244  0.00  0.00    +0.027 C 
BRANCH  13  14
ATOM     14  C   UNL     1      -4.680   0.055  24.887  0.00  0.00    +0.088 C 
BRANCH  14  15
ATOM     15  C   UNL     1      -5.001   0.812  24.827  0.00  0.00    +0.242 C 
ATOM     16  O   UNL     1      -5.799   0.908  24.640  0.00  0.00    -0.273 OA
ATOM     17  N   UNL     1      -4.525   1.474  24.953  0.00  0.00    -0.201 NA
BRANCH  17  18
ATOM     18  C   UNL     1      -4.846   2.231  24.893  0.00  0.00    +0.141 C 
BRANCH  18  19
ATOM     19  C   UNL     1      -4.358   2.893  24.958  0.00  0.00    -0.001 A 
ATOM     20  C   UNL     1      -3.945   3.168  24.299  0.00  0.00    -0.003 A 
ATOM     21  C   UNL     1      -3.457   3.830  24.364  0.00  0.00    -0.000 A 
ATOM     22  C   UNL     1      -3.381   4.216  25.089  0.00  0.00    -0.000 A 
ATOM     23  C   UNL     1      -3.793   3.940  25.749  0.00  0.00    -0.000 A 
ATOM     24  C   UNL     1      -4.281   3.279  25.683  0.00  0.00    -0.003 A 
ENDBRANCH  18  19
ENDBRANCH  17  18
ENDBRANCH  14  15
ENDBRANCH  13  14
ENDBRANCH  12  13
TORSDOF 8
ENDMDL
MODEL 9
REMARK VINA RESULT:      -8.8     16.055     18.745
REMARK  Name = 
REMARK  8 active torsions:
REMARK  status: ('A' for Active; 'I' for Inactive)
REMARK    1  A    between atoms: C_4  and  C_5
REMARK    2  A    between atoms: C_5  and  N_6
REMARK    3  A    between atoms: N_6  and  C_7
REMARK    4  A    between atoms: C_12  and  C_13
REMARK    5  A    between atoms: C_13  and  C_14
REMARK    6  A    between atoms: C_14  and  C_15
REMARK    7  A    between atoms: N_17  and  C_18
REMARK    8  A    between atoms: C_18  and  C_19
REMARK                            x       y       z     vdW  Elec       q    Type
REMARK                         _______ _______ _______ _____ _____    ______ ____
ROOT
ATOM      7  C   UNL     1      14.412   7.786  17.502  0.00  0.00    +0.091 C 
ATOM      8  C   UNL     1      14.451   7.940  16.692  0.00  0.00    +0.044 C 
ATOM      9  C   UNL     1      13.760   8.334  16.475  0.00  0.00    +0.138 C 
ATOM     10  N   UNL     1      13.294   8.424  17.150  0.00  0.00    -0.265 NA
ATOM     11  C   UNL     1      13.698   8.085  17.784  0.00  0.00    +0.090 C 
ATOM     12  C   UNL     1      12.564   8.803  17.099  0.00  0.00    +0.080 C 
ATOM     25  C   UNL     1      12.298   9.093  16.374  0.00  0.00    +0.131 C 
ATOM     26  N   UNL     1      12.764   9.003  15.699  0.00  0.00    -0.203 NA
ATOM     27  C   UNL     1      13.495   8.624  15.749  0.00  0.00    +0.256 C 
ATOM     28  O   UNL     1      13.961   8.534  15.074  0.00  0.00    -0.272 OA
ENDROOT
BRANCH   7   6
ATOM      6  N   UNL     1      14.988   7.399  17.950  0.00  0.00    -0.213 NA
BRANCH   6   5
ATOM      5  C   UNL     1      14.858   7.251  18.750  0.00  0.00    +0.116 C 
BRANCH   5   4
ATOM      1  C   UNL     1      17.322   5.947  19.564  0.00  0.00    +0.130 C 
ATOM      2  N   UNL     1      16.597   6.338  19.589  0.00  0.00    -0.324 N 
ATOM      3  C   UNL     1      16.145   6.564  18.936  0.00  0.00    +0.073 A 
ATOM      4  C   UNL     1      15.464   6.937  19.214  0.00  0.00    +0.014 A 
ATOM     29  C   UNL     1      15.494   6.941  20.039  0.00  0.00    +0.015 A 
ATOM     30  C   UNL     1      16.194   6.571  20.270  0.00  0.00    +0.060 A 
ATOM     31  C   UNL     1      16.374   6.494  21.071  0.00  0.00    +0.017 A 
ATOM     32  C   UNL     1      15.855   6.786  21.642  0.00  0.00    +0.001 A 
ATOM     33  C   UNL     1      15.155   7.157  21.411  0.00  0.00    +0.000 A 
ATOM     34  C   UNL     1      14.974   7.234  20.609  0.00  0.00    +0.001 A 
ENDBRANCH   5   4
ENDBRANCH   6   5
ENDBRANCH   7   6
BRANCH  12  13
ATOM     13  C   UNL     1      12.098   8.893  17.774  0.00  0.00    +0.027 C 
BRANCH  13  14
ATOM     14  C   UNL     1      11.447   8.400  17.895  0.00  0.00    +0.088 C 
BRANCH  14  15
ATOM     15  C   UNL     1      10.961   8.513  18.552  0.00  0.00    +0.242 C 
ATOM     16  O   UNL     1      10.195   8.802  18.453  0.00  0.00    -0.273 OA
ATOM     17  N   UNL     1      11.241   8.336  19.308  0.00  0.00    -0.201 NA
BRANCH  17  18
ATOM     18  C   UNL     1      10.754   8.449  19.965  0.00  0.00    +0.141 C 
BRANCH  18  19
ATOM     19  C   UNL     1      11.041   8.292  20.722  0.00  0.00    -0.001 A 
ATOM     20  C   UNL     1      11.290   8.913  21.206  0.00  0.00    -0.003 A 
ATOM     21  C   UNL     1      11.577   8.757  21.963  0.00  0.00    -0.000 A 
ATOM     22  C   UNL     1      11.615   7.979  22.237  0.00  0.00    -0.000 A 
ATOM     23  C   UNL     1      11.366   7.359  21.753  0.00  0.00    -0.000 A 
ATOM     24  C   UNL     1      11.079   7.515  20.996  0.00  0.00    -0.003 A 
ENDBRANCH  18  19
ENDBRANCH  17  18
ENDBRANCH  14  15
ENDBRANCH  13  14
ENDBRANCH  12  13
TORSDOF 8
ENDMDL
