MODEL 1
REMARK VINA RESULT:     -11.4      0.000      0.000
REMARK  Name = 
REMARK  8 active torsions:
REMARK  status: ('A' for Active; 'I' for Inactive)
REMARK    1  A    between atoms: C_2  and  C_3
REMARK    2  A    between atoms: C_2  and  C_27
REMARK    3  A    between atoms: C_10  and  N_11
REMARK    4  A    between atoms: C_12  and  C_14
REMARK    5  A    between atoms: C_14  and  O_15
REMARK    6  A    between atoms: O_15  and  C_16
REMARK    7  A    between atoms: N_29  and  C_30
REMARK    8  A    between atoms: C_30  and  C_31
REMARK                            x       y       z     vdW  Elec       q    Type
REMARK                         _______ _______ _______ _____ _____    ______ ____
ROOT
ATOM      3  C   UNL     1      -3.427   2.611  24.707  0.00  0.00    +0.039 C 
ATOM      4  C   UNL     1      -3.338   3.082  25.379  0.00  0.00    +0.003 C 
ATOM      5  C   UNL     1      -2.588   3.340  25.605  0.00  0.00    +0.000 C 
ATOM      6  C   UNL     1      -1.927   3.129  25.160  0.00  0.00    +0.002 C 
ATOM      7  C   UNL     1      -1.839   3.599  25.831  0.00  0.00    +0.000 C 
ATOM      8  C   UNL     1      -1.177   3.387  25.386  0.00  0.00    +0.002 C 
ATOM      9  C   UNL     1      -0.516   3.175  24.941  0.00  0.00    +0.022 C 
ATOM     10  C   UNL     1      -0.605   2.704  24.268  0.00  0.00    +0.095 C 
ATOM     22  C   UNL     1      -1.355   2.446  24.042  0.00  0.00    +0.022 C 
ATOM     23  C   UNL     1      -1.443   1.975  23.370  0.00  0.00    +0.002 C 
ATOM     24  C   UNL     1      -2.016   2.657  24.488  0.00  0.00    +0.032 C 
ATOM     25  C   UNL     1      -2.766   2.399  24.262  0.00  0.00    +0.152 C 
ATOM     26  O   UNL     1      -2.855   1.929  23.590  0.00  0.00    -0.223 OA
ENDROOT
BRANCH  10  11
ATOM     11  N   UNL     1       0.057   2.493  23.823  0.00  0.00    -0.204 NA
ATOM     12  C   UNL     1       0.663   2.054  24.167  0.00  0.00    +0.286 C 
ATOM     13  O   UNL     1       0.609   1.825  24.959  0.00  0.00    -0.269 OA
BRANCH  12  14
ATOM     14  C   UNL     1       1.325   1.842  23.722  0.00  0.00    +0.291 C 
BRANCH  14  15
ATOM     15  O   UNL     1       1.652   1.090  23.801  0.00  0.00    -0.466 OA
BRANCH  15  16
ATOM     16  C   UNL     1       2.200   0.817  23.247  0.00  0.00    +0.139 A 
ATOM     17  C   UNL     1       2.007   0.190  22.749  0.00  0.00    +0.037 A 
ATOM     18  C   UNL     1       2.556  -0.082  22.195  0.00  0.00    +0.003 A 
ATOM     19  C   UNL     1       3.298   0.274  22.141  0.00  0.00    +0.000 A 
ATOM     20  C   UNL     1       3.491   0.903  22.640  0.00  0.00    +0.003 A 
ATOM     21  C   UNL     1       2.943   1.174  23.193  0.00  0.00    +0.037 A 
ENDBRANCH  15  16
ENDBRANCH  14  15
ENDBRANCH  12  14
ENDBRANCH  10  11
BRANCH   3   2
ATOM      1  C   UNL     1      -4.588   2.746  23.884  0.00  0.00    +0.010 C 
ATOM      2  C   UNL     1      -4.177   2.352  24.481  0.00  0.00    +0.081 C 
BRANCH   2  27
ATOM     27  C   UNL     1      -4.517   1.699  24.853  0.00  0.00    +0.241 C 
ATOM     28  O   UNL     1      -5.070   1.808  25.456  0.00  0.00    -0.273 OA
ATOM     29  N   UNL     1      -4.304   0.935  24.622  0.00  0.00    -0.201 NA
BRANCH  29  30
ATOM     30  C   UNL     1      -4.643   0.283  24.994  0.00  0.00    +0.141 C 
BRANCH  30  31
ATOM     31  C   UNL     1      -4.324  -0.469  24.881  0.00  0.00    -0.001 A 
ATOM     32  C   UNL     1      -3.847  -0.807  25.463  0.00  0.00    -0.003 A 
ATOM     33  C   UNL     1      -3.528  -1.559  25.349  0.00  0.00    -0.000 A 
ATOM     34  C   UNL     1      -3.685  -1.974  24.653  0.00  0.00    -0.000 A 
ATOM     35  C   UNL     1      -4.162  -1.636  24.071  0.00  0.00    -0.000 A 
ATOM     36  C   UNL     1      -4.482  -0.883  24.185  0.00  0.00    -0.003 A 
ENDBRANCH  30  31
ENDBRANCH  29  30
ENDBRANCH   2  27
ENDBRANCH   3   2
TORSDOF 8
ENDMDL
MODEL 2
REMARK VINA RESULT:     -11.1      1.878      3.476
REMARK  Name = 
REMARK  8 active torsions:
REMARK  status: ('A' for Active; 'I' for Inactive)
REMARK    1  A    between atoms: C_2  and  C_3
REMARK    2  A    between atoms: C_2  and  C_27
REMARK    3  A    between atoms: C_10  and  N_11
REMARK    4  A    between atoms: C_12  and  C_14
REMARK    5  A    between atoms: C_14  and  O_15
REMARK    6  A    between atoms: O_15  and  C_16
REMARK    7  A    between atoms: N_29  and  C_30
REMARK    8  A    between atoms: C_30  and  C_31
REMARK                            x       y       z     vdW  Elec       q    Type
REMARK                         _______ _______ _______ _____ _____    ______ ____
ROOT
ATOM      3  C   UNL     1      -2.913  -1.003  25.173  0.00  0.00    +0.039 C 
ATOM      4  C   UNL     1      -2.962  -1.772  24.876  0.00  0.00    +0.003 C 
ATOM      5  C   UNL     1      -2.316  -2.104  24.486  0.00  0.00    +0.000 C 
ATOM      6  C   UNL     1      -1.622  -1.669  24.392  0.00  0.00    +0.002 C 
ATOM      7  C   UNL     1      -1.670  -2.437  24.096  0.00  0.00    +0.000 C 
ATOM      8  C   UNL     1      -0.975  -2.002  24.002  0.00  0.00    +0.002 C 
ATOM      9  C   UNL     1      -0.281  -1.567  23.908  0.00  0.00    +0.022 C 
ATOM     10  C   UNL     1      -0.233  -0.798  24.205  0.00  0.00    +0.095 C 
ATOM     22  C   UNL     1      -0.879  -0.465  24.596  0.00  0.00    +0.022 C 
ATOM     23  C   UNL     1      -0.830   0.303  24.893  0.00  0.00    +0.002 C 
ATOM     24  C   UNL     1      -1.574  -0.900  24.690  0.00  0.00    +0.032 C 
ATOM     25  C   UNL     1      -2.219  -0.568  25.080  0.00  0.00    +0.152 C 
ATOM     26  O   UNL     1      -2.171   0.200  25.377  0.00  0.00    -0.223 OA
ENDROOT
BRANCH  10  11
ATOM     11  N   UNL     1       0.462  -0.363  24.112  0.00  0.00    -0.204 NA
ATOM     12  C   UNL     1       0.799  -0.280  23.364  0.00  0.00    +0.286 C 
ATOM     13  O   UNL     1       0.442  -0.632  22.708  0.00  0.00    -0.269 OA
BRANCH  12  14
ATOM     14  C   UNL     1       1.494   0.155  23.270  0.00  0.00    +0.291 C 
BRANCH  14  15
ATOM     15  O   UNL     1       2.069  -0.095  22.735  0.00  0.00    -0.466 OA
BRANCH  15  16
ATOM     16  C   UNL     1       2.847   0.169  22.810  0.00  0.00    +0.139 A 
ATOM     17  C   UNL     1       3.030   0.961  22.669  0.00  0.00    +0.037 A 
ATOM     18  C   UNL     1       3.808   1.225  22.744  0.00  0.00    +0.003 A 
ATOM     19  C   UNL     1       4.403   0.697  22.961  0.00  0.00    +0.000 A 
ATOM     20  C   UNL     1       4.221  -0.096  23.102  0.00  0.00    +0.003 A 
ATOM     21  C   UNL     1       3.443  -0.359  23.027  0.00  0.00    +0.037 A 
ENDBRANCH  15  16
ENDBRANCH  14  15
ENDBRANCH  12  14
ENDBRANCH  10  11
BRANCH   3   2
ATOM      1  C   UNL     1      -3.627  -0.737  26.384  0.00  0.00    +0.010 C 
ATOM      2  C   UNL     1      -3.560  -0.671  25.564  0.00  0.00    +0.081 C 
BRANCH   2  27
ATOM     27  C   UNL     1      -4.140  -0.271  25.134  0.00  0.00    +0.241 C 
ATOM     28  O   UNL     1      -4.543  -0.658  24.526  0.00  0.00    -0.273 OA
ATOM     29  N   UNL     1      -4.318   0.515  25.312  0.00  0.00    -0.201 NA
BRANCH  29  30
ATOM     30  C   UNL     1      -4.897   0.914  24.883  0.00  0.00    +0.141 C 
BRANCH  30  31
ATOM     31  C   UNL     1      -5.044   1.712  25.031  0.00  0.00    -0.001 A 
ATOM     32  C   UNL     1      -4.589   2.292  24.660  0.00  0.00    -0.003 A 
ATOM     33  C   UNL     1      -4.737   3.089  24.808  0.00  0.00    -0.000 A 
ATOM     34  C   UNL     1      -5.340   3.308  25.327  0.00  0.00    -0.000 A 
ATOM     35  C   UNL     1      -5.795   2.728  25.698  0.00  0.00    -0.000 A 
ATOM     36  C   UNL     1      -5.647   1.929  25.550  0.00  0.00    -0.003 A 
ENDBRANCH  30  31
ENDBRANCH  29  30
ENDBRANCH   2  27
ENDBRANCH   3   2
TORSDOF 8
ENDMDL
MODEL 3
REMARK VINA RESULT:     -10.7      1.646      2.932
REMARK  Name = 
REMARK  8 active torsions:
REMARK  status: ('A' for Active; 'I' for Inactive)
REMARK    1  A    between atoms: C_2  and  C_3
REMARK    2  A    between atoms: C_2  and  C_27
REMARK    3  A    between atoms: C_10  and  N_11
REMARK    4  A    between atoms: C_12  and  C_14
REMARK    5  A    between atoms: C_14  and  O_15
REMARK    6  A    between atoms: O_15  and  C_16
REMARK    7  A    between atoms: N_29  and  C_30
REMARK    8  A    between atoms: C_30  and  C_31
REMARK                            x       y       z     vdW  Elec       q    Type
REMARK                         _______ _______ _______ _____ _____    ______ ____
ROOT
ATOM      3  C   UNL     1      -1.688   1.975  24.832  0.00  0.00    +0.039 C 
ATOM      4  C   UNL     1      -2.072   1.244  24.808  0.00  0.00    +0.003 C 
ATOM      5  C   UNL     1      -1.668   0.575  24.546  0.00  0.00    +0.000 C 
ATOM      6  C   UNL     1      -0.881   0.635  24.308  0.00  0.00    +0.002 C 
ATOM      7  C   UNL     1      -1.263  -0.094  24.284  0.00  0.00    +0.000 C 
ATOM      8  C   UNL     1      -0.476  -0.034  24.046  0.00  0.00    +0.002 C 
ATOM      9  C   UNL     1       0.311   0.026  23.807  0.00  0.00    +0.022 C 
ATOM     10  C   UNL     1       0.695   0.757  23.831  0.00  0.00    +0.095 C 
ATOM     22  C   UNL     1       0.291   1.426  24.093  0.00  0.00    +0.022 C 
ATOM     23  C   UNL     1       0.674   2.156  24.117  0.00  0.00    +0.002 C 
ATOM     24  C   UNL     1      -0.497   1.366  24.332  0.00  0.00    +0.032 C 
ATOM     25  C   UNL     1      -0.901   2.035  24.594  0.00  0.00    +0.152 C 
ATOM     26  O   UNL     1      -0.517   2.765  24.618  0.00  0.00    -0.223 OA
ENDROOT
BRANCH  10  11
ATOM     11  N   UNL     1       1.483   0.817  23.593  0.00  0.00    -0.204 NA
ATOM     12  C   UNL     1       1.787   0.289  23.037  0.00  0.00    +0.286 C 
ATOM     13  O   UNL     1       1.303  -0.300  22.719  0.00  0.00    -0.269 OA
BRANCH  12  14
ATOM     14  C   UNL     1       2.575   0.349  22.799  0.00  0.00    +0.291 C 
BRANCH  14  15
ATOM     15  O   UNL     1       3.085  -0.292  22.893  0.00  0.00    -0.466 OA
BRANCH  15  16
ATOM     16  C   UNL     1       3.872  -0.167  23.106  0.00  0.00    +0.139 A 
ATOM     17  C   UNL     1       4.259   0.522  22.870  0.00  0.00    +0.037 A 
ATOM     18  C   UNL     1       5.046   0.647  23.083  0.00  0.00    +0.003 A 
ATOM     19  C   UNL     1       5.446   0.083  23.532  0.00  0.00    +0.000 A 
ATOM     20  C   UNL     1       5.059  -0.607  23.769  0.00  0.00    +0.003 A 
ATOM     21  C   UNL     1       4.272  -0.731  23.555  0.00  0.00    +0.037 A 
ENDBRANCH  15  16
ENDBRANCH  14  15
ENDBRANCH  12  14
ENDBRANCH  10  11
BRANCH   3   2
ATOM      1  C   UNL     1      -1.784   3.101  25.709  0.00  0.00    +0.010 C 
ATOM      2  C   UNL     1      -2.093   2.644  25.095  0.00  0.00    +0.081 C 
BRANCH   2  27
ATOM     27  C   UNL     1      -2.807   2.858  24.742  0.00  0.00    +0.241 C 
ATOM     28  O   UNL     1      -2.809   3.232  24.006  0.00  0.00    -0.273 OA
ATOM     29  N   UNL     1      -3.521   2.698  25.126  0.00  0.00    -0.201 NA
BRANCH  29  30
ATOM     30  C   UNL     1      -4.235   2.911  24.774  0.00  0.00    +0.141 C 
BRANCH  30  31
ATOM     31  C   UNL     1      -4.946   2.623  25.075  0.00  0.00    -0.001 A 
ATOM     32  C   UNL     1      -5.357   2.033  24.671  0.00  0.00    -0.003 A 
ATOM     33  C   UNL     1      -6.068   1.745  24.973  0.00  0.00    -0.000 A 
ATOM     34  C   UNL     1      -6.370   2.047  25.680  0.00  0.00    -0.000 A 
ATOM     35  C   UNL     1      -5.959   2.637  26.084  0.00  0.00    -0.000 A 
ATOM     36  C   UNL     1      -5.246   2.926  25.782  0.00  0.00    -0.003 A 
ENDBRANCH  30  31
ENDBRANCH  29  30
ENDBRANCH   2  27
ENDBRANCH   3   2
TORSDOF 8
ENDMDL
MODEL 4
REMARK VINA RESULT:     -10.4      2.293      4.838
REMARK  Name = 
REMARK  8 active torsions:
REMARK  status: ('A' for Active; 'I' for Inactive)
REMARK    1  A    between atoms: C_2  and  C_3
REMARK    2  A    between atoms: C_2  and  C_27
REMARK    3  A    between atoms: C_10  and  N_11
REMARK    4  A    between atoms: C_12  and  C_14
REMARK    5  A    between atoms: C_14  and  O_15
REMARK    6  A    between atoms: O_15  and  C_16
REMARK    7  A    between atoms: N_29  and  C_30
REMARK    8  A    between atoms: C_30  and  C_31
REMARK                            x       y       z     vdW  Elec       q    Type
REMARK                         _______ _______ _______ _____ _____    ______ ____
ROOT
ATOM      3  C   UNL     1      -3.946   3.587  24.800  0.00  0.00    +0.039 C 
ATOM      4  C   UNL     1      -4.563   3.751  25.324  0.00  0.00    +0.003 C 
ATOM      5  C   UNL     1      -5.071   3.149  25.564  0.00  0.00    +0.000 C 
ATOM      6  C   UNL     1      -4.964   2.381  25.282  0.00  0.00    +0.002 C 
ATOM      7  C   UNL     1      -5.580   2.546  25.804  0.00  0.00    +0.000 C 
ATOM      8  C   UNL     1      -5.473   1.778  25.523  0.00  0.00    +0.002 C 
ATOM      9  C   UNL     1      -5.365   1.011  25.241  0.00  0.00    +0.022 C 
ATOM     10  C   UNL     1      -4.748   0.846  24.717  0.00  0.00    +0.095 C 
ATOM     22  C   UNL     1      -4.240   1.449  24.477  0.00  0.00    +0.022 C 
ATOM     23  C   UNL     1      -3.623   1.284  23.954  0.00  0.00    +0.002 C 
ATOM     24  C   UNL     1      -4.347   2.217  24.759  0.00  0.00    +0.032 C 
ATOM     25  C   UNL     1      -3.838   2.819  24.518  0.00  0.00    +0.152 C 
ATOM     26  O   UNL     1      -3.222   2.655  23.995  0.00  0.00    -0.223 OA
ENDROOT
BRANCH  10  11
ATOM     11  N   UNL     1      -4.641   0.078  24.435  0.00  0.00    -0.204 NA
ATOM     12  C   UNL     1      -4.407  -0.522  24.950  0.00  0.00    +0.286 C 
ATOM     13  O   UNL     1      -4.280  -0.355  25.749  0.00  0.00    -0.269 OA
BRANCH  12  14
ATOM     14  C   UNL     1      -4.300  -1.290  24.668  0.00  0.00    +0.291 C 
BRANCH  14  15
ATOM     15  O   UNL     1      -3.853  -1.831  25.101  0.00  0.00    -0.466 OA
BRANCH  15  16
ATOM     16  C   UNL     1      -3.309  -2.318  24.718  0.00  0.00    +0.139 A 
ATOM     17  C   UNL     1      -3.573  -2.937  24.241  0.00  0.00    +0.037 A 
ATOM     18  C   UNL     1      -3.029  -3.424  23.857  0.00  0.00    +0.003 A 
ATOM     19  C   UNL     1      -2.220  -3.293  23.952  0.00  0.00    +0.000 A 
ATOM     20  C   UNL     1      -1.955  -2.674  24.429  0.00  0.00    +0.003 A 
ATOM     21  C   UNL     1      -2.500  -2.187  24.812  0.00  0.00    +0.037 A 
ENDBRANCH  15  16
ENDBRANCH  14  15
ENDBRANCH  12  14
ENDBRANCH  10  11
BRANCH   3   2
ATOM      1  C   UNL     1      -3.593   4.612  23.867  0.00  0.00    +0.010 C 
ATOM      2  C   UNL     1      -3.437   4.190  24.560  0.00  0.00    +0.081 C 
BRANCH   2  27
ATOM     27  C   UNL     1      -2.772   4.373  25.012  0.00  0.00    +0.241 C 
ATOM     28  O   UNL     1      -2.803   4.987  25.563  0.00  0.00    -0.273 OA
ATOM     29  N   UNL     1      -2.075   3.942  24.913  0.00  0.00    -0.201 NA
BRANCH  29  30
ATOM     30  C   UNL     1      -1.410   4.124  25.365  0.00  0.00    +0.141 C 
BRANCH  30  31
ATOM     31  C   UNL     1      -0.829   3.553  25.495  0.00  0.00    -0.001 A 
ATOM     32  C   UNL     1      -0.294   3.364  24.896  0.00  0.00    -0.003 A 
ATOM     33  C   UNL     1       0.286   2.793  25.026  0.00  0.00    -0.000 A 
ATOM     34  C   UNL     1       0.332   2.410  25.755  0.00  0.00    -0.000 A 
ATOM     35  C   UNL     1      -0.203   2.598  26.354  0.00  0.00    -0.000 A 
ATOM     36  C   UNL     1      -0.784   3.170  26.224  0.00  0.00    -0.003 A 
ENDBRANCH  30  31
ENDBRANCH  29  30
ENDBRANCH   2  27
ENDBRANCH   3   2
TORSDOF 8
ENDMDL
MODEL 5
REMARK VINA RESULT:     -10.0      2.435      3.894
REMARK  Name = 
REMARK  8 active torsions:
REMARK  status: ('A' for Active; 'I' for Inactive)
REMARK    1  A    between atoms: C_2  and  C_3
REMARK    2  A    between atoms: C_2  and  C_27
REMARK    3  A    between atoms: C_10  and  N_11
REMARK    4  A    between atoms: C_12  and  C_14
REMARK    5  A    between atoms: C_14  and  O_15
REMARK    6  A    between atoms: O_15  and  C_16
REMARK    7  A    between atoms: N_29  and  C_30
REMARK    8  A    between atoms: C_30  and  C_31
REMARK                            x       y       z     vdW  Elec       q    Type
REMARK                         _______ _______ _______ _____ _____    ______ ____
ROOT
ATOM      3  C   UNL     1      -1.988   3.440  25.245  0.00  0.00    +0.039 C 
ATOM      4  C   UNL     1      -1.401   3.634  25.792  0.00  0.00    +0.003 C 
ATOM      5  C   UNL     1      -0.843   3.069  26.015  0.00  0.00    +0.000 C 
ATOM      6  C   UNL     1      -0.871   2.311  25.692  0.00  0.00    +0.002 C 
ATOM      7  C   UNL     1      -0.285   2.504  26.238  0.00  0.00    +0.000 C 
ATOM      8  C   UNL     1      -0.313   1.745  25.916  0.00  0.00    +0.002 C 
ATOM      9  C   UNL     1      -0.342   0.987  25.593  0.00  0.00    +0.022 C 
ATOM     10  C   UNL     1      -0.929   0.793  25.046  0.00  0.00    +0.095 C 
ATOM     22  C   UNL     1      -1.487   1.358  24.823  0.00  0.00    +0.022 C 
ATOM     23  C   UNL     1      -2.074   1.164  24.276  0.00  0.00    +0.002 C 
ATOM     24  C   UNL     1      -1.459   2.117  25.145  0.00  0.00    +0.032 C 
ATOM     25  C   UNL     1      -2.017   2.682  24.922  0.00  0.00    +0.152 C 
ATOM     26  O   UNL     1      -2.603   2.488  24.376  0.00  0.00    -0.223 OA
ENDROOT
BRANCH  10  11
ATOM     11  N   UNL     1      -0.957   0.035  24.723  0.00  0.00    -0.204 NA
ATOM     12  C   UNL     1      -1.020  -0.622  25.217  0.00  0.00    +0.286 C 
ATOM     13  O   UNL     1      -1.055  -0.521  26.036  0.00  0.00    -0.269 OA
BRANCH  12  14
ATOM     14  C   UNL     1      -1.049  -1.381  24.894  0.00  0.00    +0.291 C 
BRANCH  14  15
ATOM     15  O   UNL     1      -1.470  -1.977  25.277  0.00  0.00    -0.466 OA
BRANCH  15  16
ATOM     16  C   UNL     1      -2.101  -2.348  24.896  0.00  0.00    +0.139 A 
ATOM     17  C   UNL     1      -1.971  -2.776  24.203  0.00  0.00    +0.037 A 
ATOM     18  C   UNL     1      -2.602  -3.147  23.822  0.00  0.00    +0.003 A 
ATOM     19  C   UNL     1      -3.363  -3.088  24.133  0.00  0.00    +0.000 A 
ATOM     20  C   UNL     1      -3.494  -2.660  24.827  0.00  0.00    +0.003 A 
ATOM     21  C   UNL     1      -2.863  -2.290  25.207  0.00  0.00    +0.037 A 
ENDBRANCH  15  16
ENDBRANCH  14  15
ENDBRANCH  12  14
ENDBRANCH  10  11
BRANCH   3   2
ATOM      1  C   UNL     1      -2.399   4.500  24.378  0.00  0.00    +0.010 C 
ATOM      2  C   UNL     1      -2.546   4.005  25.022  0.00  0.00    +0.081 C 
BRANCH   2  27
ATOM     27  C   UNL     1      -3.252   4.076  25.443  0.00  0.00    +0.241 C 
ATOM     28  O   UNL     1      -3.282   4.545  26.122  0.00  0.00    -0.273 OA
ATOM     29  N   UNL     1      -3.928   3.678  25.186  0.00  0.00    -0.201 NA
BRANCH  29  30
ATOM     30  C   UNL     1      -4.633   3.749  25.607  0.00  0.00    +0.141 C 
BRANCH  30  31
ATOM     31  C   UNL     1      -5.193   3.144  25.579  0.00  0.00    -0.001 A 
ATOM     32  C   UNL     1      -5.485   2.885  24.852  0.00  0.00    -0.003 A 
ATOM     33  C   UNL     1      -6.045   2.280  24.825  0.00  0.00    -0.000 A 
ATOM     34  C   UNL     1      -6.314   1.934  25.524  0.00  0.00    -0.000 A 
ATOM     35  C   UNL     1      -6.022   2.193  26.251  0.00  0.00    -0.000 A 
ATOM     36  C   UNL     1      -5.461   2.799  26.278  0.00  0.00    -0.003 A 
ENDBRANCH  30  31
ENDBRANCH  29  30
ENDBRANCH   2  27
ENDBRANCH   3   2
TORSDOF 8
ENDMDL
MODEL 6
REMARK VINA RESULT:     -10.0      2.392      3.243
REMARK  Name = 
REMARK  8 active torsions:
REMARK  status: ('A' for Active; 'I' for Inactive)
REMARK    1  A    between atoms: C_2  and  C_3
REMARK    2  A    between atoms: C_2  and  C_27
REMARK    3  A    between atoms: C_10  and  N_11
REMARK    4  A    between atoms: C_12  and  C_14
REMARK    5  A    between atoms: C_14  and  O_15
REMARK    6  A    between atoms: O_15  and  C_16
REMARK    7  A    between atoms: N_29  and  C_30
REMARK    8  A    between atoms: C_30  and  C_31
REMARK                            x       y       z     vdW  Elec       q    Type
REMARK                         _______ _______ _______ _____ _____    ______ ____
ROOT
ATOM      3  C   UNL     1      -2.800   1.926  24.003  0.00  0.00    +0.039 C 
ATOM      4  C   UNL     1      -3.199   2.645  24.079  0.00  0.00    +0.003 C 
ATOM      5  C   UNL     1      -2.878   3.248  24.541  0.00  0.00    +0.000 C 
ATOM      6  C   UNL     1      -2.159   3.132  24.928  0.00  0.00    +0.002 C 
ATOM      7  C   UNL     1      -2.557   3.850  25.003  0.00  0.00    +0.000 C 
ATOM      8  C   UNL     1      -1.837   3.735  25.391  0.00  0.00    +0.002 C 
ATOM      9  C   UNL     1      -1.119   3.619  25.778  0.00  0.00    +0.022 C 
ATOM     10  C   UNL     1      -0.720   2.900  25.702  0.00  0.00    +0.095 C 
ATOM     22  C   UNL     1      -1.041   2.297  25.240  0.00  0.00    +0.022 C 
ATOM     23  C   UNL     1      -0.643   1.579  25.164  0.00  0.00    +0.002 C 
ATOM     24  C   UNL     1      -1.761   2.413  24.852  0.00  0.00    +0.032 C 
ATOM     25  C   UNL     1      -2.082   1.810  24.390  0.00  0.00    +0.152 C 
ATOM     26  O   UNL     1      -1.684   1.092  24.315  0.00  0.00    -0.223 OA
ENDROOT
BRANCH  10  11
ATOM     11  N   UNL     1      -0.001   2.784  26.090  0.00  0.00    -0.204 NA
ATOM     12  C   UNL     1       0.023   2.745  26.913  0.00  0.00    +0.286 C 
ATOM     13  O   UNL     1      -0.673   2.822  27.350  0.00  0.00    -0.269 OA
BRANCH  12  14
ATOM     14  C   UNL     1       0.743   2.630  27.300  0.00  0.00    +0.291 C 
BRANCH  14  15
ATOM     15  O   UNL     1       0.754   2.354  28.077  0.00  0.00    -0.466 OA
BRANCH  15  16
ATOM     16  C   UNL     1       1.409   2.497  28.557  0.00  0.00    +0.139 A 
ATOM     17  C   UNL     1       2.093   2.827  28.236  0.00  0.00    +0.037 A 
ATOM     18  C   UNL     1       2.748   2.970  28.716  0.00  0.00    +0.003 A 
ATOM     19  C   UNL     1       2.719   2.783  29.519  0.00  0.00    +0.000 A 
ATOM     20  C   UNL     1       2.035   2.453  29.842  0.00  0.00    +0.003 A 
ATOM     21  C   UNL     1       1.380   2.310  29.360  0.00  0.00    +0.037 A 
ENDBRANCH  15  16
ENDBRANCH  14  15
ENDBRANCH  12  14
ENDBRANCH  10  11
BRANCH   3   2
ATOM      1  C   UNL     1      -2.863   1.214  22.764  0.00  0.00    +0.010 C 
ATOM      2  C   UNL     1      -3.122   1.323  23.540  0.00  0.00    +0.081 C 
BRANCH   2  27
ATOM     27  C   UNL     1      -3.704   0.829  23.853  0.00  0.00    +0.241 C 
ATOM     28  O   UNL     1      -4.422   1.147  24.109  0.00  0.00    -0.273 OA
ATOM     29  N   UNL     1      -3.569   0.017  23.912  0.00  0.00    -0.201 NA
BRANCH  29  30
ATOM     30  C   UNL     1      -4.150  -0.476  24.224  0.00  0.00    +0.141 C 
BRANCH  30  31
ATOM     31  C   UNL     1      -3.989  -1.275  24.351  0.00  0.00    -0.001 A 
ATOM     32  C   UNL     1      -3.631  -1.518  25.054  0.00  0.00    -0.003 A 
ATOM     33  C   UNL     1      -3.471  -2.317  25.180  0.00  0.00    -0.000 A 
ATOM     34  C   UNL     1      -3.668  -2.874  24.603  0.00  0.00    -0.000 A 
ATOM     35  C   UNL     1      -4.026  -2.631  23.901  0.00  0.00    -0.000 A 
ATOM     36  C   UNL     1      -4.187  -1.831  23.774  0.00  0.00    -0.003 A 
ENDBRANCH  30  31
ENDBRANCH  29  30
ENDBRANCH   2  27
ENDBRANCH   3   2
TORSDOF 8
ENDMDL
MODEL 7
REMARK VINA RESULT:     -10.0      1.605      3.344
REMARK  Name = 
REMARK  8 active torsions:
REMARK  status: ('A' for Active; 'I' for Inactive)
REMARK    1  A    between atoms: C_2  and  C_3
REMARK    2  A    between atoms: C_2  and  C_27
REMARK    3  A    between atoms: C_10  and  N_11
REMARK    4  A    between atoms: C_12  and  C_14
REMARK    5  A    between atoms: C_14  and  O_15
REMARK    6  A    between atoms: O_15  and  C_16
REMARK    7  A    between atoms: N_29  and  C_30
REMARK    8  A    between atoms: C_30  and  C_31
REMARK                            x       y       z     vdW  Elec       q    Type
REMARK                         _______ _______ _______ _____ _____    ______ ____
ROOT
ATOM      3  C   UNL     1      -4.331   0.552  24.944  0.00  0.00    +0.039 C 
ATOM      4  C   UNL     1      -4.416   0.020  25.570  0.00  0.00    +0.003 C 
ATOM      5  C   UNL     1      -3.828  -0.539  25.718  0.00  0.00    +0.000 C 
ATOM      6  C   UNL     1      -3.156  -0.567  25.241  0.00  0.00    +0.002 C 
ATOM      7  C   UNL     1      -3.241  -1.098  25.866  0.00  0.00    +0.000 C 
ATOM      8  C   UNL     1      -2.568  -1.126  25.389  0.00  0.00    +0.002 C 
ATOM      9  C   UNL     1      -1.896  -1.154  24.913  0.00  0.00    +0.022 C 
ATOM     10  C   UNL     1      -1.811  -0.622  24.287  0.00  0.00    +0.095 C 
ATOM     22  C   UNL     1      -2.399  -0.063  24.139  0.00  0.00    +0.022 C 
ATOM     23  C   UNL     1      -2.314   0.468  23.513  0.00  0.00    +0.002 C 
ATOM     24  C   UNL     1      -3.072  -0.035  24.615  0.00  0.00    +0.032 C 
ATOM     25  C   UNL     1      -3.659   0.524  24.467  0.00  0.00    +0.152 C 
ATOM     26  O   UNL     1      -3.575   1.056  23.842  0.00  0.00    -0.223 OA
ENDROOT
BRANCH  10  11
ATOM     11  N   UNL     1      -1.138  -0.650  23.810  0.00  0.00    -0.204 NA
ATOM     12  C   UNL     1      -0.391  -0.549  24.144  0.00  0.00    +0.286 C 
ATOM     13  O   UNL     1      -0.316  -0.419  24.956  0.00  0.00    -0.269 OA
BRANCH  12  14
ATOM     14  C   UNL     1       0.282  -0.577  23.667  0.00  0.00    +0.291 C 
BRANCH  14  15
ATOM     15  O   UNL     1       0.694   0.115  23.493  0.00  0.00    -0.466 OA
BRANCH  15  16
ATOM     16  C   UNL     1       1.363   0.088  23.011  0.00  0.00    +0.139 A 
ATOM     17  C   UNL     1       1.329  -0.285  22.277  0.00  0.00    +0.037 A 
ATOM     18  C   UNL     1       1.998  -0.313  21.795  0.00  0.00    +0.003 A 
ATOM     19  C   UNL     1       2.703   0.034  22.048  0.00  0.00    +0.000 A 
ATOM     20  C   UNL     1       2.738   0.408  22.784  0.00  0.00    +0.003 A 
ATOM     21  C   UNL     1       2.068   0.434  23.264  0.00  0.00    +0.037 A 
ENDBRANCH  15  16
ENDBRANCH  14  15
ENDBRANCH  12  14
ENDBRANCH  10  11
BRANCH   3   2
ATOM      1  C   UNL     1      -5.466   0.987  24.190  0.00  0.00    +0.010 C 
ATOM      2  C   UNL     1      -4.920   1.111  24.796  0.00  0.00    +0.081 C 
BRANCH   2  27
ATOM     27  C   UNL     1      -4.962   1.796  25.255  0.00  0.00    +0.241 C 
ATOM     28  O   UNL     1      -5.513   1.849  25.868  0.00  0.00    -0.273 OA
ATOM     29  N   UNL     1      -4.454   2.428  25.101  0.00  0.00    -0.201 NA
BRANCH  29  30
ATOM     30  C   UNL     1      -4.496   3.111  25.559  0.00  0.00    +0.141 C 
BRANCH  30  31
ATOM     31  C   UNL     1      -3.854   3.629  25.588  0.00  0.00    -0.001 A 
ATOM     32  C   UNL     1      -3.639   4.059  24.918  0.00  0.00    -0.003 A 
ATOM     33  C   UNL     1      -2.998   4.576  24.948  0.00  0.00    -0.000 A 
ATOM     34  C   UNL     1      -2.570   4.664  25.648  0.00  0.00    -0.000 A 
ATOM     35  C   UNL     1      -2.785   4.234  26.319  0.00  0.00    -0.000 A 
ATOM     36  C   UNL     1      -3.428   3.716  26.289  0.00  0.00    -0.003 A 
ENDBRANCH  30  31
ENDBRANCH  29  30
ENDBRANCH   2  27
ENDBRANCH   3   2
TORSDOF 8
ENDMDL
MODEL 8
REMARK VINA RESULT:     -10.0      2.616      4.266
REMARK  Name = 
REMARK  8 active torsions:
REMARK  status: ('A' for Active; 'I' for Inactive)
REMARK    1  A    between atoms: C_2  and  C_3
REMARK    2  A    between atoms: C_2  and  C_27
REMARK    3  A    between atoms: C_10  and  N_11
REMARK    4  A    between atoms: C_12  and  C_14
REMARK    5  A    between atoms: C_14  and  O_15
REMARK    6  A    between atoms: O_15  and  C_16
REMARK    7  A    between atoms: N_29  and  C_30
REMARK    8  A    between atoms: C_30  and  C_31
REMARK                            x       y       z     vdW  Elec       q    Type
REMARK                         _______ _______ _______ _____ _____    ______ ____
ROOT
ATOM      3  C   UNL     1      -4.395  -0.203  24.314  0.00  0.00    +0.039 C 
ATOM      4  C   UNL     1      -5.090  -0.211  24.761  0.00  0.00    +0.003 C 
ATOM      5  C   UNL     1      -5.364   0.484  25.109  0.00  0.00    +0.000 C 
ATOM      6  C   UNL     1      -4.944   1.187  25.012  0.00  0.00    +0.002 C 
ATOM      7  C   UNL     1      -5.637   1.179  25.458  0.00  0.00    +0.000 C 
ATOM      8  C   UNL     1      -5.218   1.883  25.361  0.00  0.00    +0.002 C 
ATOM      9  C   UNL     1      -4.799   2.586  25.264  0.00  0.00    +0.022 C 
ATOM     10  C   UNL     1      -4.104   2.594  24.817  0.00  0.00    +0.095 C 
ATOM     22  C   UNL     1      -3.830   1.899  24.469  0.00  0.00    +0.022 C 
ATOM     23  C   UNL     1      -3.136   1.907  24.022  0.00  0.00    +0.002 C 
ATOM     24  C   UNL     1      -4.250   1.195  24.566  0.00  0.00    +0.032 C 
ATOM     25  C   UNL     1      -3.976   0.500  24.217  0.00  0.00    +0.152 C 
ATOM     26  O   UNL     1      -3.282   0.508  23.771  0.00  0.00    -0.223 OA
ENDROOT
BRANCH  10  11
ATOM     11  N   UNL     1      -3.685   3.298  24.720  0.00  0.00    -0.204 NA
ATOM     12  C   UNL     1      -3.469   3.744  25.379  0.00  0.00    +0.286 C 
ATOM     13  O   UNL     1      -3.673   3.487  26.137  0.00  0.00    -0.269 OA
BRANCH  12  14
ATOM     14  C   UNL     1      -3.050   4.448  25.282  0.00  0.00    +0.291 C 
BRANCH  14  15
ATOM     15  O   UNL     1      -2.354   4.576  25.705  0.00  0.00    -0.466 OA
BRANCH  15  16
ATOM     16  C   UNL     1      -1.680   4.854  25.319  0.00  0.00    +0.139 A 
ATOM     17  C   UNL     1      -1.656   5.628  25.036  0.00  0.00    +0.037 A 
ATOM     18  C   UNL     1      -0.982   5.907  24.650  0.00  0.00    +0.003 A 
ATOM     19  C   UNL     1      -0.332   5.409  24.546  0.00  0.00    +0.000 A 
ATOM     20  C   UNL     1      -0.356   4.634  24.829  0.00  0.00    +0.003 A 
ATOM     21  C   UNL     1      -1.030   4.357  25.215  0.00  0.00    +0.037 A 
ENDBRANCH  15  16
ENDBRANCH  14  15
ENDBRANCH  12  14
ENDBRANCH  10  11
BRANCH   3   2
ATOM      1  C   UNL     1      -4.231  -1.028  23.158  0.00  0.00    +0.010 C 
ATOM      2  C   UNL     1      -4.122  -0.899  23.965  0.00  0.00    +0.081 C 
BRANCH   2  27
ATOM     27  C   UNL     1      -3.738  -1.467  24.425  0.00  0.00    +0.241 C 
ATOM     28  O   UNL     1      -4.178  -2.030  24.838  0.00  0.00    -0.273 OA
ATOM     29  N   UNL     1      -2.914  -1.473  24.471  0.00  0.00    -0.201 NA
BRANCH  29  30
ATOM     30  C   UNL     1      -2.531  -2.040  24.930  0.00  0.00    +0.141 C 
BRANCH  30  31
ATOM     31  C   UNL     1      -1.716  -1.994  25.048  0.00  0.00    -0.001 A 
ATOM     32  C   UNL     1      -1.209  -2.491  24.628  0.00  0.00    -0.003 A 
ATOM     33  C   UNL     1      -0.394  -2.444  24.746  0.00  0.00    -0.000 A 
ATOM     34  C   UNL     1      -0.085  -1.901  25.286  0.00  0.00    -0.000 A 
ATOM     35  C   UNL     1      -0.592  -1.405  25.706  0.00  0.00    -0.000 A 
ATOM     36  C   UNL     1      -1.408  -1.451  25.588  0.00  0.00    -0.003 A 
ENDBRANCH  30  31
ENDBRANCH  29  30
ENDBRANCH   2  27
ENDBRANCH   3   2
TORSDOF 8
ENDMDL
MODEL 9
REMARK VINA RESULT:      -7.4     15.418     17.828
REMARK  Name = 
REMARK  8 active torsions:
REMARK  status: ('A' for Active; 'I' for Inactive)
REMARK    1  A    between atoms: C_2  and  C_3
REMARK    2  A    between atoms: C_2  and  C_27
REMARK    3  A    between atoms: C_10  and  N_11
REMARK    4  A    between atoms: C_12  and  C_14
REMARK    5  A    between atoms: C_14  and  O_15
REMARK    6  A    between atoms: O_15  and  C_16
REMARK    7  A    between atoms: N_29  and  C_30
REMARK    8  A    between atoms: C_30  and  C_31
REMARK                            x       y       z     vdW  Elec       q    Type
REMARK                         _______ _______ _______ _____ _____    ______ ____
ROOT
ATOM      3  C   UNL     1      -7.187  -8.663   9.643  0.00  0.00    +0.039 C 
ATOM      4  C   UNL     1      -6.410  -8.522   9.401  0.00  0.00    +0.003 C 
ATOM      5  C   UNL     1      -5.789  -8.606   9.937  0.00  0.00    +0.000 C 
ATOM      6  C   UNL     1      -5.944  -8.830  10.715  0.00  0.00    +0.002 C 
ATOM      7  C   UNL     1      -5.169  -8.690  10.474  0.00  0.00    +0.000 C 
ATOM      8  C   UNL     1      -5.324  -8.914  11.253  0.00  0.00    +0.002 C 
ATOM      9  C   UNL     1      -5.479  -9.138  12.031  0.00  0.00    +0.022 C 
ATOM     10  C   UNL     1      -6.256  -9.279  12.273  0.00  0.00    +0.095 C 
ATOM     22  C   UNL     1      -6.876  -9.196  11.736  0.00  0.00    +0.022 C 
ATOM     23  C   UNL     1      -7.652  -9.336  11.978  0.00  0.00    +0.002 C 
ATOM     24  C   UNL     1      -6.721  -8.971  10.957  0.00  0.00    +0.032 C 
ATOM     25  C   UNL     1      -7.342  -8.887  10.421  0.00  0.00    +0.152 C 
ATOM     26  O   UNL     1      -8.118  -9.028  10.663  0.00  0.00    -0.223 OA
ENDROOT
BRANCH  10  11
ATOM     11  N   UNL     1      -6.410  -9.504  13.052  0.00  0.00    -0.204 NA
ATOM     12  C   UNL     1      -5.804  -9.804  13.523  0.00  0.00    +0.286 C 
ATOM     13  O   UNL     1      -5.041  -9.880  13.216  0.00  0.00    -0.269 OA
BRANCH  12  14
ATOM     14  C   UNL     1      -5.959 -10.028  14.302  0.00  0.00    +0.291 C 
BRANCH  14  15
ATOM     15  O   UNL     1      -5.360  -9.994  14.868  0.00  0.00    -0.466 OA
BRANCH  15  16
ATOM     16  C   UNL     1      -5.538 -10.115  15.665  0.00  0.00    +0.139 A 
ATOM     17  C   UNL     1      -6.297 -10.345  15.889  0.00  0.00    +0.037 A 
ATOM     18  C   UNL     1      -6.474 -10.466  16.685  0.00  0.00    +0.003 A 
ATOM     19  C   UNL     1      -5.891 -10.355  17.259  0.00  0.00    +0.000 A 
ATOM     20  C   UNL     1      -5.131 -10.124  17.035  0.00  0.00    +0.003 A 
ATOM     21  C   UNL     1      -4.955 -10.004  16.238  0.00  0.00    +0.037 A 
ENDBRANCH  15  16
ENDBRANCH  14  15
ENDBRANCH  12  14
ENDBRANCH  10  11
BRANCH   3   2
ATOM      1  C   UNL     1      -8.352  -9.191   9.004  0.00  0.00    +0.010 C 
ATOM      2  C   UNL     1      -7.807  -8.579   9.105  0.00  0.00    +0.081 C 
BRANCH   2  27
ATOM     27  C   UNL     1      -7.883  -7.883   8.669  0.00  0.00    +0.241 C 
ATOM     28  O   UNL     1      -7.300  -7.673   8.124  0.00  0.00    -0.273 OA
ATOM     29  N   UNL     1      -8.541  -7.398   8.777  0.00  0.00    -0.201 NA
BRANCH  29  30
ATOM     30  C   UNL     1      -8.617  -6.703   8.341  0.00  0.00    +0.141 C 
BRANCH  30  31
ATOM     31  C   UNL     1      -9.211  -6.161   8.526  0.00  0.00    -0.001 A 
ATOM     32  C   UNL     1      -9.049  -5.352   8.520  0.00  0.00    -0.003 A 
ATOM     33  C   UNL     1      -9.644  -4.812   8.705  0.00  0.00    -0.000 A 
ATOM     34  C   UNL     1     -10.401  -5.079   8.896  0.00  0.00    -0.000 A 
ATOM     35  C   UNL     1     -10.562  -5.888   8.902  0.00  0.00    -0.000 A 
ATOM     36  C   UNL     1      -9.967  -6.430   8.717  0.00  0.00    -0.003 A 
ENDBRANCH  30  31
ENDBRANCH  29  30
ENDBRANCH   2  27
ENDBRANCH   3   2
TORSDOF 8
ENDMDL
