MODEL 1
REMARK VINA RESULT:     -14.7      0.000      0.000
REMARK  Name = 
REMARK  4 active torsions:
REMARK  status: ('A' for Active; 'I' for Inactive)
REMARK    1  A    between atoms: O_2  and  C_3
REMARK    2  A    between atoms: C_3  and  C_5
REMARK    3  A    between atoms: C_18  and  N_28
REMARK    4  A    between atoms: C_20  and  C_22
REMARK                            x       y       z     vdW  Elec       q    Type
REMARK                         _______ _______ _______ _____ _____    ______ ____
ROOT
ATOM      5  C   UNL     1      -4.081   1.170  24.684  0.00  0.00    +0.162 C 
ATOM      6  C   UNL     1      -4.291   0.384  24.546  0.00  0.00    +0.055 C 
ATOM      7  C   UNL     1      -3.710  -0.201  24.529  0.00  0.00    -0.004 A 
ATOM      8  C   UNL     1      -2.918  -0.001  24.650  0.00  0.00    +0.070 A 
ATOM      9  N   UNL     1      -2.471  -0.691  24.601  0.00  0.00    -0.249 NA
ATOM     10  C   UNL     1      -2.984  -1.320  24.451  0.00  0.00    +0.081 A 
ATOM     11  C   UNL     1      -3.750  -1.016  24.406  0.00  0.00    +0.015 A 
ATOM     12  C   UNL     1      -4.386  -1.521  24.260  0.00  0.00    +0.001 A 
ATOM     13  C   UNL     1      -4.256  -2.330  24.158  0.00  0.00    +0.000 A 
ATOM     14  C   UNL     1      -3.489  -2.633  24.202  0.00  0.00    +0.002 A 
ATOM     15  C   UNL     1      -2.853  -2.128  24.349  0.00  0.00    +0.019 A 
ATOM     16  C   UNL     1      -2.708   0.785  24.788  0.00  0.00    +0.100 C 
ATOM     17  C   UNL     1      -1.918   0.986  24.908  0.00  0.00    +0.038 C 
ATOM     18  C   UNL     1      -1.708   1.772  25.046  0.00  0.00    +0.061 C 
ATOM     19  C   UNL     1      -2.289   2.357  25.064  0.00  0.00    +0.037 C 
ATOM     20  C   UNL     1      -3.080   2.156  24.943  0.00  0.00    +0.082 C 
ATOM     21  N   UNL     1      -3.290   1.370  24.805  0.00  0.00    -0.258 NA
ENDROOT
BRANCH  20  22
ATOM     22  C   UNL     1      -3.661   2.742  24.961  0.00  0.00    -0.008 A 
ATOM     23  C   UNL     1      -4.032   2.934  25.671  0.00  0.00    -0.003 A 
ATOM     24  C   UNL     1      -4.613   3.520  25.688  0.00  0.00    -0.000 A 
ATOM     25  C   UNL     1      -4.822   3.914  24.993  0.00  0.00    -0.000 A 
ATOM     26  C   UNL     1      -4.450   3.722  24.283  0.00  0.00    -0.000 A 
ATOM     27  C   UNL     1      -3.870   3.136  24.266  0.00  0.00    -0.003 A 
ENDBRANCH  20  22
BRANCH  18  28
ATOM     28  N   UNL     1      -0.917   1.972  25.167  0.00  0.00    -0.270 NA
ATOM     29  C   UNL     1      -0.396   2.000  24.528  0.00  0.00    +0.105 C 
ATOM     30  C   UNL     1       0.396   2.201  24.648  0.00  0.00    +0.159 C 
ATOM     31  O   UNL     1       0.665   2.374  25.408  0.00  0.00    -0.351 OA
ATOM     32  C   UNL     1       0.144   2.346  26.047  0.00  0.00    +0.159 C 
ATOM     33  C   UNL     1      -0.646   2.145  25.926  0.00  0.00    +0.105 C 
ENDBRANCH  18  28
BRANCH   5   3
ATOM      3  C   UNL     1      -4.662   1.755  24.702  0.00  0.00    +0.332 C 
ATOM      4  O   UNL     1      -5.001   2.486  24.524  0.00  0.00    -0.249 OA
BRANCH   3   2
ATOM      1  C   UNL     1      -6.065   1.488  24.717  0.00  0.00    +0.256 C 
ATOM      2  O   UNL     1      -5.362   1.630  25.121  0.00  0.00    -0.443 OA
ENDBRANCH   3   2
ENDBRANCH   5   3
TORSDOF 4
ENDMDL
MODEL 2
REMARK VINA RESULT:     -13.5      1.419      4.618
REMARK  Name = 
REMARK  4 active torsions:
REMARK  status: ('A' for Active; 'I' for Inactive)
REMARK    1  A    between atoms: O_2  and  C_3
REMARK    2  A    between atoms: C_3  and  C_5
REMARK    3  A    between atoms: C_18  and  N_28
REMARK    4  A    between atoms: C_20  and  C_22
REMARK                            x       y       z     vdW  Elec       q    Type
REMARK                         _______ _______ _______ _____ _____    ______ ____
ROOT
ATOM      5  C   UNL     1      -2.231  -0.142  24.655  0.00  0.00    +0.162 C 
ATOM      6  C   UNL     1      -1.523   0.272  24.572  0.00  0.00    +0.055 C 
ATOM      7  C   UNL     1      -1.519   1.096  24.615  0.00  0.00    -0.004 A 
ATOM      8  C   UNL     1      -2.224   1.506  24.742  0.00  0.00    +0.070 A 
ATOM      9  N   UNL     1      -2.051   2.311  24.759  0.00  0.00    -0.249 NA
ATOM     10  C   UNL     1      -1.239   2.401  24.643  0.00  0.00    +0.081 A 
ATOM     11  C   UNL     1      -0.910   1.649  24.554  0.00  0.00    +0.015 A 
ATOM     12  C   UNL     1      -0.099   1.566  24.429  0.00  0.00    +0.001 A 
ATOM     13  C   UNL     1       0.384   2.234  24.392  0.00  0.00    +0.000 A 
ATOM     14  C   UNL     1       0.055   2.986  24.482  0.00  0.00    +0.002 A 
ATOM     15  C   UNL     1      -0.757   3.070  24.607  0.00  0.00    +0.019 A 
ATOM     16  C   UNL     1      -2.933   1.091  24.826  0.00  0.00    +0.100 C 
ATOM     17  C   UNL     1      -3.638   1.500  24.953  0.00  0.00    +0.038 C 
ATOM     18  C   UNL     1      -4.345   1.085  25.036  0.00  0.00    +0.061 C 
ATOM     19  C   UNL     1      -4.349   0.261  24.992  0.00  0.00    +0.037 C 
ATOM     20  C   UNL     1      -3.644  -0.147  24.865  0.00  0.00    +0.082 C 
ATOM     21  N   UNL     1      -2.936   0.267  24.782  0.00  0.00    -0.258 NA
ENDROOT
BRANCH  20  22
ATOM     22  C   UNL     1      -3.648  -0.971  24.822  0.00  0.00    -0.008 A 
ATOM     23  C   UNL     1      -3.509  -1.421  25.498  0.00  0.00    -0.003 A 
ATOM     24  C   UNL     1      -3.513  -2.245  25.454  0.00  0.00    -0.000 A 
ATOM     25  C   UNL     1      -3.657  -2.619  24.732  0.00  0.00    -0.000 A 
ATOM     26  C   UNL     1      -3.797  -2.169  24.056  0.00  0.00    -0.000 A 
ATOM     27  C   UNL     1      -3.793  -1.345  24.100  0.00  0.00    -0.003 A 
ENDBRANCH  20  22
BRANCH  18  28
ATOM     28  N   UNL     1      -5.051   1.495  25.163  0.00  0.00    -0.270 NA
ATOM     29  C   UNL     1      -5.181   1.880  25.881  0.00  0.00    +0.105 C 
ATOM     30  C   UNL     1      -5.886   2.290  26.008  0.00  0.00    +0.159 C 
ATOM     31  O   UNL     1      -6.460   2.313  25.417  0.00  0.00    -0.351 OA
ATOM     32  C   UNL     1      -6.331   1.928  24.699  0.00  0.00    +0.159 C 
ATOM     33  C   UNL     1      -5.626   1.519  24.573  0.00  0.00    +0.105 C 
ENDBRANCH  18  28
BRANCH   5   3
ATOM      3  C   UNL     1      -2.234  -0.966  24.611  0.00  0.00    +0.332 C 
ATOM      4  O   UNL     1      -2.526  -1.709  24.400  0.00  0.00    -0.249 OA
BRANCH   3   2
ATOM      1  C   UNL     1      -1.025  -1.715  24.481  0.00  0.00    +0.256 C 
ATOM      2  O   UNL     1      -1.622  -1.401  24.954  0.00  0.00    -0.443 OA
ENDBRANCH   3   2
ENDBRANCH   5   3
TORSDOF 4
ENDMDL
MODEL 3
REMARK VINA RESULT:     -13.4      0.979      3.440
REMARK  Name = 
REMARK  4 active torsions:
REMARK  status: ('A' for Active; 'I' for Inactive)
REMARK    1  A    between atoms: O_2  and  C_3
REMARK    2  A    between atoms: C_3  and  C_5
REMARK    3  A    between atoms: C_18  and  N_28
REMARK    4  A    between atoms: C_20  and  C_22
REMARK                            x       y       z     vdW  Elec       q    Type
REMARK                         _______ _______ _______ _____ _____    ______ ____
ROOT
ATOM      5  C   UNL     1      -1.790   0.370  24.726  0.00  0.00    +0.162 C 
ATOM      6  C   UNL     1      -2.015  -0.408  24.573  0.00  0.00    +0.055 C 
ATOM      7  C   UNL     1      -2.814  -0.597  24.489  0.00  0.00    -0.004 A 
ATOM      8  C   UNL     1      -3.387  -0.008  24.558  0.00  0.00    +0.070 A 
ATOM      9  N   UNL     1      -4.126  -0.358  24.449  0.00  0.00    -0.249 NA
ATOM     10  C   UNL     1      -4.011  -1.163  24.313  0.00  0.00    +0.081 A 
ATOM     11  C   UNL     1      -3.199  -1.311  24.338  0.00  0.00    +0.015 A 
ATOM     12  C   UNL     1      -2.916  -2.077  24.220  0.00  0.00    +0.001 A 
ATOM     13  C   UNL     1      -3.444  -2.695  24.076  0.00  0.00    +0.000 A 
ATOM     14  C   UNL     1      -4.256  -2.546  24.051  0.00  0.00    +0.002 A 
ATOM     15  C   UNL     1      -4.539  -1.780  24.169  0.00  0.00    +0.019 A 
ATOM     16  C   UNL     1      -3.162   0.771  24.710  0.00  0.00    +0.100 C 
ATOM     17  C   UNL     1      -3.734   1.360  24.779  0.00  0.00    +0.038 C 
ATOM     18  C   UNL     1      -3.509   2.139  24.932  0.00  0.00    +0.061 C 
ATOM     19  C   UNL     1      -2.710   2.328  25.016  0.00  0.00    +0.037 C 
ATOM     20  C   UNL     1      -2.138   1.738  24.947  0.00  0.00    +0.082 C 
ATOM     21  N   UNL     1      -2.363   0.960  24.795  0.00  0.00    -0.258 NA
ENDROOT
BRANCH  20  22
ATOM     22  C   UNL     1      -1.339   1.928  25.032  0.00  0.00    -0.008 A 
ATOM     23  C   UNL     1      -0.893   2.141  24.372  0.00  0.00    -0.003 A 
ATOM     24  C   UNL     1      -0.095   2.331  24.457  0.00  0.00    -0.000 A 
ATOM     25  C   UNL     1       0.257   2.308  25.203  0.00  0.00    -0.000 A 
ATOM     26  C   UNL     1      -0.188   2.095  25.863  0.00  0.00    -0.000 A 
ATOM     27  C   UNL     1      -0.987   1.905  25.778  0.00  0.00    -0.003 A 
ENDBRANCH  20  22
BRANCH  18  28
ATOM     28  N   UNL     1      -4.082   2.729  25.000  0.00  0.00    -0.270 NA
ATOM     29  C   UNL     1      -4.618   2.712  25.627  0.00  0.00    +0.105 C 
ATOM     30  C   UNL     1      -5.191   3.302  25.696  0.00  0.00    +0.159 C 
ATOM     31  O   UNL     1      -5.228   3.907  25.138  0.00  0.00    -0.351 OA
ATOM     32  C   UNL     1      -4.691   3.924  24.511  0.00  0.00    +0.159 C 
ATOM     33  C   UNL     1      -4.119   3.335  24.443  0.00  0.00    +0.105 C 
ENDBRANCH  18  28
BRANCH   5   3
ATOM      3  C   UNL     1      -0.991   0.559  24.810  0.00  0.00    +0.332 C 
ATOM      4  O   UNL     1      -0.337   0.932  25.146  0.00  0.00    -0.249 OA
BRANCH   3   2
ATOM      1  C   UNL     1      -0.013  -0.444  24.532  0.00  0.00    +0.256 C 
ATOM      2  O   UNL     1      -0.432   0.228  24.302  0.00  0.00    -0.443 OA
ENDBRANCH   3   2
ENDBRANCH   5   3
TORSDOF 4
ENDMDL
MODEL 4
REMARK VINA RESULT:     -13.4      1.187      3.752
REMARK  Name = 
REMARK  4 active torsions:
REMARK  status: ('A' for Active; 'I' for Inactive)
REMARK    1  A    between atoms: O_2  and  C_3
REMARK    2  A    between atoms: C_3  and  C_5
REMARK    3  A    between atoms: C_18  and  N_28
REMARK    4  A    between atoms: C_20  and  C_22
REMARK                            x       y       z     vdW  Elec       q    Type
REMARK                         _______ _______ _______ _____ _____    ______ ____
ROOT
ATOM      5  C   UNL     1      -3.415   1.978  24.916  0.00  0.00    +0.162 C 
ATOM      6  C   UNL     1      -2.676   2.334  24.840  0.00  0.00    +0.055 C 
ATOM      7  C   UNL     1      -2.012   1.873  24.674  0.00  0.00    -0.004 A 
ATOM      8  C   UNL     1      -2.087   1.056  24.584  0.00  0.00    +0.070 A 
ATOM      9  N   UNL     1      -1.340   0.747  24.424  0.00  0.00    -0.249 NA
ATOM     10  C   UNL     1      -0.801   1.371  24.414  0.00  0.00    +0.081 A 
ATOM     11  C   UNL     1      -1.217   2.068  24.569  0.00  0.00    +0.015 A 
ATOM     12  C   UNL     1      -0.817   2.789  24.594  0.00  0.00    +0.001 A 
ATOM     13  C   UNL     1      -0.002   2.815  24.464  0.00  0.00    +0.000 A 
ATOM     14  C   UNL     1       0.413   2.118  24.309  0.00  0.00    +0.002 A 
ATOM     15  C   UNL     1       0.013   1.397  24.284  0.00  0.00    +0.019 A 
ATOM     16  C   UNL     1      -2.828   0.700  24.660  0.00  0.00    +0.100 C 
ATOM     17  C   UNL     1      -2.905  -0.116  24.571  0.00  0.00    +0.038 C 
ATOM     18  C   UNL     1      -3.645  -0.471  24.647  0.00  0.00    +0.061 C 
ATOM     19  C   UNL     1      -4.309  -0.011  24.812  0.00  0.00    +0.037 C 
ATOM     20  C   UNL     1      -4.232   0.805  24.902  0.00  0.00    +0.082 C 
ATOM     21  N   UNL     1      -3.492   1.161  24.826  0.00  0.00    -0.258 NA
ENDROOT
BRANCH  20  22
ATOM     22  C   UNL     1      -4.897   1.266  25.068  0.00  0.00    -0.008 A 
ATOM     23  C   UNL     1      -5.337   1.592  24.452  0.00  0.00    -0.003 A 
ATOM     24  C   UNL     1      -6.002   2.052  24.619  0.00  0.00    -0.000 A 
ATOM     25  C   UNL     1      -6.225   2.185  25.402  0.00  0.00    -0.000 A 
ATOM     26  C   UNL     1      -5.785   1.859  26.018  0.00  0.00    -0.000 A 
ATOM     27  C   UNL     1      -5.120   1.399  25.851  0.00  0.00    -0.003 A 
ENDBRANCH  20  22
BRANCH  18  28
ATOM     28  N   UNL     1      -3.721  -1.288  24.557  0.00  0.00    -0.270 NA
ATOM     29  C   UNL     1      -3.434  -1.796  25.140  0.00  0.00    +0.105 C 
ATOM     30  C   UNL     1      -3.511  -2.613  25.051  0.00  0.00    +0.159 C 
ATOM     31  O   UNL     1      -3.874  -2.921  24.378  0.00  0.00    -0.351 OA
ATOM     32  C   UNL     1      -4.161  -2.413  23.794  0.00  0.00    +0.159 C 
ATOM     33  C   UNL     1      -4.085  -1.597  23.884  0.00  0.00    +0.105 C 
ENDBRANCH  18  28
BRANCH   5   3
ATOM      3  C   UNL     1      -4.080   2.439  25.082  0.00  0.00    +0.332 C 
ATOM      4  O   UNL     1      -4.806   2.616  25.431  0.00  0.00    -0.249 OA
BRANCH   3   2
ATOM      1  C   UNL     1      -3.999   3.861  25.192  0.00  0.00    +0.256 C 
ATOM      2  O   UNL     1      -4.158   3.187  24.744  0.00  0.00    -0.443 OA
ENDBRANCH   3   2
ENDBRANCH   5   3
TORSDOF 4
ENDMDL
MODEL 5
REMARK VINA RESULT:     -13.1      1.348      4.322
REMARK  Name = 
REMARK  4 active torsions:
REMARK  status: ('A' for Active; 'I' for Inactive)
REMARK    1  A    between atoms: O_2  and  C_3
REMARK    2  A    between atoms: C_3  and  C_5
REMARK    3  A    between atoms: C_18  and  N_28
REMARK    4  A    between atoms: C_20  and  C_22
REMARK                            x       y       z     vdW  Elec       q    Type
REMARK                         _______ _______ _______ _____ _____    ______ ____
ROOT
ATOM      5  C   UNL     1      -2.583   1.883  24.766  0.00  0.00    +0.162 C 
ATOM      6  C   UNL     1      -3.149   2.455  24.945  0.00  0.00    +0.055 C 
ATOM      7  C   UNL     1      -3.935   2.234  25.066  0.00  0.00    -0.004 A 
ATOM      8  C   UNL     1      -4.154   1.441  25.009  0.00  0.00    +0.070 A 
ATOM      9  N   UNL     1      -4.964   1.389  25.156  0.00  0.00    -0.249 NA
ATOM     10  C   UNL     1      -5.247   2.149  25.304  0.00  0.00    +0.081 A 
ATOM     11  C   UNL     1      -4.609   2.672  25.249  0.00  0.00    +0.015 A 
ATOM     12  C   UNL     1      -4.727   3.479  25.372  0.00  0.00    +0.001 A 
ATOM     13  C   UNL     1      -5.481   3.765  25.550  0.00  0.00    +0.000 A 
ATOM     14  C   UNL     1      -6.117   3.241  25.605  0.00  0.00    +0.002 A 
ATOM     15  C   UNL     1      -6.000   2.434  25.483  0.00  0.00    +0.019 A 
ATOM     16  C   UNL     1      -3.587   0.868  24.830  0.00  0.00    +0.100 C 
ATOM     17  C   UNL     1      -3.806   0.075  24.773  0.00  0.00    +0.038 C 
ATOM     18  C   UNL     1      -3.239  -0.497  24.594  0.00  0.00    +0.061 C 
ATOM     19  C   UNL     1      -2.454  -0.276  24.473  0.00  0.00    +0.037 C 
ATOM     20  C   UNL     1      -2.236   0.517  24.530  0.00  0.00    +0.082 C 
ATOM     21  N   UNL     1      -2.802   1.089  24.709  0.00  0.00    -0.258 NA
ENDROOT
BRANCH  20  22
ATOM     22  C   UNL     1      -1.449   0.737  24.409  0.00  0.00    -0.008 A 
ATOM     23  C   UNL     1      -0.926   0.769  25.045  0.00  0.00    -0.003 A 
ATOM     24  C   UNL     1      -0.141   0.989  24.923  0.00  0.00    -0.000 A 
ATOM     25  C   UNL     1       0.121   1.178  24.163  0.00  0.00    -0.000 A 
ATOM     26  C   UNL     1      -0.402   1.147  23.527  0.00  0.00    -0.000 A 
ATOM     27  C   UNL     1      -1.187   0.926  23.649  0.00  0.00    -0.003 A 
ENDBRANCH  20  22
BRANCH  18  28
ATOM     28  N   UNL     1      -3.458  -1.291  24.537  0.00  0.00    -0.270 NA
ATOM     29  C   UNL     1      -3.221  -1.827  25.118  0.00  0.00    +0.105 C 
ATOM     30  C   UNL     1      -3.440  -2.621  25.060  0.00  0.00    +0.159 C 
ATOM     31  O   UNL     1      -3.895  -2.877  24.422  0.00  0.00    -0.351 OA
ATOM     32  C   UNL     1      -4.132  -2.341  23.842  0.00  0.00    +0.159 C 
ATOM     33  C   UNL     1      -3.914  -1.548  23.900  0.00  0.00    +0.105 C 
ENDBRANCH  18  28
BRANCH   5   3
ATOM      3  C   UNL     1      -1.797   2.104  24.645  0.00  0.00    +0.332 C 
ATOM      4  O   UNL     1      -1.055   2.082  24.285  0.00  0.00    -0.249 OA
BRANCH   3   2
ATOM      1  C   UNL     1      -1.356   3.452  24.814  0.00  0.00    +0.256 C 
ATOM      2  O   UNL     1      -1.456   2.691  25.114  0.00  0.00    -0.443 OA
ENDBRANCH   3   2
ENDBRANCH   5   3
TORSDOF 4
ENDMDL
MODEL 6
REMARK VINA RESULT:     -12.9      1.718      3.873
REMARK  Name = 
REMARK  4 active torsions:
REMARK  status: ('A' for Active; 'I' for Inactive)
REMARK    1  A    between atoms: O_2  and  C_3
REMARK    2  A    between atoms: C_3  and  C_5
REMARK    3  A    between atoms: C_18  and  N_28
REMARK    4  A    between atoms: C_20  and  C_22
REMARK                            x       y       z     vdW  Elec       q    Type
REMARK                         _______ _______ _______ _____ _____    ______ ____
ROOT
ATOM      5  C   UNL     1      -2.981   1.792  24.844  0.00  0.00    +0.162 C 
ATOM      6  C   UNL     1      -2.941   2.600  25.003  0.00  0.00    +0.055 C 
ATOM      7  C   UNL     1      -2.227   3.003  24.917  0.00  0.00    -0.004 A 
ATOM      8  C   UNL     1      -1.551   2.598  24.671  0.00  0.00    +0.070 A 
ATOM      9  N   UNL     1      -0.929   3.138  24.635  0.00  0.00    -0.249 NA
ATOM     10  C   UNL     1      -1.218   3.878  24.859  0.00  0.00    +0.081 A 
ATOM     11  C   UNL     1      -2.021   3.794  25.033  0.00  0.00    +0.015 A 
ATOM     12  C   UNL     1      -2.461   4.448  25.275  0.00  0.00    +0.001 A 
ATOM     13  C   UNL     1      -2.099   5.187  25.343  0.00  0.00    +0.000 A 
ATOM     14  C   UNL     1      -1.296   5.270  25.169  0.00  0.00    +0.002 A 
ATOM     15  C   UNL     1      -0.856   4.616  24.927  0.00  0.00    +0.019 A 
ATOM     16  C   UNL     1      -1.590   1.790  24.511  0.00  0.00    +0.100 C 
ATOM     17  C   UNL     1      -0.916   1.384  24.265  0.00  0.00    +0.038 C 
ATOM     18  C   UNL     1      -0.955   0.576  24.106  0.00  0.00    +0.061 C 
ATOM     19  C   UNL     1      -1.670   0.173  24.192  0.00  0.00    +0.037 C 
ATOM     20  C   UNL     1      -2.344   0.579  24.438  0.00  0.00    +0.082 C 
ATOM     21  N   UNL     1      -2.305   1.386  24.597  0.00  0.00    -0.258 NA
ENDROOT
BRANCH  20  22
ATOM     22  C   UNL     1      -3.059   0.175  24.524  0.00  0.00    -0.008 A 
ATOM     23  C   UNL     1      -3.574   0.105  23.884  0.00  0.00    -0.003 A 
ATOM     24  C   UNL     1      -4.288  -0.299  23.971  0.00  0.00    -0.000 A 
ATOM     25  C   UNL     1      -4.487  -0.633  24.699  0.00  0.00    -0.000 A 
ATOM     26  C   UNL     1      -3.972  -0.564  25.339  0.00  0.00    -0.000 A 
ATOM     27  C   UNL     1      -3.258  -0.160  25.252  0.00  0.00    -0.003 A 
ENDBRANCH  20  22
BRANCH  18  28
ATOM     28  N   UNL     1      -0.280   0.170  23.860  0.00  0.00    -0.270 NA
ATOM     29  C   UNL     1       0.166   0.457  23.227  0.00  0.00    +0.105 C 
ATOM     30  C   UNL     1       0.842   0.052  22.981  0.00  0.00    +0.159 C 
ATOM     31  O   UNL     1       1.070  -0.640  23.367  0.00  0.00    -0.351 OA
ATOM     32  C   UNL     1       0.624  -0.927  24.000  0.00  0.00    +0.159 C 
ATOM     33  C   UNL     1      -0.051  -0.521  24.245  0.00  0.00    +0.105 C 
ENDBRANCH  18  28
BRANCH   5   3
ATOM      3  C   UNL     1      -3.695   1.389  24.930  0.00  0.00    +0.332 C 
ATOM      4  O   UNL     1      -4.185   0.760  25.143  0.00  0.00    -0.249 OA
BRANCH   3   2
ATOM      1  C   UNL     1      -4.915   2.062  25.247  0.00  0.00    +0.256 C 
ATOM      2  O   UNL     1      -4.400   1.742  24.688  0.00  0.00    -0.443 OA
ENDBRANCH   3   2
ENDBRANCH   5   3
TORSDOF 4
ENDMDL
