MODEL 1
REMARK VINA RESULT:     -11.6      0.000      0.000
REMARK  Name = 
REMARK  6 active torsions:
REMARK  status: ('A' for Active; 'I' for Inactive)
REMARK    1  A    between atoms: C_2  and  O_11
REMARK    2  A    between atoms: N_3  and  C_4
REMARK    3  A    between atoms: C_4  and  C_5
REMARK    4  A    between atoms: O_11  and  C_12
REMARK    5  A    between atoms: C_16  and  N_20
REMARK    6  A    between atoms: C_23  and  C_27
REMARK                            x       y       z     vdW  Elec       q    Type
REMARK                         _______ _______ _______ _____ _____    ______ ____
ROOT
ATOM     12  C   UNL     1       0.672  -0.009  23.369  0.00  0.00    +0.229 C 
ATOM     13  C   UNL     1       0.649   0.806  23.238  0.00  0.00    +0.188 C 
ATOM     14  O   UNL     1      -0.014   1.108  23.626  0.00  0.00    -0.348 OA
ATOM     15  C   UNL     1      -0.400   0.481  23.996  0.00  0.00    +0.168 C 
ATOM     16  C   UNL     1      -1.050   0.281  24.465  0.00  0.00    +0.155 C 
ATOM     17  C   UNL     1      -1.027  -0.534  24.596  0.00  0.00    +0.166 C 
ATOM     18  O   UNL     1      -0.364  -0.836  24.208  0.00  0.00    -0.348 OA
ATOM     19  C   UNL     1       0.023  -0.210  23.838  0.00  0.00    +0.186 C 
ENDROOT
BRANCH  16  20
ATOM     20  N   UNL     1      -1.620   0.802  24.751  0.00  0.00    -0.200 NA
ATOM     21  C   UNL     1      -2.417   0.679  24.576  0.00  0.00    +0.237 A 
ATOM     22  N   UNL     1      -2.988   1.202  24.862  0.00  0.00    -0.212 NA
ATOM     23  C   UNL     1      -3.785   1.079  24.687  0.00  0.00    +0.086 A 
ATOM     24  C   UNL     1      -4.010   0.433  24.224  0.00  0.00    +0.040 A 
ATOM     25  C   UNL     1      -3.440  -0.088  23.938  0.00  0.00    +0.103 A 
ATOM     26  N   UNL     1      -2.643   0.035  24.113  0.00  0.00    -0.211 NA
BRANCH  23  27
ATOM     27  C   UNL     1      -4.355   1.600  24.973  0.00  0.00    +0.021 A 
ATOM     28  C   UNL     1      -4.229   2.414  24.930  0.00  0.00    +0.042 A 
ATOM     29  C   UNL     1      -4.800   2.936  25.217  0.00  0.00    +0.176 A 
ATOM     30  C   UNL     1      -5.497   2.644  25.547  0.00  0.00    +0.176 A 
ATOM     31  O   UNL     1      -5.957   3.287  25.783  0.00  0.00    -0.435 OA
ATOM     32  C   UNL     1      -5.544   3.977  25.598  0.00  0.00    +0.429 C 
ATOM     33  O   UNL     1      -4.829   3.759  25.249  0.00  0.00    -0.435 OA
ATOM     34  C   UNL     1      -5.624   1.830  25.590  0.00  0.00    +0.040 A 
ATOM     35  C   UNL     1      -5.053   1.308  25.303  0.00  0.00    +0.005 A 
ENDBRANCH  23  27
ENDBRANCH  16  20
BRANCH  12  11
ATOM     11  O   UNL     1       1.242  -0.530  23.083  0.00  0.00    -0.432 OA
BRANCH  11   2
ATOM      1  O   UNL     1       1.851   0.075  21.942  0.00  0.00    -0.225 OA
ATOM      2  C   UNL     1       1.913  -0.239  22.701  0.00  0.00    +0.421 C 
ATOM      3  N   UNL     1       2.645  -0.262  23.081  0.00  0.00    -0.164 NA
BRANCH   3   4
ATOM      4  C   UNL     1       3.316   0.030  22.699  0.00  0.00    +0.145 C 
BRANCH   4   5
ATOM      5  C   UNL     1       4.050   0.004  23.076  0.00  0.00    -0.000 A 
ATOM      6  C   UNL     1       4.526   0.678  23.097  0.00  0.00    -0.003 A 
ATOM      7  C   UNL     1       5.259   0.652  23.474  0.00  0.00    -0.000 A 
ATOM      8  C   UNL     1       5.517  -0.047  23.829  0.00  0.00    -0.000 A 
ATOM      9  C   UNL     1       5.041  -0.720  23.808  0.00  0.00    -0.000 A 
ATOM     10  C   UNL     1       4.307  -0.695  23.431  0.00  0.00    -0.003 A 
ENDBRANCH   4   5
ENDBRANCH   3   4
ENDBRANCH  11   2
ENDBRANCH  12  11
TORSDOF 6
ENDMDL
MODEL 2
REMARK VINA RESULT:      -9.9      1.535      7.740
REMARK  Name = 
REMARK  6 active torsions:
REMARK  status: ('A' for Active; 'I' for Inactive)
REMARK    1  A    between atoms: C_2  and  O_11
REMARK    2  A    between atoms: N_3  and  C_4
REMARK    3  A    between atoms: C_4  and  C_5
REMARK    4  A    between atoms: O_11  and  C_12
REMARK    5  A    between atoms: C_16  and  N_20
REMARK    6  A    between atoms: C_23  and  C_27
REMARK                            x       y       z     vdW  Elec       q    Type
REMARK                         _______ _______ _______ _____ _____    ______ ____
ROOT
ATOM     12  C   UNL     1      -2.084   1.471  23.538  0.00  0.00    +0.229 C 
ATOM     13  C   UNL     1      -1.679   2.190  23.521  0.00  0.00    +0.188 C 
ATOM     14  O   UNL     1      -0.876   2.033  23.625  0.00  0.00    -0.348 OA
ATOM     15  C   UNL     1      -0.784   1.217  23.705  0.00  0.00    +0.168 C 
ATOM     16  C   UNL     1      -0.230   0.616  23.819  0.00  0.00    +0.155 C 
ATOM     17  C   UNL     1      -0.635  -0.103  23.835  0.00  0.00    +0.166 C 
ATOM     18  O   UNL     1      -1.438   0.054  23.731  0.00  0.00    -0.348 OA
ATOM     19  C   UNL     1      -1.530   0.869  23.651  0.00  0.00    +0.186 C 
ENDROOT
BRANCH  16  20
ATOM     20  N   UNL     1       0.584   0.716  23.902  0.00  0.00    -0.200 NA
ATOM     21  C   UNL     1       1.098   0.394  23.342  0.00  0.00    +0.237 A 
ATOM     22  N   UNL     1       1.914   0.494  23.425  0.00  0.00    -0.212 NA
ATOM     23  C   UNL     1       2.428   0.173  22.866  0.00  0.00    +0.086 A 
ATOM     24  C   UNL     1       2.126  -0.249  22.224  0.00  0.00    +0.040 A 
ATOM     25  C   UNL     1       1.312  -0.350  22.141  0.00  0.00    +0.103 A 
ATOM     26  N   UNL     1       0.798  -0.028  22.700  0.00  0.00    -0.211 NA
BRANCH  23  27
ATOM     27  C   UNL     1       3.242   0.273  22.948  0.00  0.00    +0.021 A 
ATOM     28  C   UNL     1       3.690  -0.299  23.337  0.00  0.00    +0.042 A 
ATOM     29  C   UNL     1       4.505  -0.199  23.420  0.00  0.00    +0.176 A 
ATOM     30  C   UNL     1       4.871   0.474  23.114  0.00  0.00    +0.176 A 
ATOM     31  O   UNL     1       5.677   0.423  23.278  0.00  0.00    -0.435 OA
ATOM     32  C   UNL     1       5.810  -0.282  23.685  0.00  0.00    +0.429 C 
ATOM     33  O   UNL     1       5.086  -0.666  23.773  0.00  0.00    -0.435 OA
ATOM     34  C   UNL     1       4.422   1.047  22.725  0.00  0.00    +0.040 A 
ATOM     35  C   UNL     1       3.607   0.946  22.642  0.00  0.00    +0.005 A 
ENDBRANCH  23  27
ENDBRANCH  16  20
BRANCH  12  11
ATOM     11  O   UNL     1      -2.898   1.371  23.455  0.00  0.00    -0.432 OA
BRANCH  11   2
ATOM      1  O   UNL     1      -3.338   2.705  23.198  0.00  0.00    -0.225 OA
ATOM      2  C   UNL     1      -3.409   1.998  23.616  0.00  0.00    +0.421 C 
ATOM      3  N   UNL     1      -3.991   1.917  24.195  0.00  0.00    -0.164 NA
BRANCH   3   4
ATOM      4  C   UNL     1      -4.502   2.544  24.356  0.00  0.00    +0.145 C 
BRANCH   4   5
ATOM      5  C   UNL     1      -5.080   2.467  24.940  0.00  0.00    -0.000 A 
ATOM      6  C   UNL     1      -5.103   3.000  25.570  0.00  0.00    -0.003 A 
ATOM      7  C   UNL     1      -5.681   2.922  26.153  0.00  0.00    -0.000 A 
ATOM      8  C   UNL     1      -6.236   2.313  26.107  0.00  0.00    -0.000 A 
ATOM      9  C   UNL     1      -6.213   1.781  25.478  0.00  0.00    -0.000 A 
ATOM     10  C   UNL     1      -5.634   1.858  24.894  0.00  0.00    -0.003 A 
ENDBRANCH   4   5
ENDBRANCH   3   4
ENDBRANCH  11   2
ENDBRANCH  12  11
TORSDOF 6
ENDMDL
MODEL 3
REMARK VINA RESULT:      -9.7      1.948      7.336
REMARK  Name = 
REMARK  6 active torsions:
REMARK  status: ('A' for Active; 'I' for Inactive)
REMARK    1  A    between atoms: C_2  and  O_11
REMARK    2  A    between atoms: N_3  and  C_4
REMARK    3  A    between atoms: C_4  and  C_5
REMARK    4  A    between atoms: O_11  and  C_12
REMARK    5  A    between atoms: C_16  and  N_20
REMARK    6  A    between atoms: C_23  and  C_27
REMARK                            x       y       z     vdW  Elec       q    Type
REMARK                         _______ _______ _______ _____ _____    ______ ____
ROOT
ATOM     12  C   UNL     1      -1.885   1.138  24.704  0.00  0.00    +0.229 C 
ATOM     13  C   UNL     1      -1.464   1.053  25.408  0.00  0.00    +0.188 C 
ATOM     14  O   UNL     1      -0.659   1.084  25.230  0.00  0.00    -0.348 OA
ATOM     15  C   UNL     1      -0.582   1.189  24.416  0.00  0.00    +0.168 C 
ATOM     16  C   UNL     1      -0.036   1.273  23.802  0.00  0.00    +0.155 C 
ATOM     17  C   UNL     1      -0.457   1.358  23.098  0.00  0.00    +0.166 C 
ATOM     18  O   UNL     1      -1.262   1.327  23.276  0.00  0.00    -0.348 OA
ATOM     19  C   UNL     1      -1.339   1.222  24.090  0.00  0.00    +0.186 C 
ENDROOT
BRANCH  16  20
ATOM     20  N   UNL     1       0.784   1.272  23.880  0.00  0.00    -0.200 NA
ATOM     21  C   UNL     1       1.245   0.799  23.385  0.00  0.00    +0.237 A 
ATOM     22  N   UNL     1       2.067   0.798  23.462  0.00  0.00    -0.212 NA
ATOM     23  C   UNL     1       2.527   0.325  22.967  0.00  0.00    +0.086 A 
ATOM     24  C   UNL     1       2.166  -0.146  22.394  0.00  0.00    +0.040 A 
ATOM     25  C   UNL     1       1.345  -0.145  22.316  0.00  0.00    +0.103 A 
ATOM     26  N   UNL     1       0.885   0.328  22.812  0.00  0.00    -0.211 NA
BRANCH  23  27
ATOM     27  C   UNL     1       3.348   0.324  23.044  0.00  0.00    +0.021 A 
ATOM     28  C   UNL     1       3.723  -0.289  23.447  0.00  0.00    +0.042 A 
ATOM     29  C   UNL     1       4.545  -0.291  23.525  0.00  0.00    +0.176 A 
ATOM     30  C   UNL     1       4.991   0.323  23.200  0.00  0.00    +0.176 A 
ATOM     31  O   UNL     1       5.785   0.175  23.363  0.00  0.00    -0.435 OA
ATOM     32  C   UNL     1       5.831  -0.530  23.789  0.00  0.00    +0.429 C 
ATOM     33  O   UNL     1       5.064  -0.817  23.889  0.00  0.00    -0.435 OA
ATOM     34  C   UNL     1       4.615   0.937  22.796  0.00  0.00    +0.040 A 
ATOM     35  C   UNL     1       3.794   0.938  22.719  0.00  0.00    +0.005 A 
ENDBRANCH  23  27
ENDBRANCH  16  20
BRANCH  12  11
ATOM     11  O   UNL     1      -2.705   1.139  24.626  0.00  0.00    -0.432 OA
BRANCH  11   2
ATOM      1  O   UNL     1      -3.416   0.698  25.784  0.00  0.00    -0.225 OA
ATOM      2  C   UNL     1      -3.157   0.567  25.013  0.00  0.00    +0.421 C 
ATOM      3  N   UNL     1      -3.349  -0.137  24.626  0.00  0.00    -0.164 NA
BRANCH   3   4
ATOM      4  C   UNL     1      -3.800  -0.709  25.012  0.00  0.00    +0.145 C 
BRANCH   4   5
ATOM      5  C   UNL     1      -3.841  -1.476  24.710  0.00  0.00    -0.000 A 
ATOM      6  C   UNL     1      -4.262  -1.622  24.015  0.00  0.00    -0.003 A 
ATOM      7  C   UNL     1      -4.304  -2.389  23.713  0.00  0.00    -0.000 A 
ATOM      8  C   UNL     1      -3.925  -3.008  24.104  0.00  0.00    -0.000 A 
ATOM      9  C   UNL     1      -3.504  -2.862  24.799  0.00  0.00    -0.000 A 
ATOM     10  C   UNL     1      -3.463  -2.095  25.102  0.00  0.00    -0.003 A 
ENDBRANCH   4   5
ENDBRANCH   3   4
ENDBRANCH  11   2
ENDBRANCH  12  11
TORSDOF 6
ENDMDL
MODEL 4
REMARK VINA RESULT:      -9.3      1.885      7.496
REMARK  Name = 
REMARK  6 active torsions:
REMARK  status: ('A' for Active; 'I' for Inactive)
REMARK    1  A    between atoms: C_2  and  O_11
REMARK    2  A    between atoms: N_3  and  C_4
REMARK    3  A    between atoms: C_4  and  C_5
REMARK    4  A    between atoms: O_11  and  C_12
REMARK    5  A    between atoms: C_16  and  N_20
REMARK    6  A    between atoms: C_23  and  C_27
REMARK                            x       y       z     vdW  Elec       q    Type
REMARK                         _______ _______ _______ _____ _____    ______ ____
ROOT
ATOM     12  C   UNL     1      -1.762   3.782  25.631  0.00  0.00    +0.229 C 
ATOM     13  C   UNL     1      -1.370   4.279  25.102  0.00  0.00    +0.188 C 
ATOM     14  O   UNL     1      -0.692   3.889  24.839  0.00  0.00    -0.348 OA
ATOM     15  C   UNL     1      -0.666   3.150  25.205  0.00  0.00    +0.168 C 
ATOM     16  C   UNL     1      -0.230   2.452  25.268  0.00  0.00    +0.155 C 
ATOM     17  C   UNL     1      -0.622   1.955  25.797  0.00  0.00    +0.166 C 
ATOM     18  O   UNL     1      -1.299   2.345  26.061  0.00  0.00    -0.348 OA
ATOM     19  C   UNL     1      -1.326   3.083  25.695  0.00  0.00    +0.186 C 
ENDROOT
BRANCH  16  20
ATOM     20  N   UNL     1       0.473   2.282  24.873  0.00  0.00    -0.200 NA
ATOM     21  C   UNL     1       0.520   1.620  24.383  0.00  0.00    +0.237 A 
ATOM     22  N   UNL     1       1.224   1.449  23.986  0.00  0.00    -0.212 NA
ATOM     23  C   UNL     1       1.272   0.787  23.496  0.00  0.00    +0.086 A 
ATOM     24  C   UNL     1       0.616   0.295  23.403  0.00  0.00    +0.040 A 
ATOM     25  C   UNL     1      -0.087   0.466  23.799  0.00  0.00    +0.103 A 
ATOM     26  N   UNL     1      -0.135   1.128  24.289  0.00  0.00    -0.211 NA
BRANCH  23  27
ATOM     27  C   UNL     1       1.975   0.617  23.101  0.00  0.00    +0.021 A 
ATOM     28  C   UNL     1       2.689   0.916  23.382  0.00  0.00    +0.042 A 
ATOM     29  C   UNL     1       3.393   0.746  22.986  0.00  0.00    +0.176 A 
ATOM     30  C   UNL     1       3.382   0.276  22.309  0.00  0.00    +0.176 A 
ATOM     31  O   UNL     1       4.156   0.201  22.036  0.00  0.00    -0.435 OA
ATOM     32  C   UNL     1       4.647   0.625  22.546  0.00  0.00    +0.429 C 
ATOM     33  O   UNL     1       4.175   0.962  23.132  0.00  0.00    -0.435 OA
ATOM     34  C   UNL     1       2.666  -0.025  22.027  0.00  0.00    +0.040 A 
ATOM     35  C   UNL     1       1.963   0.146  22.423  0.00  0.00    +0.005 A 
ENDBRANCH  23  27
ENDBRANCH  16  20
BRANCH  12  11
ATOM     11  O   UNL     1      -2.465   3.952  26.027  0.00  0.00    -0.432 OA
BRANCH  11   2
ATOM      1  O   UNL     1      -3.266   4.633  25.060  0.00  0.00    -0.225 OA
ATOM      2  C   UNL     1      -3.170   4.021  25.604  0.00  0.00    +0.421 C 
ATOM      3  N   UNL     1      -3.778   3.476  25.725  0.00  0.00    -0.164 NA
BRANCH   3   4
ATOM      4  C   UNL     1      -4.483   3.544  25.302  0.00  0.00    +0.145 C 
BRANCH   4   5
ATOM      5  C   UNL     1      -5.025   2.923  25.300  0.00  0.00    -0.000 A 
ATOM      6  C   UNL     1      -5.582   2.860  25.906  0.00  0.00    -0.003 A 
ATOM      7  C   UNL     1      -6.124   2.238  25.904  0.00  0.00    -0.000 A 
ATOM      8  C   UNL     1      -6.111   1.680  25.297  0.00  0.00    -0.000 A 
ATOM      9  C   UNL     1      -5.555   1.743  24.691  0.00  0.00    -0.000 A 
ATOM     10  C   UNL     1      -5.012   2.365  24.692  0.00  0.00    -0.003 A 
ENDBRANCH   4   5
ENDBRANCH   3   4
ENDBRANCH  11   2
ENDBRANCH  12  11
TORSDOF 6
ENDMDL
MODEL 5
REMARK VINA RESULT:      -8.7      1.733      7.274
REMARK  Name = 
REMARK  6 active torsions:
REMARK  status: ('A' for Active; 'I' for Inactive)
REMARK    1  A    between atoms: C_2  and  O_11
REMARK    2  A    between atoms: N_3  and  C_4
REMARK    3  A    between atoms: C_4  and  C_5
REMARK    4  A    between atoms: O_11  and  C_12
REMARK    5  A    between atoms: C_16  and  N_20
REMARK    6  A    between atoms: C_23  and  C_27
REMARK                            x       y       z     vdW  Elec       q    Type
REMARK                         _______ _______ _______ _____ _____    ______ ____
ROOT
ATOM     12  C   UNL     1      -3.031  -0.911  24.946  0.00  0.00    +0.229 C 
ATOM     13  C   UNL     1      -2.906  -1.342  24.253  0.00  0.00    +0.188 C 
ATOM     14  O   UNL     1      -2.105  -1.295  24.063  0.00  0.00    -0.348 OA
ATOM     15  C   UNL     1      -1.734  -0.835  24.638  0.00  0.00    +0.168 C 
ATOM     16  C   UNL     1      -1.008  -0.521  24.875  0.00  0.00    +0.155 C 
ATOM     17  C   UNL     1      -1.133  -0.090  25.568  0.00  0.00    +0.166 C 
ATOM     18  O   UNL     1      -1.934  -0.137  25.758  0.00  0.00    -0.348 OA
ATOM     19  C   UNL     1      -2.305  -0.597  25.184  0.00  0.00    +0.186 C 
ENDROOT
BRANCH  16  20
ATOM     20  N   UNL     1      -0.287  -0.621  24.489  0.00  0.00    -0.200 NA
ATOM     21  C   UNL     1       0.101   0.032  24.166  0.00  0.00    +0.237 A 
ATOM     22  N   UNL     1       0.824  -0.068  23.779  0.00  0.00    -0.212 NA
ATOM     23  C   UNL     1       1.212   0.584  23.456  0.00  0.00    +0.086 A 
ATOM     24  C   UNL     1       0.878   1.336  23.520  0.00  0.00    +0.040 A 
ATOM     25  C   UNL     1       0.157   1.436  23.906  0.00  0.00    +0.103 A 
ATOM     26  N   UNL     1      -0.231   0.784  24.229  0.00  0.00    -0.211 NA
BRANCH  23  27
ATOM     27  C   UNL     1       1.933   0.484  23.069  0.00  0.00    +0.021 A 
ATOM     28  C   UNL     1       2.628   0.765  23.413  0.00  0.00    +0.042 A 
ATOM     29  C   UNL     1       3.350   0.665  23.027  0.00  0.00    +0.176 A 
ATOM     30  C   UNL     1       3.377   0.284  22.295  0.00  0.00    +0.176 A 
ATOM     31  O   UNL     1       4.163   0.266  22.046  0.00  0.00    -0.435 OA
ATOM     32  C   UNL     1       4.622   0.635  22.623  0.00  0.00    +0.429 C 
ATOM     33  O   UNL     1       4.120   0.882  23.228  0.00  0.00    -0.435 OA
ATOM     34  C   UNL     1       2.681   0.003  21.950  0.00  0.00    +0.040 A 
ATOM     35  C   UNL     1       1.960   0.103  22.338  0.00  0.00    +0.005 A 
ENDBRANCH  23  27
ENDBRANCH  16  20
BRANCH  12  11
ATOM     11  O   UNL     1      -3.752  -0.811  25.332  0.00  0.00    -0.432 OA
BRANCH  11   2
ATOM      1  O   UNL     1      -4.780  -0.660  24.352  0.00  0.00    -0.225 OA
ATOM      2  C   UNL     1      -4.347  -0.357  24.984  0.00  0.00    +0.421 C 
ATOM      3  N   UNL     1      -4.507   0.400  25.271  0.00  0.00    -0.164 NA
BRANCH   3   4
ATOM      4  C   UNL     1      -5.102   0.854  24.923  0.00  0.00    +0.145 C 
BRANCH   4   5
ATOM      5  C   UNL     1      -5.185   1.649  25.124  0.00  0.00    -0.000 A 
ATOM      6  C   UNL     1      -5.743   1.876  25.689  0.00  0.00    -0.003 A 
ATOM      7  C   UNL     1      -5.826   2.671  25.890  0.00  0.00    -0.000 A 
ATOM      8  C   UNL     1      -5.352   3.241  25.528  0.00  0.00    -0.000 A 
ATOM      9  C   UNL     1      -4.795   3.015  24.963  0.00  0.00    -0.000 A 
ATOM     10  C   UNL     1      -4.711   2.219  24.761  0.00  0.00    -0.003 A 
ENDBRANCH   4   5
ENDBRANCH   3   4
ENDBRANCH  11   2
ENDBRANCH  12  11
TORSDOF 6
ENDMDL
