MODEL 1
REMARK VINA RESULT:      -8.7      0.000      0.000
REMARK  Name = 
REMARK  4 active torsions:
REMARK  status: ('A' for Active; 'I' for Inactive)
REMARK    1  A    between atoms: C_4  and  C_13
REMARK    2  A    between atoms: C_5  and  N_6
REMARK    3  A    between atoms: N_6  and  C_7
REMARK    4  A    between atoms: C_7  and  C_8
REMARK                            x       y       z     vdW  Elec       q    Type
REMARK                         _______ _______ _______ _____ _____    ______ ____
ROOT
ATOM      1  O   UNL     1      -5.204   1.870  24.986  0.00  0.00    -0.220 OA
ATOM      2  C   UNL     1      -4.631   1.291  24.863  0.00  0.00    +0.184 C 
ATOM      3  C   UNL     1      -4.738   0.477  24.944  0.00  0.00    +0.041 C 
ATOM      4  C   UNL     1      -4.022   0.106  24.769  0.00  0.00    +0.045 C 
ATOM      5  C   UNL     1      -3.472   0.690  24.579  0.00  0.00    +0.110 C 
ATOM     11  C   UNL     1      -3.848   1.423  24.638  0.00  0.00    +0.198 C 
ATOM     12  O   UNL     1      -3.502   2.157  24.495  0.00  0.00    -0.219 OA
ENDROOT
BRANCH   4  13
ATOM     13  C   UNL     1      -3.882  -0.707  24.781  0.00  0.00    -0.002 A 
ATOM     14  C   UNL     1      -3.994  -1.156  24.097  0.00  0.00    -0.001 A 
ATOM     15  C   UNL     1      -3.853  -1.969  24.109  0.00  0.00    +0.020 A 
ATOM     16  C   UNL     1      -3.600  -2.333  24.805  0.00  0.00    +0.099 A 
ATOM     17  N   UNL     1      -3.488  -1.885  25.488  0.00  0.00    -0.243 NA
ATOM     18  C   UNL     1      -3.628  -1.072  25.476  0.00  0.00    +0.095 A 
ENDBRANCH   4  13
BRANCH   5   6
ATOM      6  N   UNL     1      -2.684   0.565  24.368  0.00  0.00    -0.216 NA
BRANCH   6   7
ATOM      7  C   UNL     1      -2.114   1.133  24.549  0.00  0.00    +0.089 C 
BRANCH   7   8
ATOM      8  C   UNL     1      -1.317   0.976  24.405  0.00  0.00    +0.017 C 
ATOM      9  C   UNL     1      -0.698   0.854  23.874  0.00  0.00    +0.001 C 
ATOM     10  C   UNL     1      -0.556   0.829  24.686  0.00  0.00    +0.001 C 
ENDBRANCH   7   8
ENDBRANCH   6   7
ENDBRANCH   5   6
TORSDOF 4
ENDMDL
MODEL 2
REMARK VINA RESULT:      -8.7      1.366      3.103
REMARK  Name = 
REMARK  4 active torsions:
REMARK  status: ('A' for Active; 'I' for Inactive)
REMARK    1  A    between atoms: C_4  and  C_13
REMARK    2  A    between atoms: C_5  and  N_6
REMARK    3  A    between atoms: N_6  and  C_7
REMARK    4  A    between atoms: C_7  and  C_8
REMARK                            x       y       z     vdW  Elec       q    Type
REMARK                         _______ _______ _______ _____ _____    ______ ____
ROOT
ATOM      1  O   UNL     1      -5.565   3.054  25.384  0.00  0.00    -0.220 OA
ATOM      2  C   UNL     1      -4.994   2.562  25.051  0.00  0.00    +0.184 C 
ATOM      3  C   UNL     1      -4.314   2.807  24.654  0.00  0.00    +0.041 C 
ATOM      4  C   UNL     1      -3.902   2.133  24.414  0.00  0.00    +0.045 C 
ATOM      5  C   UNL     1      -4.328   1.472  24.662  0.00  0.00    +0.110 C 
ATOM     11  C   UNL     1      -5.003   1.736  25.056  0.00  0.00    +0.198 C 
ATOM     12  O   UNL     1      -5.585   1.260  25.395  0.00  0.00    -0.219 OA
ENDROOT
BRANCH   4  13
ATOM     13  C   UNL     1      -3.189   2.122  23.998  0.00  0.00    -0.002 A 
ATOM     14  C   UNL     1      -3.192   2.044  23.177  0.00  0.00    -0.001 A 
ATOM     15  C   UNL     1      -2.479   2.034  22.761  0.00  0.00    +0.020 A 
ATOM     16  C   UNL     1      -1.764   2.102  23.167  0.00  0.00    +0.099 A 
ATOM     17  N   UNL     1      -1.762   2.180  23.989  0.00  0.00    -0.243 NA
ATOM     18  C   UNL     1      -2.474   2.190  24.404  0.00  0.00    +0.095 A 
ENDBRANCH   4  13
BRANCH   5   6
ATOM      6  N   UNL     1      -4.117   0.684  24.538  0.00  0.00    -0.216 NA
BRANCH   6   7
ATOM      7  C   UNL     1      -4.290   0.116  25.111  0.00  0.00    +0.089 C 
BRANCH   7   8
ATOM      8  C   UNL     1      -4.010  -0.655  25.025  0.00  0.00    +0.017 C 
ATOM      9  C   UNL     1      -3.579  -1.296  25.316  0.00  0.00    +0.001 C 
ATOM     10  C   UNL     1      -3.955  -1.350  24.584  0.00  0.00    +0.001 C 
ENDBRANCH   7   8
ENDBRANCH   6   7
ENDBRANCH   5   6
TORSDOF 4
ENDMDL
MODEL 3
REMARK VINA RESULT:      -8.7      1.340      2.706
REMARK  Name = 
REMARK  4 active torsions:
REMARK  status: ('A' for Active; 'I' for Inactive)
REMARK    1  A    between atoms: C_4  and  C_13
REMARK    2  A    between atoms: C_5  and  N_6
REMARK    3  A    between atoms: N_6  and  C_7
REMARK    4  A    between atoms: C_7  and  C_8
REMARK                            x       y       z     vdW  Elec       q    Type
REMARK                         _______ _______ _______ _____ _____    ______ ____
ROOT
ATOM      1  O   UNL     1      -2.297   1.973  22.650  0.00  0.00    -0.220 OA
ATOM      2  C   UNL     1      -2.759   1.592  23.217  0.00  0.00    +0.184 C 
ATOM      3  C   UNL     1      -2.711   0.796  23.427  0.00  0.00    +0.041 C 
ATOM      4  C   UNL     1      -3.273   0.652  24.014  0.00  0.00    +0.045 C 
ATOM      5  C   UNL     1      -3.668   1.360  24.168  0.00  0.00    +0.110 C 
ATOM     11  C   UNL     1      -3.350   1.941  23.676  0.00  0.00    +0.198 C 
ATOM     12  O   UNL     1      -3.583   2.732  23.647  0.00  0.00    -0.219 OA
ENDROOT
BRANCH   4  13
ATOM     13  C   UNL     1      -3.415  -0.072  24.383  0.00  0.00    -0.002 A 
ATOM     14  C   UNL     1      -3.911  -0.626  24.027  0.00  0.00    -0.001 A 
ATOM     15  C   UNL     1      -4.053  -1.351  24.396  0.00  0.00    +0.020 A 
ATOM     16  C   UNL     1      -3.698  -1.520  25.121  0.00  0.00    +0.099 A 
ATOM     17  N   UNL     1      -3.202  -0.966  25.477  0.00  0.00    -0.243 NA
ATOM     18  C   UNL     1      -3.060  -0.242  25.108  0.00  0.00    +0.095 A 
ENDBRANCH   4  13
BRANCH   5   6
ATOM      6  N   UNL     1      -4.273   1.468  24.718  0.00  0.00    -0.216 NA
BRANCH   6   7
ATOM      7  C   UNL     1      -4.824   2.074  24.610  0.00  0.00    +0.089 C 
BRANCH   7   8
ATOM      8  C   UNL     1      -5.460   2.149  25.130  0.00  0.00    +0.017 C 
ATOM      9  C   UNL     1      -6.249   2.000  25.320  0.00  0.00    +0.001 C 
ATOM     10  C   UNL     1      -5.772   2.428  25.840  0.00  0.00    +0.001 C 
ENDBRANCH   7   8
ENDBRANCH   6   7
ENDBRANCH   5   6
TORSDOF 4
ENDMDL
MODEL 4
REMARK VINA RESULT:      -8.6      1.663      3.220
REMARK  Name = 
REMARK  4 active torsions:
REMARK  status: ('A' for Active; 'I' for Inactive)
REMARK    1  A    between atoms: C_4  and  C_13
REMARK    2  A    between atoms: C_5  and  N_6
REMARK    3  A    between atoms: N_6  and  C_7
REMARK    4  A    between atoms: C_7  and  C_8
REMARK                            x       y       z     vdW  Elec       q    Type
REMARK                         _______ _______ _______ _____ _____    ______ ____
ROOT
ATOM      1  O   UNL     1      -2.542   2.319  22.645  0.00  0.00    -0.220 OA
ATOM      2  C   UNL     1      -2.985   2.056  23.289  0.00  0.00    +0.184 C 
ATOM      3  C   UNL     1      -3.616   2.456  23.639  0.00  0.00    +0.041 C 
ATOM      4  C   UNL     1      -3.897   1.994  24.263  0.00  0.00    +0.045 C 
ATOM      5  C   UNL     1      -3.439   1.309  24.299  0.00  0.00    +0.110 C 
ATOM     11  C   UNL     1      -2.875   1.347  23.697  0.00  0.00    +0.198 C 
ATOM     12  O   UNL     1      -2.302   0.777  23.533  0.00  0.00    -0.219 OA
ENDROOT
BRANCH   4  13
ATOM     13  C   UNL     1      -4.525   2.184  24.763  0.00  0.00    -0.002 A 
ATOM     14  C   UNL     1      -5.282   1.898  24.602  0.00  0.00    -0.001 A 
ATOM     15  C   UNL     1      -5.910   2.088  25.102  0.00  0.00    +0.020 A 
ATOM     16  C   UNL     1      -5.781   2.564  25.764  0.00  0.00    +0.099 A 
ATOM     17  N   UNL     1      -5.024   2.850  25.925  0.00  0.00    -0.243 NA
ATOM     18  C   UNL     1      -4.396   2.660  25.425  0.00  0.00    +0.095 A 
ENDBRANCH   4  13
BRANCH   5   6
ATOM      6  N   UNL     1      -3.528   0.693  24.841  0.00  0.00    -0.216 NA
BRANCH   6   7
ATOM      7  C   UNL     1      -3.209  -0.050  24.677  0.00  0.00    +0.089 C 
BRANCH   7   8
ATOM      8  C   UNL     1      -3.367  -0.686  25.178  0.00  0.00    +0.017 C 
ATOM      9  C   UNL     1      -3.694  -1.433  25.302  0.00  0.00    +0.001 C 
ATOM     10  C   UNL     1      -3.315  -1.040  25.921  0.00  0.00    +0.001 C 
ENDBRANCH   7   8
ENDBRANCH   6   7
ENDBRANCH   5   6
TORSDOF 4
ENDMDL
MODEL 5
REMARK VINA RESULT:      -8.6      2.365      3.212
REMARK  Name = 
REMARK  4 active torsions:
REMARK  status: ('A' for Active; 'I' for Inactive)
REMARK    1  A    between atoms: C_4  and  C_13
REMARK    2  A    between atoms: C_5  and  N_6
REMARK    3  A    between atoms: N_6  and  C_7
REMARK    4  A    between atoms: C_7  and  C_8
REMARK                            x       y       z     vdW  Elec       q    Type
REMARK                         _______ _______ _______ _____ _____    ______ ____
ROOT
ATOM      1  O   UNL     1      -5.473   2.964  25.824  0.00  0.00    -0.220 OA
ATOM      2  C   UNL     1      -4.770   2.964  25.393  0.00  0.00    +0.184 C 
ATOM      3  C   UNL     1      -4.536   2.391  24.847  0.00  0.00    +0.041 C 
ATOM      4  C   UNL     1      -3.798   2.611  24.548  0.00  0.00    +0.045 C 
ATOM      5  C   UNL     1      -3.577   3.319  24.909  0.00  0.00    +0.110 C 
ATOM     11  C   UNL     1      -4.178   3.538  25.431  0.00  0.00    +0.198 C 
ATOM     12  O   UNL     1      -4.185   4.210  25.908  0.00  0.00    -0.219 OA
ENDROOT
BRANCH   4  13
ATOM     13  C   UNL     1      -3.359   2.195  23.987  0.00  0.00    -0.002 A 
ATOM     14  C   UNL     1      -3.368   2.433  23.197  0.00  0.00    -0.001 A 
ATOM     15  C   UNL     1      -2.928   2.017  22.636  0.00  0.00    +0.020 A 
ATOM     16  C   UNL     1      -2.481   1.363  22.865  0.00  0.00    +0.099 A 
ATOM     17  N   UNL     1      -2.472   1.125  23.655  0.00  0.00    -0.243 NA
ATOM     18  C   UNL     1      -2.911   1.541  24.216  0.00  0.00    +0.095 A 
ENDBRANCH   4  13
BRANCH   5   6
ATOM      6  N   UNL     1      -2.878   3.736  24.772  0.00  0.00    -0.216 NA
BRANCH   6   7
ATOM      7  C   UNL     1      -2.507   4.133  25.393  0.00  0.00    +0.089 C 
BRANCH   7   8
ATOM      8  C   UNL     1      -1.788   4.515  25.266  0.00  0.00    +0.017 C 
ATOM      9  C   UNL     1      -1.366   5.195  25.062  0.00  0.00    +0.001 C 
ATOM     10  C   UNL     1      -0.964   4.499  25.249  0.00  0.00    +0.001 C 
ENDBRANCH   7   8
ENDBRANCH   6   7
ENDBRANCH   5   6
TORSDOF 4
ENDMDL
