MODEL 1
REMARK VINA RESULT:     -14.8      0.000      0.000
REMARK  Name = 
REMARK  4 active torsions:
REMARK  status: ('A' for Active; 'I' for Inactive)
REMARK    1  A    between atoms: C_13  and  N_14
REMARK    2  A    between atoms: N_14  and  S_15
REMARK    3  A    between atoms: S_15  and  C_18
REMARK    4  A    between atoms: C_20  and  C_24
REMARK                            x       y       z     vdW  Elec       q    Type
REMARK                         _______ _______ _______ _____ _____    ______ ____
ROOT
ATOM      1  C   UNL     1      -3.683   2.820  24.784  0.00  0.00    +0.095 C 
ATOM      2  C   UNL     1      -3.614   3.637  24.883  0.00  0.00    +0.226 C 
ATOM      3  O   UNL     1      -4.276   4.121  24.794  0.00  0.00    -0.275 OA
ATOM      4  N   UNL     1      -2.882   3.969  25.071  0.00  0.00    -0.279 N 
ATOM      5  C   UNL     1      -2.317   4.557  25.252  0.00  0.00    +0.095 C 
ATOM      6  C   UNL     1      -1.516   3.989  25.361  0.00  0.00    +0.043 C 
ATOM      7  C   UNL     1      -0.777   3.668  25.483  0.00  0.00    +0.011 C 
ATOM      8  C   UNL     1      -1.422   3.440  25.324  0.00  0.00    +0.058 C 
ATOM      9  C   UNL     1      -2.187   4.003  25.221  0.00  0.00    +0.099 C 
ATOM     10  C   UNL     1      -1.891   2.671  25.145  0.00  0.00    +0.041 A 
ATOM     11  C   UNL     1      -1.784   1.855  25.083  0.00  0.00    +0.014 A 
ATOM     12  C   UNL     1      -2.424   1.368  24.898  0.00  0.00    +0.024 A 
ATOM     13  C   UNL     1      -3.171   1.697  24.775  0.00  0.00    +0.147 A 
ATOM     28  C   UNL     1      -3.278   2.513  24.837  0.00  0.00    +0.277 A 
ATOM     29  O   UNL     1      -4.082   2.593  24.676  0.00  0.00    -0.266 OA
ATOM     30  N   UNL     1      -2.638   2.999  25.022  0.00  0.00    -0.298 N 
ATOM     31  C   UNL     1      -2.014   3.190  25.173  0.00  0.00    +0.110 C 
ENDROOT
BRANCH  13  14
ATOM     14  N   UNL     1      -3.809   1.210  24.590  0.00  0.00    -0.092 NA
BRANCH  14  15
ATOM     15  S   UNL     1      -3.758   0.396  24.715  0.00  0.00    +0.093 S 
ATOM     16  O   UNL     1      -3.361   0.311  23.997  0.00  0.00    -0.148 OA
ATOM     17  O   UNL     1      -4.155   0.481  25.433  0.00  0.00    -0.148 OA
BRANCH  15  18
ATOM     18  C   UNL     1      -3.706  -0.418  24.840  0.00  0.00    +0.127 A 
ATOM     19  C   UNL     1      -3.973  -0.942  24.261  0.00  0.00    +0.024 A 
ATOM     20  C   UNL     1      -3.921  -1.756  24.387  0.00  0.00    +0.073 A 
ATOM     21  C   UNL     1      -3.603  -2.045  25.092  0.00  0.00    +0.004 A 
ATOM     22  C   UNL     1      -3.337  -1.521  25.670  0.00  0.00    +0.001 A 
ATOM     23  C   UNL     1      -3.389  -0.707  25.545  0.00  0.00    +0.020 A 
BRANCH  20  24
ATOM     24  C   UNL     1      -4.187  -2.280  23.809  0.00  0.00    +0.419 C 
ATOM     25  F   UNL     1      -4.454  -2.804  23.230  0.00  0.00    -0.166 F 
ATOM     26  F   UNL     1      -4.945  -1.956  23.864  0.00  0.00    -0.166 F 
ATOM     27  F   UNL     1      -3.430  -2.604  23.754  0.00  0.00    -0.166 F 
ENDBRANCH  20  24
ENDBRANCH  15  18
ENDBRANCH  14  15
ENDBRANCH  13  14
TORSDOF 4
ENDMDL
MODEL 2
REMARK VINA RESULT:     -14.8      2.392      4.868
REMARK  Name = 
REMARK  4 active torsions:
REMARK  status: ('A' for Active; 'I' for Inactive)
REMARK    1  A    between atoms: C_13  and  N_14
REMARK    2  A    between atoms: N_14  and  S_15
REMARK    3  A    between atoms: S_15  and  C_18
REMARK    4  A    between atoms: C_20  and  C_24
REMARK                            x       y       z     vdW  Elec       q    Type
REMARK                         _______ _______ _______ _____ _____    ______ ____
ROOT
ATOM      1  C   UNL     1      -1.930  -0.548  24.621  0.00  0.00    +0.095 C 
ATOM      2  C   UNL     1      -1.608  -1.304  24.697  0.00  0.00    +0.226 C 
ATOM      3  O   UNL     1      -0.804  -1.396  24.855  0.00  0.00    -0.275 OA
ATOM      4  N   UNL     1      -2.091  -1.968  24.615  0.00  0.00    -0.279 N 
ATOM      5  C   UNL     1      -2.309  -2.774  24.587  0.00  0.00    +0.095 C 
ATOM      6  C   UNL     1      -3.274  -2.678  24.398  0.00  0.00    +0.043 C 
ATOM      7  C   UNL     1      -4.069  -2.769  24.245  0.00  0.00    +0.011 C 
ATOM      8  C   UNL     1      -3.613  -2.241  24.325  0.00  0.00    +0.058 C 
ATOM      9  C   UNL     1      -2.682  -2.351  24.507  0.00  0.00    +0.099 C 
ATOM     10  C   UNL     1      -3.564  -1.324  24.318  0.00  0.00    +0.041 A 
ATOM     11  C   UNL     1      -4.039  -0.658  24.214  0.00  0.00    +0.014 A 
ATOM     12  C   UNL     1      -3.709   0.097  24.265  0.00  0.00    +0.024 A 
ATOM     13  C   UNL     1      -2.903   0.185  24.420  0.00  0.00    +0.147 A 
ATOM     28  C   UNL     1      -2.428  -0.481  24.524  0.00  0.00    +0.277 A 
ATOM     29  O   UNL     1      -1.688  -0.144  24.661  0.00  0.00    -0.266 OA
ATOM     30  N   UNL     1      -2.758  -1.235  24.473  0.00  0.00    -0.298 N 
ATOM     31  C   UNL     1      -3.213  -1.720  24.393  0.00  0.00    +0.110 C 
ENDROOT
BRANCH  13  14
ATOM     14  N   UNL     1      -2.574   0.939  24.470  0.00  0.00    -0.092 NA
BRANCH  14  15
ATOM     15  S   UNL     1      -3.062   1.603  24.477  0.00  0.00    +0.093 S 
ATOM     16  O   UNL     1      -3.100   1.584  23.653  0.00  0.00    -0.148 OA
ATOM     17  O   UNL     1      -3.024   1.623  25.301  0.00  0.00    -0.148 OA
BRANCH  15  18
ATOM     18  C   UNL     1      -3.551   2.268  24.484  0.00  0.00    +0.127 A 
ATOM     19  C   UNL     1      -4.169   2.321  25.029  0.00  0.00    +0.024 A 
ATOM     20  C   UNL     1      -4.657   2.985  25.036  0.00  0.00    +0.073 A 
ATOM     21  C   UNL     1      -4.528   3.598  24.498  0.00  0.00    +0.004 A 
ATOM     22  C   UNL     1      -3.911   3.545  23.953  0.00  0.00    +0.001 A 
ATOM     23  C   UNL     1      -3.423   2.881  23.947  0.00  0.00    +0.020 A 
BRANCH  20  24
ATOM     24  C   UNL     1      -5.274   3.038  25.581  0.00  0.00    +0.419 C 
ATOM     25  F   UNL     1      -5.892   3.090  26.125  0.00  0.00    -0.166 F 
ATOM     26  F   UNL     1      -5.761   2.607  25.071  0.00  0.00    -0.166 F 
ATOM     27  F   UNL     1      -4.788   3.468  26.090  0.00  0.00    -0.166 F 
ENDBRANCH  20  24
ENDBRANCH  15  18
ENDBRANCH  14  15
ENDBRANCH  13  14
TORSDOF 4
ENDMDL
MODEL 3
REMARK VINA RESULT:     -14.5      1.445      2.281
REMARK  Name = 
REMARK  4 active torsions:
REMARK  status: ('A' for Active; 'I' for Inactive)
REMARK    1  A    between atoms: C_13  and  N_14
REMARK    2  A    between atoms: N_14  and  S_15
REMARK    3  A    between atoms: S_15  and  C_18
REMARK    4  A    between atoms: C_20  and  C_24
REMARK                            x       y       z     vdW  Elec       q    Type
REMARK                         _______ _______ _______ _____ _____    ______ ____
ROOT
ATOM      1  C   UNL     1      -3.104   2.255  24.913  0.00  0.00    +0.095 C 
ATOM      2  C   UNL     1      -3.390   3.018  25.040  0.00  0.00    +0.226 C 
ATOM      3  O   UNL     1      -2.872   3.660  25.030  0.00  0.00    -0.275 OA
ATOM      4  N   UNL     1      -4.194   3.140  25.178  0.00  0.00    -0.279 N 
ATOM      5  C   UNL     1      -4.905   3.551  25.333  0.00  0.00    +0.095 C 
ATOM      6  C   UNL     1      -5.536   2.791  25.349  0.00  0.00    +0.043 C 
ATOM      7  C   UNL     1      -6.173   2.285  25.393  0.00  0.00    +0.011 C 
ATOM      8  C   UNL     1      -5.481   2.240  25.280  0.00  0.00    +0.058 C 
ATOM      9  C   UNL     1      -4.884   2.985  25.269  0.00  0.00    +0.099 C 
ATOM     10  C   UNL     1      -4.816   1.629  25.111  0.00  0.00    +0.041 A 
ATOM     11  C   UNL     1      -4.703   0.819  25.005  0.00  0.00    +0.014 A 
ATOM     12  C   UNL     1      -3.947   0.525  24.855  0.00  0.00    +0.024 A 
ATOM     13  C   UNL     1      -3.304   1.041  24.812  0.00  0.00    +0.147 A 
ATOM     28  C   UNL     1      -3.418   1.851  24.918  0.00  0.00    +0.277 A 
ATOM     29  O   UNL     1      -2.652   2.144  24.831  0.00  0.00    -0.266 OA
ATOM     30  N   UNL     1      -4.174   2.145  25.067  0.00  0.00    -0.298 N 
ATOM     31  C   UNL     1      -4.835   2.160  25.171  0.00  0.00    +0.110 C 
ENDROOT
BRANCH  13  14
ATOM     14  N   UNL     1      -2.549   0.746  24.662  0.00  0.00    -0.092 NA
BRANCH  14  15
ATOM     15  S   UNL     1      -2.417  -0.068  24.656  0.00  0.00    +0.093 S 
ATOM     16  O   UNL     1      -2.558  -0.085  23.844  0.00  0.00    -0.148 OA
ATOM     17  O   UNL     1      -2.276  -0.052  25.469  0.00  0.00    -0.148 OA
BRANCH  15  18
ATOM     18  C   UNL     1      -2.286  -0.883  24.651  0.00  0.00    +0.127 A 
ATOM     19  C   UNL     1      -2.924  -1.404  24.612  0.00  0.00    +0.024 A 
ATOM     20  C   UNL     1      -2.791  -2.219  24.606  0.00  0.00    +0.073 A 
ATOM     21  C   UNL     1      -2.021  -2.512  24.641  0.00  0.00    +0.004 A 
ATOM     22  C   UNL     1      -1.383  -1.990  24.680  0.00  0.00    +0.001 A 
ATOM     23  C   UNL     1      -1.515  -1.176  24.685  0.00  0.00    +0.020 A 
BRANCH  20  24
ATOM     24  C   UNL     1      -3.430  -2.740  24.567  0.00  0.00    +0.419 C 
ATOM     25  F   UNL     1      -4.068  -3.261  24.526  0.00  0.00    -0.166 F 
ATOM     26  F   UNL     1      -3.382  -2.735  23.742  0.00  0.00    -0.166 F 
ATOM     27  F   UNL     1      -3.477  -2.744  25.390  0.00  0.00    -0.166 F 
ENDBRANCH  20  24
ENDBRANCH  15  18
ENDBRANCH  14  15
ENDBRANCH  13  14
TORSDOF 4
ENDMDL
MODEL 4
REMARK VINA RESULT:     -14.3      1.586      2.066
REMARK  Name = 
REMARK  4 active torsions:
REMARK  status: ('A' for Active; 'I' for Inactive)
REMARK    1  A    between atoms: C_13  and  N_14
REMARK    2  A    between atoms: N_14  and  S_15
REMARK    3  A    between atoms: S_15  and  C_18
REMARK    4  A    between atoms: C_20  and  C_24
REMARK                            x       y       z     vdW  Elec       q    Type
REMARK                         _______ _______ _______ _____ _____    ______ ____
ROOT
ATOM      1  C   UNL     1      -5.099   1.580  25.206  0.00  0.00    +0.095 C 
ATOM      2  C   UNL     1      -5.371   2.332  25.409  0.00  0.00    +0.226 C 
ATOM      3  O   UNL     1      -6.134   2.428  25.707  0.00  0.00    -0.275 OA
ATOM      4  N   UNL     1      -4.879   2.988  25.315  0.00  0.00    -0.279 N 
ATOM      5  C   UNL     1      -4.633   3.786  25.331  0.00  0.00    +0.095 C 
ATOM      6  C   UNL     1      -3.717   3.685  24.976  0.00  0.00    +0.043 C 
ATOM      7  C   UNL     1      -2.954   3.770  24.703  0.00  0.00    +0.011 C 
ATOM      8  C   UNL     1      -3.414   3.250  24.804  0.00  0.00    +0.058 C 
ATOM      9  C   UNL     1      -4.297   3.364  25.149  0.00  0.00    +0.099 C 
ATOM     10  C   UNL     1      -3.504   2.339  24.714  0.00  0.00    +0.041 A 
ATOM     11  C   UNL     1      -3.081   1.676  24.466  0.00  0.00    +0.014 A 
ATOM     12  C   UNL     1      -3.432   0.929  24.496  0.00  0.00    +0.024 A 
ATOM     13  C   UNL     1      -4.205   0.847  24.773  0.00  0.00    +0.147 A 
ATOM     28  C   UNL     1      -4.627   1.511  25.020  0.00  0.00    +0.277 A 
ATOM     29  O   UNL     1      -5.349   1.181  25.245  0.00  0.00    -0.266 OA
ATOM     30  N   UNL     1      -4.277   2.257  24.991  0.00  0.00    -0.298 N 
ATOM     31  C   UNL     1      -3.820   2.735  24.885  0.00  0.00    +0.110 C 
ENDROOT
BRANCH  13  14
ATOM     14  N   UNL     1      -4.554   0.101  24.802  0.00  0.00    -0.092 NA
BRANCH  14  15
ATOM     15  S   UNL     1      -4.093  -0.576  24.698  0.00  0.00    +0.093 S 
ATOM     16  O   UNL     1      -4.185  -0.513  23.881  0.00  0.00    -0.148 OA
ATOM     17  O   UNL     1      -4.001  -0.638  25.516  0.00  0.00    -0.148 OA
BRANCH  15  18
ATOM     18  C   UNL     1      -3.632  -1.252  24.595  0.00  0.00    +0.127 A 
ATOM     19  C   UNL     1      -2.825  -1.231  24.764  0.00  0.00    +0.024 A 
ATOM     20  C   UNL     1      -2.364  -1.908  24.661  0.00  0.00    +0.073 A 
ATOM     21  C   UNL     1      -2.711  -2.605  24.389  0.00  0.00    +0.004 A 
ATOM     22  C   UNL     1      -3.518  -2.626  24.220  0.00  0.00    +0.001 A 
ATOM     23  C   UNL     1      -3.979  -1.950  24.323  0.00  0.00    +0.020 A 
BRANCH  20  24
ATOM     24  C   UNL     1      -1.557  -1.886  24.830  0.00  0.00    +0.419 C 
ATOM     25  F   UNL     1      -0.750  -1.865  24.997  0.00  0.00    -0.166 F 
ATOM     26  F   UNL     1      -1.396  -1.712  24.038  0.00  0.00    -0.166 F 
ATOM     27  F   UNL     1      -1.718  -2.060  25.620  0.00  0.00    -0.166 F 
ENDBRANCH  20  24
ENDBRANCH  15  18
ENDBRANCH  14  15
ENDBRANCH  13  14
TORSDOF 4
ENDMDL
MODEL 5
REMARK VINA RESULT:     -14.3      1.265      1.701
REMARK  Name = 
REMARK  4 active torsions:
REMARK  status: ('A' for Active; 'I' for Inactive)
REMARK    1  A    between atoms: C_13  and  N_14
REMARK    2  A    between atoms: N_14  and  S_15
REMARK    3  A    between atoms: S_15  and  C_18
REMARK    4  A    between atoms: C_20  and  C_24
REMARK                            x       y       z     vdW  Elec       q    Type
REMARK                         _______ _______ _______ _____ _____    ______ ____
ROOT
ATOM      1  C   UNL     1      -1.045   2.272  24.384  0.00  0.00    +0.095 C 
ATOM      2  C   UNL     1      -0.606   2.970  24.407  0.00  0.00    +0.226 C 
ATOM      3  O   UNL     1       0.154   2.991  24.087  0.00  0.00    -0.275 OA
ATOM      4  N   UNL     1      -0.927   3.649  24.749  0.00  0.00    -0.279 N 
ATOM      5  C   UNL     1      -0.978   4.441  25.009  0.00  0.00    +0.095 C 
ATOM      6  C   UNL     1      -1.887   4.431  25.396  0.00  0.00    +0.043 C 
ATOM      7  C   UNL     1      -2.604   4.585  25.750  0.00  0.00    +0.011 C 
ATOM      8  C   UNL     1      -2.282   4.040  25.448  0.00  0.00    +0.058 C 
ATOM      9  C   UNL     1      -1.402   4.066  25.078  0.00  0.00    +0.099 C 
ATOM     10  C   UNL     1      -2.408   3.155  25.235  0.00  0.00    +0.041 A 
ATOM     11  C   UNL     1      -2.972   2.556  25.296  0.00  0.00    +0.014 A 
ATOM     12  C   UNL     1      -2.808   1.804  25.000  0.00  0.00    +0.024 A 
ATOM     13  C   UNL     1      -2.081   1.651  24.642  0.00  0.00    +0.147 A 
ATOM     28  C   UNL     1      -1.517   2.250  24.580  0.00  0.00    +0.277 A 
ATOM     29  O   UNL     1      -0.897   1.864  24.198  0.00  0.00    -0.266 OA
ATOM     30  N   UNL     1      -1.681   3.002  24.877  0.00  0.00    -0.298 N 
ATOM     31  C   UNL     1      -2.010   3.506  25.170  0.00  0.00    +0.110 C 
ENDROOT
BRANCH  13  14
ATOM     14  N   UNL     1      -1.918   0.899  24.345  0.00  0.00    -0.092 NA
BRANCH  14  15
ATOM     15  S   UNL     1      -2.375   0.254  24.581  0.00  0.00    +0.093 S 
ATOM     16  O   UNL     1      -2.928   0.434  23.996  0.00  0.00    -0.148 OA
ATOM     17  O   UNL     1      -1.821   0.075  25.165  0.00  0.00    -0.148 OA
BRANCH  15  18
ATOM     18  C   UNL     1      -2.832  -0.391  24.817  0.00  0.00    +0.127 A 
ATOM     19  C   UNL     1      -3.265  -0.817  24.258  0.00  0.00    +0.024 A 
ATOM     20  C   UNL     1      -3.721  -1.462  24.494  0.00  0.00    +0.073 A 
ATOM     21  C   UNL     1      -3.746  -1.681  25.289  0.00  0.00    +0.004 A 
ATOM     22  C   UNL     1      -3.314  -1.255  25.848  0.00  0.00    +0.001 A 
ATOM     23  C   UNL     1      -2.857  -0.610  25.612  0.00  0.00    +0.020 A 
BRANCH  20  24
ATOM     24  C   UNL     1      -4.154  -1.888  23.935  0.00  0.00    +0.419 C 
ATOM     25  F   UNL     1      -4.585  -2.314  23.377  0.00  0.00    -0.166 F 
ATOM     26  F   UNL     1      -3.514  -2.400  23.832  0.00  0.00    -0.166 F 
ATOM     27  F   UNL     1      -4.792  -1.375  24.039  0.00  0.00    -0.166 F 
ENDBRANCH  20  24
ENDBRANCH  15  18
ENDBRANCH  14  15
ENDBRANCH  13  14
TORSDOF 4
ENDMDL
MODEL 6
REMARK VINA RESULT:     -14.2      2.736      5.101
REMARK  Name = 
REMARK  4 active torsions:
REMARK  status: ('A' for Active; 'I' for Inactive)
REMARK    1  A    between atoms: C_13  and  N_14
REMARK    2  A    between atoms: N_14  and  S_15
REMARK    3  A    between atoms: S_15  and  C_18
REMARK    4  A    between atoms: C_20  and  C_24
REMARK                            x       y       z     vdW  Elec       q    Type
REMARK                         _______ _______ _______ _____ _____    ______ ____
ROOT
ATOM      1  C   UNL     1      -1.444  -0.646  24.914  0.00  0.00    +0.095 C 
ATOM      2  C   UNL     1      -1.577  -1.461  24.920  0.00  0.00    +0.226 C 
ATOM      3  O   UNL     1      -0.967  -1.977  25.124  0.00  0.00    -0.275 OA
ATOM      4  N   UNL     1      -2.321  -1.758  24.722  0.00  0.00    -0.279 N 
ATOM      5  C   UNL     1      -2.922  -2.320  24.580  0.00  0.00    +0.095 C 
ATOM      6  C   UNL     1      -3.662  -1.713  24.334  0.00  0.00    +0.043 C 
ATOM      7  C   UNL     1      -4.360  -1.356  24.114  0.00  0.00    +0.011 C 
ATOM      8  C   UNL     1      -3.710  -1.159  24.290  0.00  0.00    +0.058 C 
ATOM      9  C   UNL     1      -3.005  -1.759  24.526  0.00  0.00    +0.099 C 
ATOM     10  C   UNL     1      -3.188  -0.410  24.400  0.00  0.00    +0.041 A 
ATOM     11  C   UNL     1      -3.228   0.411  24.344  0.00  0.00    +0.014 A 
ATOM     12  C   UNL     1      -2.562   0.869  24.510  0.00  0.00    +0.024 A 
ATOM     13  C   UNL     1      -1.856   0.504  24.733  0.00  0.00    +0.147 A 
ATOM     28  C   UNL     1      -1.816  -0.318  24.789  0.00  0.00    +0.277 A 
ATOM     29  O   UNL     1      -1.034  -0.437  25.021  0.00  0.00    -0.266 OA
ATOM     30  N   UNL     1      -2.483  -0.775  24.622  0.00  0.00    -0.298 N 
ATOM     31  C   UNL     1      -3.109  -0.937  24.451  0.00  0.00    +0.110 C 
ENDROOT
BRANCH  13  14
ATOM     14  N   UNL     1      -1.191   0.961  24.900  0.00  0.00    -0.092 NA
BRANCH  14  15
ATOM     15  S   UNL     1      -1.262   1.778  24.986  0.00  0.00    +0.093 S 
ATOM     16  O   UNL     1      -1.239   1.867  24.166  0.00  0.00    -0.148 OA
ATOM     17  O   UNL     1      -1.286   1.690  25.805  0.00  0.00    -0.148 OA
BRANCH  15  18
ATOM     18  C   UNL     1      -1.334   2.596  25.072  0.00  0.00    +0.127 A 
ATOM     19  C   UNL     1      -1.995   2.915  25.451  0.00  0.00    +0.024 A 
ATOM     20  C   UNL     1      -2.066   3.732  25.537  0.00  0.00    +0.073 A 
ATOM     21  C   UNL     1      -1.477   4.230  25.245  0.00  0.00    +0.004 A 
ATOM     22  C   UNL     1      -0.816   3.912  24.867  0.00  0.00    +0.001 A 
ATOM     23  C   UNL     1      -0.745   3.095  24.780  0.00  0.00    +0.020 A 
BRANCH  20  24
ATOM     24  C   UNL     1      -2.726   4.050  25.915  0.00  0.00    +0.419 C 
ATOM     25  F   UNL     1      -3.387   4.369  26.293  0.00  0.00    -0.166 F 
ATOM     26  F   UNL     1      -3.116   4.104  25.189  0.00  0.00    -0.166 F 
ATOM     27  F   UNL     1      -2.337   3.996  26.641  0.00  0.00    -0.166 F 
ENDBRANCH  20  24
ENDBRANCH  15  18
ENDBRANCH  14  15
ENDBRANCH  13  14
TORSDOF 4
ENDMDL
