MODEL 1
REMARK VINA RESULT:      -9.5      0.000      0.000
REMARK  Name = 
REMARK  3 active torsions:
REMARK  status: ('A' for Active; 'I' for Inactive)
REMARK    1  A    between atoms: O_2  and  C_3
REMARK    2  A    between atoms: C_10  and  C_12
REMARK    3  A    between atoms: C_15  and  C_18
REMARK                            x       y       z     vdW  Elec       q    Type
REMARK                         _______ _______ _______ _____ _____    ______ ____
ROOT
ATOM      3  C   UNL     1      -2.397   1.464  24.046  0.00  0.00    +0.165 C 
ATOM      4  C   UNL     1      -2.301   2.280  23.969  0.00  0.00    +0.173 C 
ATOM      5  O   UNL     1      -2.845   2.878  24.130  0.00  0.00    -0.349 OA
ATOM      6  C   UNL     1      -3.619   2.809  24.408  0.00  0.00    +0.164 C 
ATOM      7  C   UNL     1      -4.039   2.125  24.593  0.00  0.00    +0.126 C 
ATOM      8  N   UNL     1      -3.791   1.339  24.547  0.00  0.00    -0.271 N 
ATOM      9  C   UNL     1      -3.059   1.045  24.303  0.00  0.00    +0.126 C 
ATOM     10  C   UNL     1      -4.347   0.774  24.773  0.00  0.00    +0.249 C 
ATOM     11  O   UNL     1      -5.096   1.010  25.026  0.00  0.00    -0.270 OA
ENDROOT
BRANCH  10  12
ATOM     12  C   UNL     1      -4.154  -0.028  24.747  0.00  0.00    +0.054 A 
ATOM     13  C   UNL     1      -3.824  -0.395  25.409  0.00  0.00    +0.005 A 
ATOM     14  C   UNL     1      -3.631  -1.197  25.382  0.00  0.00    +0.010 A 
ATOM     15  C   UNL     1      -3.768  -1.631  24.694  0.00  0.00    +0.068 A 
ATOM     16  C   UNL     1      -4.098  -1.265  24.033  0.00  0.00    +0.010 A 
ATOM     17  C   UNL     1      -4.290  -0.463  24.060  0.00  0.00    +0.005 A 
BRANCH  15  18
ATOM     18  C   UNL     1      -3.575  -2.433  24.668  0.00  0.00    +0.100 C 
ATOM     19  N   UNL     1      -3.382  -3.234  24.641  0.00  0.00    -0.191 NA
ENDBRANCH  15  18
ENDBRANCH  10  12
BRANCH   3   2
ATOM      1  C   UNL     1      -0.991   1.344  23.818  0.00  0.00    +0.174 C 
ATOM      2  O   UNL     1      -1.743   1.005  23.838  0.00  0.00    -0.349 OA
ENDBRANCH   3   2
TORSDOF 3
ENDMDL
MODEL 2
REMARK VINA RESULT:      -9.0      1.000      2.123
REMARK  Name = 
REMARK  3 active torsions:
REMARK  status: ('A' for Active; 'I' for Inactive)
REMARK    1  A    between atoms: O_2  and  C_3
REMARK    2  A    between atoms: C_10  and  C_12
REMARK    3  A    between atoms: C_15  and  C_18
REMARK                            x       y       z     vdW  Elec       q    Type
REMARK                         _______ _______ _______ _____ _____    ______ ____
ROOT
ATOM      3  C   UNL     1      -4.827   1.955  25.087  0.00  0.00    +0.165 C 
ATOM      4  C   UNL     1      -4.978   2.762  25.005  0.00  0.00    +0.173 C 
ATOM      5  O   UNL     1      -4.584   3.313  24.534  0.00  0.00    -0.349 OA
ATOM      6  C   UNL     1      -3.944   3.193  24.027  0.00  0.00    +0.164 C 
ATOM      7  C   UNL     1      -3.539   2.493  23.868  0.00  0.00    +0.126 C 
ATOM      8  N   UNL     1      -3.673   1.739  24.175  0.00  0.00    -0.271 N 
ATOM      9  C   UNL     1      -4.247   1.499  24.717  0.00  0.00    +0.126 C 
ATOM     10  C   UNL     1      -3.168   1.147  23.903  0.00  0.00    +0.249 C 
ATOM     11  O   UNL     1      -2.575   1.327  23.359  0.00  0.00    -0.270 OA
ENDROOT
BRANCH  10  12
ATOM     12  C   UNL     1      -3.256   0.373  24.175  0.00  0.00    +0.054 A 
ATOM     13  C   UNL     1      -2.836   0.119  24.840  0.00  0.00    +0.005 A 
ATOM     14  C   UNL     1      -2.924  -0.655  25.112  0.00  0.00    +0.010 A 
ATOM     15  C   UNL     1      -3.431  -1.175  24.720  0.00  0.00    +0.068 A 
ATOM     16  C   UNL     1      -3.850  -0.921  24.057  0.00  0.00    +0.010 A 
ATOM     17  C   UNL     1      -3.763  -0.147  23.785  0.00  0.00    +0.005 A 
BRANCH  15  18
ATOM     18  C   UNL     1      -3.519  -1.948  24.993  0.00  0.00    +0.100 C 
ATOM     19  N   UNL     1      -3.606  -2.722  25.265  0.00  0.00    -0.191 NA
ENDBRANCH  15  18
ENDBRANCH  10  12
BRANCH   3   2
ATOM      1  C   UNL     1      -5.975   1.931  25.939  0.00  0.00    +0.174 C 
ATOM      2  O   UNL     1      -5.323   1.549  25.607  0.00  0.00    -0.349 OA
ENDBRANCH   3   2
TORSDOF 3
ENDMDL
MODEL 3
REMARK VINA RESULT:      -8.7      1.796      3.319
REMARK  Name = 
REMARK  3 active torsions:
REMARK  status: ('A' for Active; 'I' for Inactive)
REMARK    1  A    between atoms: O_2  and  C_3
REMARK    2  A    between atoms: C_10  and  C_12
REMARK    3  A    between atoms: C_15  and  C_18
REMARK                            x       y       z     vdW  Elec       q    Type
REMARK                         _______ _______ _______ _____ _____    ______ ____
ROOT
ATOM      3  C   UNL     1      -1.496  -0.490  25.289  0.00  0.00    +0.165 C 
ATOM      4  C   UNL     1      -0.872  -1.029  25.315  0.00  0.00    +0.173 C 
ATOM      5  O   UNL     1      -0.866  -1.818  25.074  0.00  0.00    -0.349 OA
ATOM      6  C   UNL     1      -1.480  -2.262  24.747  0.00  0.00    +0.164 C 
ATOM      7  C   UNL     1      -2.253  -2.026  24.582  0.00  0.00    +0.126 C 
ATOM      8  N   UNL     1      -2.603  -1.289  24.701  0.00  0.00    -0.271 N 
ATOM      9  C   UNL     1      -2.266  -0.604  25.016  0.00  0.00    +0.126 C 
ATOM     10  C   UNL     1      -3.394  -1.227  24.476  0.00  0.00    +0.249 C 
ATOM     11  O   UNL     1      -3.784  -1.880  24.155  0.00  0.00    -0.270 OA
ENDROOT
BRANCH  10  12
ATOM     12  C   UNL     1      -3.796  -0.513  24.572  0.00  0.00    +0.054 A 
ATOM     13  C   UNL     1      -3.793   0.047  23.966  0.00  0.00    +0.005 A 
ATOM     14  C   UNL     1      -4.195   0.761  24.062  0.00  0.00    +0.010 A 
ATOM     15  C   UNL     1      -4.599   0.915  24.765  0.00  0.00    +0.068 A 
ATOM     16  C   UNL     1      -4.602   0.356  25.370  0.00  0.00    +0.010 A 
ATOM     17  C   UNL     1      -4.200  -0.358  25.274  0.00  0.00    +0.005 A 
BRANCH  15  18
ATOM     18  C   UNL     1      -5.001   1.629  24.861  0.00  0.00    +0.100 C 
ATOM     19  N   UNL     1      -5.403   2.343  24.957  0.00  0.00    -0.191 NA
ENDBRANCH  15  18
ENDBRANCH  10  12
BRANCH   3   2
ATOM      1  C   UNL     1      -0.614   0.633  25.376  0.00  0.00    +0.174 C 
ATOM      2  O   UNL     1      -1.327   0.266  25.574  0.00  0.00    -0.349 OA
ENDBRANCH   3   2
TORSDOF 3
ENDMDL
MODEL 4
REMARK VINA RESULT:      -8.7      2.116      4.254
REMARK  Name = 
REMARK  3 active torsions:
REMARK  status: ('A' for Active; 'I' for Inactive)
REMARK    1  A    between atoms: O_2  and  C_3
REMARK    2  A    between atoms: C_10  and  C_12
REMARK    3  A    between atoms: C_15  and  C_18
REMARK                            x       y       z     vdW  Elec       q    Type
REMARK                         _______ _______ _______ _____ _____    ______ ____
ROOT
ATOM      3  C   UNL     1      -4.050   1.372  24.840  0.00  0.00    +0.165 C 
ATOM      4  C   UNL     1      -4.668   0.825  24.817  0.00  0.00    +0.173 C 
ATOM      5  O   UNL     1      -5.470   0.950  24.964  0.00  0.00    -0.349 OA
ATOM      6  C   UNL     1      -5.853   1.652  25.169  0.00  0.00    +0.164 C 
ATOM      7  C   UNL     1      -5.528   2.401  25.279  0.00  0.00    +0.126 C 
ATOM      8  N   UNL     1      -4.739   2.636  25.210  0.00  0.00    -0.271 N 
ATOM      9  C   UNL     1      -4.081   2.178  25.014  0.00  0.00    +0.126 C 
ATOM     10  C   UNL     1      -4.589   3.434  25.356  0.00  0.00    +0.249 C 
ATOM     11  O   UNL     1      -5.209   3.941  25.556  0.00  0.00    -0.270 OA
ENDROOT
BRANCH  10  12
ATOM     12  C   UNL     1      -3.820   3.725  25.302  0.00  0.00    +0.054 A 
ATOM     13  C   UNL     1      -3.350   3.779  25.979  0.00  0.00    +0.005 A 
ATOM     14  C   UNL     1      -2.580   4.071  25.924  0.00  0.00    +0.010 A 
ATOM     15  C   UNL     1      -2.280   4.308  25.193  0.00  0.00    +0.068 A 
ATOM     16  C   UNL     1      -2.748   4.254  24.517  0.00  0.00    +0.010 A 
ATOM     17  C   UNL     1      -3.518   3.962  24.571  0.00  0.00    +0.005 A 
BRANCH  15  18
ATOM     18  C   UNL     1      -1.510   4.599  25.139  0.00  0.00    +0.100 C 
ATOM     19  N   UNL     1      -0.740   4.890  25.085  0.00  0.00    -0.191 NA
ENDBRANCH  15  18
ENDBRANCH  10  12
BRANCH   3   2
ATOM      1  C   UNL     1      -3.224   0.326  24.323  0.00  0.00    +0.174 C 
ATOM      2  O   UNL     1      -3.301   1.074  24.664  0.00  0.00    -0.349 OA
ENDBRANCH   3   2
TORSDOF 3
ENDMDL
