MODEL 1
REMARK VINA RESULT:     -11.0      0.000      0.000
REMARK  Name = 
REMARK  5 active torsions:
REMARK  status: ('A' for Active; 'I' for Inactive)
REMARK    1  A    between atoms: C_3  and  C_4
REMARK    2  A    between atoms: C_4  and  N_5
REMARK    3  A    between atoms: C_6  and  C_8
REMARK    4  A    between atoms: C_13  and  N_14
REMARK    5  A    between atoms: N_14  and  C_15
REMARK                            x       y       z     vdW  Elec       q    Type
REMARK                         _______ _______ _______ _____ _____    ______ ____
ROOT
ATOM      1  O   UNL     1      -4.769   1.703  25.375  0.00  0.00    -0.219 OA
ATOM      2  C   UNL     1      -4.082   1.480  24.974  0.00  0.00    +0.199 C 
ATOM      3  C   UNL     1      -3.423   1.957  24.840  0.00  0.00    +0.169 C 
ATOM     11  O   UNL     1      -2.868   1.512  24.421  0.00  0.00    -0.350 OA
ATOM     12  C   UNL     1      -3.187   0.761  24.297  0.00  0.00    +0.162 C 
ATOM     13  C   UNL     1      -3.936   0.741  24.638  0.00  0.00    +0.135 C 
ENDROOT
BRANCH   3   4
ATOM      4  C   UNL     1      -3.333   2.740  25.082  0.00  0.00    +0.147 C 
BRANCH   4   5
ATOM      5  N   UNL     1      -2.612   3.127  24.971  0.00  0.00    -0.203 NA
ATOM      6  C   UNL     1      -2.487   3.871  25.303  0.00  0.00    +0.241 C 
ATOM      7  O   UNL     1      -3.083   4.230  25.747  0.00  0.00    -0.273 OA
BRANCH   6   8
ATOM      8  C   UNL     1      -1.767   4.257  25.191  0.00  0.00    +0.078 C 
ATOM      9  C   UNL     1      -1.339   4.954  25.087  0.00  0.00    +0.010 C 
ATOM     10  C   UNL     1      -0.948   4.228  25.101  0.00  0.00    +0.010 C 
ENDBRANCH   6   8
ENDBRANCH   4   5
ENDBRANCH   3   4
BRANCH  13  14
ATOM     14  N   UNL     1      -4.451   0.096  24.644  0.00  0.00    -0.216 NA
BRANCH  14  15
ATOM     15  C   UNL     1      -4.150  -0.671  24.672  0.00  0.00    +0.073 C 
ATOM     16  C   UNL     1      -4.165  -1.145  23.995  0.00  0.00    +0.023 C 
ATOM     17  C   UNL     1      -3.864  -1.912  24.023  0.00  0.00    +0.068 C 
ATOM     18  C   UNL     1      -3.548  -2.207  24.727  0.00  0.00    +0.264 C 
ATOM     19  F   UNL     1      -3.441  -2.861  24.236  0.00  0.00    -0.204 F 
ATOM     20  F   UNL     1      -3.196  -2.729  25.259  0.00  0.00    -0.204 F 
ATOM     21  C   UNL     1      -3.534  -1.733  25.402  0.00  0.00    +0.068 C 
ATOM     22  C   UNL     1      -3.835  -0.966  25.374  0.00  0.00    +0.023 C 
ENDBRANCH  14  15
ENDBRANCH  13  14
TORSDOF 5
ENDMDL
MODEL 2
REMARK VINA RESULT:     -10.2      2.918      5.532
REMARK  Name = 
REMARK  5 active torsions:
REMARK  status: ('A' for Active; 'I' for Inactive)
REMARK    1  A    between atoms: C_3  and  C_4
REMARK    2  A    between atoms: C_4  and  N_5
REMARK    3  A    between atoms: C_6  and  C_8
REMARK    4  A    between atoms: C_13  and  N_14
REMARK    5  A    between atoms: N_14  and  C_15
REMARK                            x       y       z     vdW  Elec       q    Type
REMARK                         _______ _______ _______ _____ _____    ______ ____
ROOT
ATOM      1  O   UNL     1      -0.714   0.705  25.789  0.00  0.00    -0.219 OA
ATOM      2  C   UNL     1      -1.334   1.055  25.371  0.00  0.00    +0.199 C 
ATOM      3  C   UNL     1      -1.858   0.666  24.866  0.00  0.00    +0.169 C 
ATOM     11  O   UNL     1      -2.387   1.225  24.568  0.00  0.00    -0.350 OA
ATOM     12  C   UNL     1      -2.189   1.959  24.890  0.00  0.00    +0.162 C 
ATOM     13  C   UNL     1      -1.539   1.854  25.386  0.00  0.00    +0.135 C 
ENDROOT
BRANCH   3   4
ATOM      4  C   UNL     1      -1.854  -0.139  24.690  0.00  0.00    +0.147 C 
BRANCH   4   5
ATOM      5  N   UNL     1      -2.567  -0.541  24.580  0.00  0.00    -0.203 NA
ATOM      6  C   UNL     1      -2.566  -1.357  24.458  0.00  0.00    +0.241 C 
ATOM      7  O   UNL     1      -1.853  -1.772  24.445  0.00  0.00    -0.273 OA
BRANCH   6   8
ATOM      8  C   UNL     1      -3.278  -1.758  24.349  0.00  0.00    +0.078 C 
ATOM      9  C   UNL     1      -4.028  -1.802  24.008  0.00  0.00    +0.010 C 
ATOM     10  C   UNL     1      -3.762  -2.409  24.500  0.00  0.00    +0.010 C 
ENDBRANCH   6   8
ENDBRANCH   4   5
ENDBRANCH   3   4
BRANCH  13  14
ATOM     14  N   UNL     1      -1.159   2.443  25.821  0.00  0.00    -0.216 NA
BRANCH  14  15
ATOM     15  C   UNL     1      -1.215   3.231  25.585  0.00  0.00    +0.073 C 
ATOM     16  C   UNL     1      -1.848   3.695  25.843  0.00  0.00    +0.023 C 
ATOM     17  C   UNL     1      -1.905   4.483  25.608  0.00  0.00    +0.068 C 
ATOM     18  C   UNL     1      -1.329   4.809  25.113  0.00  0.00    +0.264 C 
ATOM     19  F   UNL     1      -1.821   5.464  25.212  0.00  0.00    -0.204 F 
ATOM     20  F   UNL     1      -0.925   5.362  24.654  0.00  0.00    -0.204 F 
ATOM     21  C   UNL     1      -0.697   4.345  24.856  0.00  0.00    +0.068 C 
ATOM     22  C   UNL     1      -0.641   3.557  25.092  0.00  0.00    +0.023 C 
ENDBRANCH  14  15
ENDBRANCH  13  14
TORSDOF 5
ENDMDL
MODEL 3
REMARK VINA RESULT:      -9.9      2.603      5.183
REMARK  Name = 
REMARK  5 active torsions:
REMARK  status: ('A' for Active; 'I' for Inactive)
REMARK    1  A    between atoms: C_3  and  C_4
REMARK    2  A    between atoms: C_4  and  N_5
REMARK    3  A    between atoms: C_6  and  C_8
REMARK    4  A    between atoms: C_13  and  N_14
REMARK    5  A    between atoms: N_14  and  C_15
REMARK                            x       y       z     vdW  Elec       q    Type
REMARK                         _______ _______ _______ _____ _____    ______ ____
ROOT
ATOM      1  O   UNL     1      -5.145   1.503  24.638  0.00  0.00    -0.219 OA
ATOM      2  C   UNL     1      -4.323   1.429  24.672  0.00  0.00    +0.199 C 
ATOM      3  C   UNL     1      -3.896   0.729  24.583  0.00  0.00    +0.169 C 
ATOM     11  O   UNL     1      -3.094   0.910  24.657  0.00  0.00    -0.350 OA
ATOM     12  C   UNL     1      -3.027   1.722  24.792  0.00  0.00    +0.162 C 
ATOM     13  C   UNL     1      -3.787   2.042  24.801  0.00  0.00    +0.135 C 
ENDROOT
BRANCH   3   4
ATOM      4  C   UNL     1      -4.213  -0.019  24.445  0.00  0.00    +0.147 C 
BRANCH   4   5
ATOM      5  N   UNL     1      -3.799  -0.693  24.682  0.00  0.00    -0.203 NA
ATOM      6  C   UNL     1      -4.029  -1.436  24.407  0.00  0.00    +0.241 C 
ATOM      7  O   UNL     1      -4.673  -1.506  23.895  0.00  0.00    -0.273 OA
BRANCH   6   8
ATOM      8  C   UNL     1      -3.615  -2.109  24.643  0.00  0.00    +0.078 C 
ATOM      9  C   UNL     1      -3.225  -2.811  24.454  0.00  0.00    +0.010 C 
ATOM     10  C   UNL     1      -3.290  -2.574  25.241  0.00  0.00    +0.010 C 
ENDBRANCH   6   8
ENDBRANCH   4   5
ENDBRANCH   3   4
BRANCH  13  14
ATOM     14  N   UNL     1      -3.977   2.836  24.918  0.00  0.00    -0.216 NA
BRANCH  14  15
ATOM     15  C   UNL     1      -3.381   3.385  25.072  0.00  0.00    +0.073 C 
ATOM     16  C   UNL     1      -3.206   3.596  25.851  0.00  0.00    +0.023 C 
ATOM     17  C   UNL     1      -2.610   4.145  26.005  0.00  0.00    +0.068 C 
ATOM     18  C   UNL     1      -2.189   4.484  25.381  0.00  0.00    +0.264 C 
ATOM     19  F   UNL     1      -1.824   4.856  26.020  0.00  0.00    -0.204 F 
ATOM     20  F   UNL     1      -1.642   4.952  24.980  0.00  0.00    -0.204 F 
ATOM     21  C   UNL     1      -2.365   4.273  24.603  0.00  0.00    +0.068 C 
ATOM     22  C   UNL     1      -2.961   3.724  24.449  0.00  0.00    +0.023 C 
ENDBRANCH  14  15
ENDBRANCH  13  14
TORSDOF 5
ENDMDL
MODEL 4
REMARK VINA RESULT:      -9.9      1.516      1.927
REMARK  Name = 
REMARK  5 active torsions:
REMARK  status: ('A' for Active; 'I' for Inactive)
REMARK    1  A    between atoms: C_3  and  C_4
REMARK    2  A    between atoms: C_4  and  N_5
REMARK    3  A    between atoms: C_6  and  C_8
REMARK    4  A    between atoms: C_13  and  N_14
REMARK    5  A    between atoms: N_14  and  C_15
REMARK                            x       y       z     vdW  Elec       q    Type
REMARK                         _______ _______ _______ _____ _____    ______ ____
ROOT
ATOM      1  O   UNL     1      -0.634   0.516  25.678  0.00  0.00    -0.219 OA
ATOM      2  C   UNL     1      -1.374   0.636  25.332  0.00  0.00    +0.199 C 
ATOM      3  C   UNL     1      -1.621   1.319  24.942  0.00  0.00    +0.169 C 
ATOM     11  O   UNL     1      -2.396   1.199  24.684  0.00  0.00    -0.350 OA
ATOM     12  C   UNL     1      -2.626   0.441  24.916  0.00  0.00    +0.162 C 
ATOM     13  C   UNL     1      -1.995   0.094  25.316  0.00  0.00    +0.135 C 
ENDROOT
BRANCH   3   4
ATOM      4  C   UNL     1      -1.173   2.002  24.828  0.00  0.00    +0.147 C 
BRANCH   4   5
ATOM      5  N   UNL     1      -1.483   2.739  25.037  0.00  0.00    -0.203 NA
ATOM      6  C   UNL     1      -1.067   3.427  24.856  0.00  0.00    +0.241 C 
ATOM      7  O   UNL     1      -0.341   3.381  24.467  0.00  0.00    -0.273 OA
BRANCH   6   8
ATOM      8  C   UNL     1      -1.377   4.163  25.064  0.00  0.00    +0.078 C 
ATOM      9  C   UNL     1      -1.963   4.613  25.430  0.00  0.00    +0.010 C 
ATOM     10  C   UNL     1      -1.328   4.986  25.059  0.00  0.00    +0.010 C 
ENDBRANCH   6   8
ENDBRANCH   4   5
ENDBRANCH   3   4
BRANCH  13  14
ATOM     14  N   UNL     1      -1.985  -0.664  25.644  0.00  0.00    -0.216 NA
BRANCH  14  15
ATOM     15  C   UNL     1      -2.427  -1.268  25.298  0.00  0.00    +0.073 C 
ATOM     16  C   UNL     1      -3.211  -1.389  25.528  0.00  0.00    +0.023 C 
ATOM     17  C   UNL     1      -3.653  -1.994  25.182  0.00  0.00    +0.068 C 
ATOM     18  C   UNL     1      -3.312  -2.478  24.607  0.00  0.00    +0.264 C 
ATOM     19  F   UNL     1      -4.068  -2.806  24.641  0.00  0.00    -0.204 F 
ATOM     20  F   UNL     1      -3.234  -3.076  24.044  0.00  0.00    -0.204 F 
ATOM     21  C   UNL     1      -2.528  -2.356  24.378  0.00  0.00    +0.068 C 
ATOM     22  C   UNL     1      -2.086  -1.752  24.724  0.00  0.00    +0.023 C 
ENDBRANCH  14  15
ENDBRANCH  13  14
TORSDOF 5
ENDMDL
