MODEL 1
REMARK VINA RESULT:     -12.1      0.000      0.000
REMARK  Name = 
REMARK  6 active torsions:
REMARK  status: ('A' for Active; 'I' for Inactive)
REMARK    1  A    between atoms: O_2  and  C_3
REMARK    2  A    between atoms: C_8  and  N_9
REMARK    3  A    between atoms: N_12  and  C_15
REMARK    4  A    between atoms: C_21  and  N_22
REMARK    5  A    between atoms: N_25  and  C_26
REMARK    6  A    between atoms: C_28  and  C_32
REMARK                            x       y       z     vdW  Elec       q    Type
REMARK                         _______ _______ _______ _____ _____    ______ ____
ROOT
ATOM     15  C   UNL     1      -4.067   1.813  24.865  0.00  0.00    +0.147 C 
ATOM     16  C   UNL     1      -4.478   2.618  24.509  0.00  0.00    +0.253 C 
ATOM     17  O   UNL     1      -4.090   3.405  24.421  0.00  0.00    -0.327 OA
ATOM     18  C   UNL     1      -4.149   2.703  24.594  0.00  0.00    +0.176 C 
ATOM     19  C   UNL     1      -4.619   2.083  24.610  0.00  0.00    +0.170 C 
ATOM     20  O   UNL     1      -5.232   2.327  24.342  0.00  0.00    -0.327 OA
ATOM     21  C   UNL     1      -4.238   1.306  24.947  0.00  0.00    +0.158 C 
ATOM     34  C   UNL     1      -3.481   1.600  25.115  0.00  0.00    +0.194 C 
ATOM     35  O   UNL     1      -2.696   1.617  25.368  0.00  0.00    -0.220 OA
ENDROOT
BRANCH  15  12
ATOM      9  N   UNL     1      -2.435   3.674  24.891  0.00  0.00    -0.302 N 
ATOM     10  C   UNL     1      -2.807   3.442  25.589  0.00  0.00    +0.108 C 
ATOM     11  C   UNL     1      -3.351   2.822  25.580  0.00  0.00    +0.094 C 
ATOM     12  N   UNL     1      -3.523   2.433  24.873  0.00  0.00    -0.265 NA
ATOM     13  C   UNL     1      -3.150   2.666  24.174  0.00  0.00    +0.094 C 
ATOM     14  C   UNL     1      -2.606   3.286  24.183  0.00  0.00    +0.108 C 
BRANCH   9   8
ATOM      3  C   UNL     1      -1.092   4.144  24.759  0.00  0.00    +0.152 A 
ATOM      4  C   UNL     1      -0.547   4.764  24.768  0.00  0.00    +0.038 A 
ATOM      5  C   UNL     1      -0.802   5.534  24.919  0.00  0.00    +0.003 A 
ATOM      6  C   UNL     1      -1.601   5.684  25.060  0.00  0.00    +0.001 A 
ATOM      7  C   UNL     1      -2.145   5.065  25.051  0.00  0.00    +0.018 A 
ATOM      8  C   UNL     1      -1.891   4.294  24.900  0.00  0.00    +0.082 A 
BRANCH   3   2
ATOM      1  C   UNL     1      -0.038   3.222  24.475  0.00  0.00    +0.253 C 
ATOM      2  O   UNL     1      -0.837   3.373  24.608  0.00  0.00    -0.470 OA
ENDBRANCH   3   2
ENDBRANCH   9   8
ENDBRANCH  15  12
BRANCH  21  22
ATOM     22  N   UNL     1      -4.556   0.551  25.049  0.00  0.00    -0.183 NA
ATOM     23  C   UNL     1      -4.178  -0.105  24.720  0.00  0.00    +0.344 C 
ATOM     24  O   UNL     1      -3.482  -0.006  24.289  0.00  0.00    -0.249 OA
ATOM     25  N   UNL     1      -4.496  -0.858  24.822  0.00  0.00    -0.161 NA
BRANCH  25  26
ATOM     26  C   UNL     1      -4.119  -1.514  24.493  0.00  0.00    +0.076 A 
ATOM     27  C   UNL     1      -3.367  -1.731  24.754  0.00  0.00    +0.027 A 
ATOM     28  C   UNL     1      -2.989  -2.387  24.424  0.00  0.00    +0.070 A 
ATOM     29  C   UNL     1      -3.364  -2.824  23.834  0.00  0.00    +0.010 A 
ATOM     30  C   UNL     1      -4.116  -2.608  23.574  0.00  0.00    +0.002 A 
ATOM     31  C   UNL     1      -4.493  -1.952  23.903  0.00  0.00    +0.017 A 
BRANCH  28  32
ATOM     32  C   UNL     1      -2.237  -2.604  24.684  0.00  0.00    +0.100 C 
ATOM     33  N   UNL     1      -1.485  -2.820  24.945  0.00  0.00    -0.191 NA
ENDBRANCH  28  32
ENDBRANCH  25  26
ENDBRANCH  21  22
TORSDOF 6
ENDMDL
MODEL 2
REMARK VINA RESULT:     -11.1      1.804      2.881
REMARK  Name = 
REMARK  6 active torsions:
REMARK  status: ('A' for Active; 'I' for Inactive)
REMARK    1  A    between atoms: O_2  and  C_3
REMARK    2  A    between atoms: C_8  and  N_9
REMARK    3  A    between atoms: N_12  and  C_15
REMARK    4  A    between atoms: C_21  and  N_22
REMARK    5  A    between atoms: N_25  and  C_26
REMARK    6  A    between atoms: C_28  and  C_32
REMARK                            x       y       z     vdW  Elec       q    Type
REMARK                         _______ _______ _______ _____ _____    ______ ____
ROOT
ATOM     15  C   UNL     1      -0.539   0.765  24.513  0.00  0.00    +0.147 C 
ATOM     16  C   UNL     1       0.059   1.277  23.944  0.00  0.00    +0.253 C 
ATOM     17  O   UNL     1       0.094   2.157  23.884  0.00  0.00    -0.327 OA
ATOM     18  C   UNL     1      -0.137   1.510  24.118  0.00  0.00    +0.176 C 
ATOM     19  C   UNL     1      -0.050   0.739  24.062  0.00  0.00    +0.170 C 
ATOM     20  O   UNL     1       0.471   0.660  23.583  0.00  0.00    -0.327 OA
ATOM     21  C   UNL     1      -0.616   0.237  24.601  0.00  0.00    +0.158 C 
ATOM     34  C   UNL     1      -1.028   0.858  24.962  0.00  0.00    +0.194 C 
ATOM     35  O   UNL     1      -1.568   1.249  25.449  0.00  0.00    -0.220 OA
ENDROOT
BRANCH  15  12
ATOM      9  N   UNL     1      -0.953   3.186  24.820  0.00  0.00    -0.302 N 
ATOM     10  C   UNL     1      -1.293   2.787  24.183  0.00  0.00    +0.108 C 
ATOM     11  C   UNL     1      -1.155   1.980  24.081  0.00  0.00    +0.094 C 
ATOM     12  N   UNL     1      -0.677   1.572  24.615  0.00  0.00    -0.265 NA
ATOM     13  C   UNL     1      -0.337   1.972  25.252  0.00  0.00    +0.094 C 
ATOM     14  C   UNL     1      -0.475   2.779  25.354  0.00  0.00    +0.108 C 
BRANCH   9   8
ATOM      3  C   UNL     1      -1.786   4.249  25.286  0.00  0.00    +0.152 A 
ATOM      4  C   UNL     1      -1.926   5.056  25.388  0.00  0.00    +0.038 A 
ATOM      5  C   UNL     1      -1.371   5.607  25.125  0.00  0.00    +0.003 A 
ATOM      6  C   UNL     1      -0.676   5.350  24.760  0.00  0.00    +0.001 A 
ATOM      7  C   UNL     1      -0.537   4.545  24.659  0.00  0.00    +0.018 A 
ATOM      8  C   UNL     1      -1.092   3.993  24.921  0.00  0.00    +0.082 A 
BRANCH   3   2
ATOM      1  C   UNL     1      -3.039   3.954  25.908  0.00  0.00    +0.253 C 
ATOM      2  O   UNL     1      -2.342   3.698  25.550  0.00  0.00    -0.470 OA
ENDBRANCH   3   2
ENDBRANCH   9   8
ENDBRANCH  15  12
BRANCH  21  22
ATOM     22  N   UNL     1      -0.687  -0.581  24.693  0.00  0.00    -0.183 NA
ATOM     23  C   UNL     1      -1.432  -0.924  24.781  0.00  0.00    +0.344 C 
ATOM     24  O   UNL     1      -2.107  -0.449  24.777  0.00  0.00    -0.249 OA
ATOM     25  N   UNL     1      -1.503  -1.740  24.872  0.00  0.00    -0.161 NA
BRANCH  25  26
ATOM     26  C   UNL     1      -2.248  -2.082  24.960  0.00  0.00    +0.076 A 
ATOM     27  C   UNL     1      -2.743  -2.168  24.306  0.00  0.00    +0.027 A 
ATOM     28  C   UNL     1      -3.489  -2.511  24.394  0.00  0.00    +0.070 A 
ATOM     29  C   UNL     1      -3.739  -2.767  25.137  0.00  0.00    +0.010 A 
ATOM     30  C   UNL     1      -3.244  -2.682  25.792  0.00  0.00    +0.002 A 
ATOM     31  C   UNL     1      -2.499  -2.339  25.703  0.00  0.00    +0.017 A 
BRANCH  28  32
ATOM     32  C   UNL     1      -3.984  -2.597  23.740  0.00  0.00    +0.100 C 
ATOM     33  N   UNL     1      -4.479  -2.682  23.085  0.00  0.00    -0.191 NA
ENDBRANCH  28  32
ENDBRANCH  25  26
ENDBRANCH  21  22
TORSDOF 6
ENDMDL
MODEL 3
REMARK VINA RESULT:     -10.9      1.923      6.004
REMARK  Name = 
REMARK  6 active torsions:
REMARK  status: ('A' for Active; 'I' for Inactive)
REMARK    1  A    between atoms: O_2  and  C_3
REMARK    2  A    between atoms: C_8  and  N_9
REMARK    3  A    between atoms: N_12  and  C_15
REMARK    4  A    between atoms: C_21  and  N_22
REMARK    5  A    between atoms: N_25  and  C_26
REMARK    6  A    between atoms: C_28  and  C_32
REMARK                            x       y       z     vdW  Elec       q    Type
REMARK                         _______ _______ _______ _____ _____    ______ ____
ROOT
ATOM     15  C   UNL     1      -0.603   0.653  24.792  0.00  0.00    +0.147 C 
ATOM     16  C   UNL     1      -0.240   0.040  24.132  0.00  0.00    +0.253 C 
ATOM     17  O   UNL     1      -0.593  -0.731  23.889  0.00  0.00    -0.327 OA
ATOM     18  C   UNL     1      -0.536  -0.106  24.252  0.00  0.00    +0.176 C 
ATOM     19  C   UNL     1      -0.110   0.537  24.360  0.00  0.00    +0.170 C 
ATOM     20  O   UNL     1       0.438   0.456  23.913  0.00  0.00    -0.327 OA
ATOM     21  C   UNL     1      -0.447   1.133  24.989  0.00  0.00    +0.158 C 
ATOM     34  C   UNL     1      -1.127   0.713  25.208  0.00  0.00    +0.194 C 
ATOM     35  O   UNL     1      -1.830   0.529  25.597  0.00  0.00    -0.220 OA
ENDROOT
BRANCH  15  12
ATOM      9  N   UNL     1      -2.079  -1.322  24.579  0.00  0.00    -0.302 N 
ATOM     10  C   UNL     1      -1.582  -1.247  25.233  0.00  0.00    +0.108 C 
ATOM     11  C   UNL     1      -1.091  -0.589  25.304  0.00  0.00    +0.094 C 
ATOM     12  N   UNL     1      -1.095  -0.005  24.721  0.00  0.00    -0.265 NA
ATOM     13  C   UNL     1      -1.592  -0.081  24.066  0.00  0.00    +0.094 C 
ATOM     14  C   UNL     1      -2.084  -0.740  23.995  0.00  0.00    +0.108 C 
BRANCH   9   8
ATOM      3  C   UNL     1      -3.385  -1.881  24.422  0.00  0.00    +0.152 A 
ATOM      4  C   UNL     1      -3.877  -2.539  24.352  0.00  0.00    +0.038 A 
ATOM      5  C   UNL     1      -3.555  -3.298  24.369  0.00  0.00    +0.003 A 
ATOM      6  C   UNL     1      -2.740  -3.399  24.456  0.00  0.00    +0.001 A 
ATOM      7  C   UNL     1      -2.249  -2.741  24.526  0.00  0.00    +0.018 A 
ATOM      8  C   UNL     1      -2.571  -1.982  24.509  0.00  0.00    +0.082 A 
BRANCH   3   2
ATOM      1  C   UNL     1      -4.518  -1.020  24.294  0.00  0.00    +0.253 C 
ATOM      2  O   UNL     1      -3.708  -1.121  24.405  0.00  0.00    -0.470 OA
ENDBRANCH   3   2
ENDBRANCH   9   8
ENDBRANCH  15  12
BRANCH  21  22
ATOM     22  N   UNL     1      -0.156   1.861  25.249  0.00  0.00    -0.183 NA
ATOM     23  C   UNL     1      -0.604   2.545  25.144  0.00  0.00    +0.344 C 
ATOM     24  O   UNL     1      -1.342   2.504  24.778  0.00  0.00    -0.249 OA
ATOM     25  N   UNL     1      -0.313   3.272  25.405  0.00  0.00    -0.161 NA
BRANCH  25  26
ATOM     26  C   UNL     1      -0.761   3.957  25.299  0.00  0.00    +0.076 A 
ATOM     27  C   UNL     1      -1.508   4.019  25.643  0.00  0.00    +0.027 A 
ATOM     28  C   UNL     1      -1.955   4.704  25.538  0.00  0.00    +0.070 A 
ATOM     29  C   UNL     1      -1.655   5.327  25.088  0.00  0.00    +0.010 A 
ATOM     30  C   UNL     1      -0.907   5.266  24.744  0.00  0.00    +0.002 A 
ATOM     31  C   UNL     1      -0.461   4.580  24.850  0.00  0.00    +0.017 A 
BRANCH  28  32
ATOM     32  C   UNL     1      -2.702   4.766  25.881  0.00  0.00    +0.100 C 
ATOM     33  N   UNL     1      -3.450   4.829  26.225  0.00  0.00    -0.191 NA
ENDBRANCH  28  32
ENDBRANCH  25  26
ENDBRANCH  21  22
TORSDOF 6
ENDMDL
MODEL 4
REMARK VINA RESULT:     -10.8      1.064      5.456
REMARK  Name = 
REMARK  6 active torsions:
REMARK  status: ('A' for Active; 'I' for Inactive)
REMARK    1  A    between atoms: O_2  and  C_3
REMARK    2  A    between atoms: C_8  and  N_9
REMARK    3  A    between atoms: N_12  and  C_15
REMARK    4  A    between atoms: C_21  and  N_22
REMARK    5  A    between atoms: N_25  and  C_26
REMARK    6  A    between atoms: C_28  and  C_32
REMARK                            x       y       z     vdW  Elec       q    Type
REMARK                         _______ _______ _______ _____ _____    ______ ____
ROOT
ATOM     15  C   UNL     1      -4.175   1.233  24.505  0.00  0.00    +0.147 C 
ATOM     16  C   UNL     1      -4.863   0.706  24.943  0.00  0.00    +0.253 C 
ATOM     17  O   UNL     1      -4.859  -0.170  25.048  0.00  0.00    -0.327 OA
ATOM     18  C   UNL     1      -4.616   0.480  24.837  0.00  0.00    +0.176 C 
ATOM     19  C   UNL     1      -4.760   1.245  24.822  0.00  0.00    +0.170 C 
ATOM     20  O   UNL     1      -5.387   1.307  25.155  0.00  0.00    -0.327 OA
ATOM     21  C   UNL     1      -4.110   1.761  24.405  0.00  0.00    +0.158 C 
ATOM     34  C   UNL     1      -3.586   1.156  24.194  0.00  0.00    +0.194 C 
ATOM     35  O   UNL     1      -2.920   0.784  23.877  0.00  0.00    -0.220 OA
ENDROOT
BRANCH  15  12
ATOM      9  N   UNL     1      -3.554  -1.162  24.459  0.00  0.00    -0.302 N 
ATOM     10  C   UNL     1      -3.802  -0.788  23.768  0.00  0.00    +0.108 C 
ATOM     11  C   UNL     1      -4.009   0.011  23.783  0.00  0.00    +0.094 C 
ATOM     12  N   UNL     1      -3.968   0.435  24.490  0.00  0.00    -0.265 NA
ATOM     13  C   UNL     1      -3.720   0.059  25.182  0.00  0.00    +0.094 C 
ATOM     14  C   UNL     1      -3.513  -0.739  25.166  0.00  0.00    +0.108 C 
BRANCH   9   8
ATOM      3  C   UNL     1      -2.560  -2.185  24.551  0.00  0.00    +0.152 A 
ATOM      4  C   UNL     1      -2.352  -2.983  24.535  0.00  0.00    +0.038 A 
ATOM      5  C   UNL     1      -2.931  -3.557  24.412  0.00  0.00    +0.003 A 
ATOM      6  C   UNL     1      -3.718  -3.333  24.304  0.00  0.00    +0.001 A 
ATOM      7  C   UNL     1      -3.926  -2.536  24.320  0.00  0.00    +0.018 A 
ATOM      8  C   UNL     1      -3.347  -1.961  24.443  0.00  0.00    +0.082 A 
BRANCH   3   2
ATOM      1  C   UNL     1      -1.193  -1.834  24.772  0.00  0.00    +0.253 C 
ATOM      2  O   UNL     1      -1.980  -1.610  24.675  0.00  0.00    -0.470 OA
ENDBRANCH   3   2
ENDBRANCH   9   8
ENDBRANCH  15  12
BRANCH  21  22
ATOM     22  N   UNL     1      -4.068   2.577  24.283  0.00  0.00    -0.183 NA
ATOM     23  C   UNL     1      -3.503   3.026  24.683  0.00  0.00    +0.344 C 
ATOM     24  O   UNL     1      -2.980   2.660  25.206  0.00  0.00    -0.249 OA
ATOM     25  N   UNL     1      -3.461   3.840  24.560  0.00  0.00    -0.161 NA
BRANCH  25  26
ATOM     26  C   UNL     1      -2.897   4.289  24.960  0.00  0.00    +0.076 A 
ATOM     27  C   UNL     1      -2.151   4.404  24.629  0.00  0.00    +0.027 A 
ATOM     28  C   UNL     1      -1.585   4.854  25.030  0.00  0.00    +0.070 A 
ATOM     29  C   UNL     1      -1.768   5.187  25.761  0.00  0.00    +0.010 A 
ATOM     30  C   UNL     1      -2.515   5.073  26.093  0.00  0.00    +0.002 A 
ATOM     31  C   UNL     1      -3.079   4.624  25.692  0.00  0.00    +0.017 A 
BRANCH  28  32
ATOM     32  C   UNL     1      -0.839   4.968  24.699  0.00  0.00    +0.100 C 
ATOM     33  N   UNL     1      -0.092   5.083  24.367  0.00  0.00    -0.191 NA
ENDBRANCH  28  32
ENDBRANCH  25  26
ENDBRANCH  21  22
TORSDOF 6
ENDMDL
MODEL 5
REMARK VINA RESULT:     -10.7      3.471      5.141
REMARK  Name = 
REMARK  6 active torsions:
REMARK  status: ('A' for Active; 'I' for Inactive)
REMARK    1  A    between atoms: O_2  and  C_3
REMARK    2  A    between atoms: C_8  and  N_9
REMARK    3  A    between atoms: N_12  and  C_15
REMARK    4  A    between atoms: C_21  and  N_22
REMARK    5  A    between atoms: N_25  and  C_26
REMARK    6  A    between atoms: C_28  and  C_32
REMARK                            x       y       z     vdW  Elec       q    Type
REMARK                         _______ _______ _______ _____ _____    ______ ____
ROOT
ATOM     15  C   UNL     1      -0.156   0.395  23.800  0.00  0.00    +0.147 C 
ATOM     16  C   UNL     1      -0.695  -0.013  24.497  0.00  0.00    +0.253 C 
ATOM     17  O   UNL     1      -1.344   0.378  24.948  0.00  0.00    -0.327 OA
ATOM     18  C   UNL     1      -0.809   0.316  24.462  0.00  0.00    +0.176 C 
ATOM     19  C   UNL     1      -0.273  -0.156  24.154  0.00  0.00    +0.170 C 
ATOM     20  O   UNL     1      -0.362  -0.768  24.507  0.00  0.00    -0.327 OA
ATOM     21  C   UNL     1       0.250   0.222  23.486  0.00  0.00    +0.158 C 
ATOM     34  C   UNL     1      -0.086   0.979  23.477  0.00  0.00    +0.194 C 
ATOM     35  O   UNL     1      -0.219   1.764  23.260  0.00  0.00    -0.220 OA
ENDROOT
BRANCH  15  12
ATOM      9  N   UNL     1      -1.799   2.034  24.660  0.00  0.00    -0.302 N 
ATOM     10  C   UNL     1      -1.897   1.707  23.909  0.00  0.00    +0.108 C 
ATOM     11  C   UNL     1      -1.350   1.160  23.623  0.00  0.00    +0.094 C 
ATOM     12  N   UNL     1      -0.703   0.941  24.086  0.00  0.00    -0.265 NA
ATOM     13  C   UNL     1      -0.605   1.269  24.837  0.00  0.00    +0.094 C 
ATOM     14  C   UNL     1      -1.153   1.815  25.124  0.00  0.00    +0.108 C 
BRANCH   9   8
ATOM      3  C   UNL     1      -2.114   3.357  25.098  0.00  0.00    +0.152 A 
ATOM      4  C   UNL     1      -2.661   3.904  25.384  0.00  0.00    +0.038 A 
ATOM      5  C   UNL     1      -3.442   3.675  25.517  0.00  0.00    +0.003 A 
ATOM      6  C   UNL     1      -3.675   2.898  25.364  0.00  0.00    +0.001 A 
ATOM      7  C   UNL     1      -3.128   2.352  25.079  0.00  0.00    +0.018 A 
ATOM      8  C   UNL     1      -2.347   2.581  24.945  0.00  0.00    +0.082 A 
BRANCH   3   2
ATOM      1  C   UNL     1      -1.107   4.371  25.083  0.00  0.00    +0.253 C 
ATOM      2  O   UNL     1      -1.332   3.587  24.965  0.00  0.00    -0.470 OA
ENDBRANCH   3   2
ENDBRANCH   9   8
ENDBRANCH  15  12
BRANCH  21  22
ATOM     22  N   UNL     1       0.864  -0.100  23.037  0.00  0.00    -0.183 NA
ATOM     23  C   UNL     1       1.634   0.182  23.128  0.00  0.00    +0.344 C 
ATOM     24  O   UNL     1       1.790   0.786  23.668  0.00  0.00    -0.249 OA
ATOM     25  N   UNL     1       2.247  -0.139  22.680  0.00  0.00    -0.161 NA
BRANCH  25  26
ATOM     26  C   UNL     1       3.016   0.144  22.771  0.00  0.00    +0.076 A 
ATOM     27  C   UNL     1       3.568  -0.293  23.201  0.00  0.00    +0.027 A 
ATOM     28  C   UNL     1       4.338  -0.010  23.292  0.00  0.00    +0.070 A 
ATOM     29  C   UNL     1       4.556   0.709  22.952  0.00  0.00    +0.010 A 
ATOM     30  C   UNL     1       4.004   1.146  22.521  0.00  0.00    +0.002 A 
ATOM     31  C   UNL     1       3.235   0.863  22.431  0.00  0.00    +0.017 A 
BRANCH  28  32
ATOM     32  C   UNL     1       4.890  -0.446  23.723  0.00  0.00    +0.100 C 
ATOM     33  N   UNL     1       5.442  -0.883  24.154  0.00  0.00    -0.191 NA
ENDBRANCH  28  32
ENDBRANCH  25  26
ENDBRANCH  21  22
TORSDOF 6
ENDMDL
MODEL 6
REMARK VINA RESULT:      -9.4      2.488      4.417
REMARK  Name = 
REMARK  6 active torsions:
REMARK  status: ('A' for Active; 'I' for Inactive)
REMARK    1  A    between atoms: O_2  and  C_3
REMARK    2  A    between atoms: C_8  and  N_9
REMARK    3  A    between atoms: N_12  and  C_15
REMARK    4  A    between atoms: C_21  and  N_22
REMARK    5  A    between atoms: N_25  and  C_26
REMARK    6  A    between atoms: C_28  and  C_32
REMARK                            x       y       z     vdW  Elec       q    Type
REMARK                         _______ _______ _______ _____ _____    ______ ____
ROOT
ATOM     15  C   UNL     1      -1.013   2.756  24.887  0.00  0.00    +0.147 C 
ATOM     16  C   UNL     1      -1.318   3.657  24.690  0.00  0.00    +0.253 C 
ATOM     17  O   UNL     1      -2.152   3.943  24.725  0.00  0.00    -0.327 OA
ATOM     18  C   UNL     1      -1.602   3.472  24.776  0.00  0.00    +0.176 C 
ATOM     19  C   UNL     1      -0.835   3.370  24.702  0.00  0.00    +0.170 C 
ATOM     20  O   UNL     1      -0.596   4.011  24.502  0.00  0.00    -0.327 OA
ATOM     21  C   UNL     1      -0.529   2.513  24.887  0.00  0.00    +0.158 C 
ATOM     34  C   UNL     1      -1.255   2.160  25.075  0.00  0.00    +0.194 C 
ATOM     35  O   UNL     1      -1.798   1.580  25.299  0.00  0.00    -0.220 OA
ENDROOT
BRANCH  15  12
ATOM      9  N   UNL     1      -3.467   2.894  25.173  0.00  0.00    -0.302 N 
ATOM     10  C   UNL     1      -2.971   2.968  25.828  0.00  0.00    +0.108 C 
ATOM     11  C   UNL     1      -2.153   2.922  25.732  0.00  0.00    +0.094 C 
ATOM     12  N   UNL     1      -1.831   2.802  24.982  0.00  0.00    -0.265 NA
ATOM     13  C   UNL     1      -2.328   2.729  24.327  0.00  0.00    +0.094 C 
ATOM     14  C   UNL     1      -3.146   2.775  24.423  0.00  0.00    +0.108 C 
BRANCH   9   8
ATOM      3  C   UNL     1      -4.748   2.261  25.197  0.00  0.00    +0.152 A 
ATOM      4  C   UNL     1      -5.566   2.306  25.293  0.00  0.00    +0.038 A 
ATOM      5  C   UNL     1      -5.922   3.031  25.462  0.00  0.00    +0.003 A 
ATOM      6  C   UNL     1      -5.459   3.711  25.535  0.00  0.00    +0.001 A 
ATOM      7  C   UNL     1      -4.642   3.665  25.439  0.00  0.00    +0.018 A 
ATOM      8  C   UNL     1      -4.286   2.941  25.270  0.00  0.00    +0.082 A 
BRANCH   3   2
ATOM      1  C   UNL     1      -4.850   0.851  24.986  0.00  0.00    +0.253 C 
ATOM      2  O   UNL     1      -4.393   1.535  25.027  0.00  0.00    -0.470 OA
ENDBRANCH   3   2
ENDBRANCH   9   8
ENDBRANCH  15  12
BRANCH  21  22
ATOM     22  N   UNL     1       0.234   2.198  24.870  0.00  0.00    -0.183 NA
ATOM     23  C   UNL     1       0.458   1.691  24.258  0.00  0.00    +0.344 C 
ATOM     24  O   UNL     1      -0.081   1.499  23.664  0.00  0.00    -0.249 OA
ATOM     25  N   UNL     1       1.220   1.377  24.241  0.00  0.00    -0.161 NA
BRANCH  25  26
ATOM     26  C   UNL     1       1.443   0.871  23.630  0.00  0.00    +0.076 A 
ATOM     27  C   UNL     1       2.200   0.923  23.306  0.00  0.00    +0.027 A 
ATOM     28  C   UNL     1       2.424   0.416  22.694  0.00  0.00    +0.070 A 
ATOM     29  C   UNL     1       1.890  -0.143  22.407  0.00  0.00    +0.010 A 
ATOM     30  C   UNL     1       1.132  -0.196  22.730  0.00  0.00    +0.002 A 
ATOM     31  C   UNL     1       0.910   0.311  23.341  0.00  0.00    +0.017 A 
BRANCH  28  32
ATOM     32  C   UNL     1       3.181   0.468  22.371  0.00  0.00    +0.100 C 
ATOM     33  N   UNL     1       3.938   0.521  22.048  0.00  0.00    -0.191 NA
ENDBRANCH  28  32
ENDBRANCH  25  26
ENDBRANCH  21  22
TORSDOF 6
ENDMDL
