MODEL 1
REMARK VINA RESULT:     -11.5      0.000      0.000
REMARK  Name = 
REMARK  4 active torsions:
REMARK  status: ('A' for Active; 'I' for Inactive)
REMARK    1  A    between atoms: C_5  and  C_8
REMARK    2  A    between atoms: C_11  and  C_13
REMARK    3  A    between atoms: N_16  and  C_17
REMARK    4  A    between atoms: C_17  and  C_18
REMARK                            x       y       z     vdW  Elec       q    Type
REMARK                         _______ _______ _______ _____ _____    ______ ____
ROOT
ATOM      8  C   UNL     1      -4.302   0.273  24.816  0.00  0.00    +0.250 A 
ATOM      9  N   UNL     1      -5.052   0.566  24.997  0.00  0.00    -0.107 NA
ATOM     10  N   UNL     1      -5.004   1.390  25.027  0.00  0.00    -0.111 NA
ATOM     11  C   UNL     1      -4.225   1.606  24.864  0.00  0.00    +0.227 A 
ATOM     12  O   UNL     1      -3.791   0.916  24.733  0.00  0.00    -0.419 OA
ENDROOT
BRANCH   8   5
ATOM      1 CL   UNL     1      -3.491  -2.907  24.479  0.00  0.00    -0.082 Cl
ATOM      2  C   UNL     1      -3.694  -2.112  24.563  0.00  0.00    +0.058 A 
ATOM      3  C   UNL     1      -3.509  -1.712  25.259  0.00  0.00    +0.012 A 
ATOM      4  C   UNL     1      -3.712  -0.916  25.344  0.00  0.00    +0.006 A 
ATOM      5  C   UNL     1      -4.100  -0.522  24.731  0.00  0.00    +0.055 A 
ATOM      6  C   UNL     1      -4.284  -0.923  24.034  0.00  0.00    +0.006 A 
ATOM      7  C   UNL     1      -4.081  -1.719  23.950  0.00  0.00    +0.012 A 
ENDBRANCH   8   5
BRANCH  11  13
ATOM     13  C   UNL     1      -3.931   2.376  24.836  0.00  0.00    +0.096 C 
ATOM     14  C   UNL     1      -4.034   2.911  24.218  0.00  0.00    +0.028 C 
ATOM     15  C   UNL     1      -3.648   3.612  24.421  0.00  0.00    +0.073 C 
ATOM     16  N   UNL     1      -3.308   3.509  25.165  0.00  0.00    -0.266 NA
ATOM     23  C   UNL     1      -3.482   2.745  25.422  0.00  0.00    +0.082 C 
BRANCH  16  17
ATOM     17  C   UNL     1      -2.870   4.073  25.579  0.00  0.00    +0.139 C 
BRANCH  17  18
ATOM     18  C   UNL     1      -2.073   4.191  25.396  0.00  0.00    +0.155 A 
ATOM     19  N   UNL     1      -1.755   4.853  25.021  0.00  0.00    -0.226 NA
ATOM     20  C   UNL     1      -0.941   4.738  24.950  0.00  0.00    +0.121 A 
ATOM     21  C   UNL     1      -0.756   4.005  25.280  0.00  0.00    +0.121 A 
ATOM     22  N   UNL     1      -1.457   3.667  25.556  0.00  0.00    -0.226 NA
ENDBRANCH  17  18
ENDBRANCH  16  17
ENDBRANCH  11  13
TORSDOF 4
ENDMDL
MODEL 2
REMARK VINA RESULT:     -10.3      1.971      2.505
REMARK  Name = 
REMARK  4 active torsions:
REMARK  status: ('A' for Active; 'I' for Inactive)
REMARK    1  A    between atoms: C_5  and  C_8
REMARK    2  A    between atoms: C_11  and  C_13
REMARK    3  A    between atoms: N_16  and  C_17
REMARK    4  A    between atoms: C_17  and  C_18
REMARK                            x       y       z     vdW  Elec       q    Type
REMARK                         _______ _______ _______ _____ _____    ______ ____
ROOT
ATOM      8  C   UNL     1      -2.114  -0.832  24.981  0.00  0.00    +0.250 A 
ATOM      9  N   UNL     1      -1.580  -1.080  25.558  0.00  0.00    -0.107 NA
ATOM     10  N   UNL     1      -1.047  -0.465  25.694  0.00  0.00    -0.111 NA
ATOM     11  C   UNL     1      -1.252   0.164  25.201  0.00  0.00    +0.227 A 
ATOM     12  O   UNL     1      -1.912  -0.063  24.760  0.00  0.00    -0.419 OA
ENDROOT
BRANCH   8   5
ATOM      1 CL   UNL     1      -4.621  -2.602  23.768  0.00  0.00    -0.082 Cl
ATOM      2  C   UNL     1      -3.994  -2.160  24.071  0.00  0.00    +0.058 A 
ATOM      3  C   UNL     1      -3.306  -2.538  24.322  0.00  0.00    +0.012 A 
ATOM      4  C   UNL     1      -2.680  -2.095  24.625  0.00  0.00    +0.006 A 
ATOM      5  C   UNL     1      -2.741  -1.275  24.678  0.00  0.00    +0.055 A 
ATOM      6  C   UNL     1      -3.430  -0.896  24.426  0.00  0.00    +0.006 A 
ATOM      7  C   UNL     1      -4.057  -1.338  24.123  0.00  0.00    +0.012 A 
ENDBRANCH   8   5
BRANCH  11  13
ATOM     13  C   UNL     1      -0.866   0.891  25.156  0.00  0.00    +0.096 C 
ATOM     14  C   UNL     1      -0.320   1.115  24.581  0.00  0.00    +0.028 C 
ATOM     15  C   UNL     1      -0.075   1.885  24.748  0.00  0.00    +0.073 C 
ATOM     16  N   UNL     1      -0.470   2.137  25.427  0.00  0.00    -0.266 NA
ATOM     23  C   UNL     1      -0.959   1.523  25.679  0.00  0.00    +0.082 C 
BRANCH  16  17
ATOM     17  C   UNL     1      -0.389   2.873  25.789  0.00  0.00    +0.139 C 
BRANCH  17  18
ATOM     18  C   UNL     1      -0.902   3.489  25.588  0.00  0.00    +0.155 A 
ATOM     19  N   UNL     1      -1.660   3.607  25.892  0.00  0.00    -0.226 NA
ATOM     20  C   UNL     1      -1.972   4.285  25.541  0.00  0.00    +0.121 A 
ATOM     21  C   UNL     1      -1.407   4.586  25.020  0.00  0.00    +0.121 A 
ATOM     22  N   UNL     1      -0.745   4.094  25.050  0.00  0.00    -0.226 NA
ENDBRANCH  17  18
ENDBRANCH  16  17
ENDBRANCH  11  13
TORSDOF 4
ENDMDL
MODEL 3
REMARK VINA RESULT:     -10.1      2.553      5.537
REMARK  Name = 
REMARK  4 active torsions:
REMARK  status: ('A' for Active; 'I' for Inactive)
REMARK    1  A    between atoms: C_5  and  C_8
REMARK    2  A    between atoms: C_11  and  C_13
REMARK    3  A    between atoms: N_16  and  C_17
REMARK    4  A    between atoms: C_17  and  C_18
REMARK                            x       y       z     vdW  Elec       q    Type
REMARK                         _______ _______ _______ _____ _____    ______ ____
ROOT
ATOM      8  C   UNL     1      -1.377   2.320  24.821  0.00  0.00    +0.250 A 
ATOM      9  N   UNL     1      -0.908   1.924  24.271  0.00  0.00    -0.107 NA
ATOM     10  N   UNL     1      -1.037   1.114  24.362  0.00  0.00    -0.111 NA
ATOM     11  C   UNL     1      -1.586   1.010  24.969  0.00  0.00    +0.227 A 
ATOM     12  O   UNL     1      -1.797   1.756  25.253  0.00  0.00    -0.419 OA
ENDROOT
BRANCH   8   5
ATOM      1 CL   UNL     1      -1.549   5.591  25.226  0.00  0.00    -0.082 Cl
ATOM      2  C   UNL     1      -1.506   4.773  25.125  0.00  0.00    +0.058 A 
ATOM      3  C   UNL     1      -0.792   4.422  24.909  0.00  0.00    +0.012 A 
ATOM      4  C   UNL     1      -0.749   3.604  24.808  0.00  0.00    +0.006 A 
ATOM      5  C   UNL     1      -1.420   3.138  24.922  0.00  0.00    +0.055 A 
ATOM      6  C   UNL     1      -2.135   3.491  25.138  0.00  0.00    +0.006 A 
ATOM      7  C   UNL     1      -2.178   4.308  25.239  0.00  0.00    +0.012 A 
ENDBRANCH   8   5
BRANCH  11  13
ATOM     13  C   UNL     1      -1.874   0.288  25.244  0.00  0.00    +0.096 C 
ATOM     14  C   UNL     1      -1.429  -0.307  25.601  0.00  0.00    +0.028 C 
ATOM     15  C   UNL     1      -1.938  -0.929  25.788  0.00  0.00    +0.073 C 
ATOM     16  N   UNL     1      -2.698  -0.718  25.547  0.00  0.00    -0.266 NA
ATOM     23  C   UNL     1      -2.659   0.034  25.211  0.00  0.00    +0.082 C 
BRANCH  16  17
ATOM     17  C   UNL     1      -3.377  -1.180  25.628  0.00  0.00    +0.139 C 
BRANCH  17  18
ATOM     18  C   UNL     1      -3.597  -1.699  25.024  0.00  0.00    +0.155 A 
ATOM     19  N   UNL     1      -3.393  -2.496  24.972  0.00  0.00    -0.226 NA
ATOM     20  C   UNL     1      -3.729  -2.800  24.283  0.00  0.00    +0.121 A 
ATOM     21  C   UNL     1      -4.140  -2.191  23.909  0.00  0.00    +0.121 A 
ATOM     22  N   UNL     1      -4.058  -1.509  24.367  0.00  0.00    -0.226 NA
ENDBRANCH  17  18
ENDBRANCH  16  17
ENDBRANCH  11  13
TORSDOF 4
ENDMDL
MODEL 4
REMARK VINA RESULT:     -10.0      2.276      4.987
REMARK  Name = 
REMARK  4 active torsions:
REMARK  status: ('A' for Active; 'I' for Inactive)
REMARK    1  A    between atoms: C_5  and  C_8
REMARK    2  A    between atoms: C_11  and  C_13
REMARK    3  A    between atoms: N_16  and  C_17
REMARK    4  A    between atoms: C_17  and  C_18
REMARK                            x       y       z     vdW  Elec       q    Type
REMARK                         _______ _______ _______ _____ _____    ______ ____
ROOT
ATOM      8  C   UNL     1      -3.419   2.562  25.002  0.00  0.00    +0.250 A 
ATOM      9  N   UNL     1      -4.242   2.608  24.963  0.00  0.00    -0.107 NA
ATOM     10  N   UNL     1      -4.538   1.841  24.888  0.00  0.00    -0.111 NA
ATOM     11  C   UNL     1      -3.898   1.321  24.880  0.00  0.00    +0.227 A 
ATOM     12  O   UNL     1      -3.206   1.766  24.951  0.00  0.00    -0.419 OA
ENDROOT
BRANCH   8   5
ATOM      1 CL   UNL     1      -1.344   5.109  25.308  0.00  0.00    -0.082 Cl
ATOM      2  C   UNL     1      -1.862   4.472  25.232  0.00  0.00    +0.058 A 
ATOM      3  C   UNL     1      -2.521   4.416  25.724  0.00  0.00    +0.012 A 
ATOM      4  C   UNL     1      -3.040   3.779  25.648  0.00  0.00    +0.006 A 
ATOM      5  C   UNL     1      -2.900   3.198  25.078  0.00  0.00    +0.055 A 
ATOM      6  C   UNL     1      -2.240   3.255  24.585  0.00  0.00    +0.006 A 
ATOM      7  C   UNL     1      -1.722   3.892  24.662  0.00  0.00    +0.012 A 
ENDBRANCH   8   5
BRANCH  11  13
ATOM     13  C   UNL     1      -3.941   0.500  24.814  0.00  0.00    +0.096 C 
ATOM     14  C   UNL     1      -4.398   0.082  24.270  0.00  0.00    +0.028 C 
ATOM     15  C   UNL     1      -4.274  -0.724  24.400  0.00  0.00    +0.073 C 
ATOM     16  N   UNL     1      -3.741  -0.803  25.024  0.00  0.00    -0.266 NA
ATOM     23  C   UNL     1      -3.535  -0.047  25.280  0.00  0.00    +0.082 C 
BRANCH  16  17
ATOM     17  C   UNL     1      -3.464  -1.514  25.337  0.00  0.00    +0.139 C 
BRANCH  17  18
ATOM     18  C   UNL     1      -2.802  -1.880  25.004  0.00  0.00    +0.155 A 
ATOM     19  N   UNL     1      -2.015  -1.680  25.146  0.00  0.00    -0.226 NA
ATOM     20  C   UNL     1      -1.539  -2.187  24.701  0.00  0.00    +0.121 A 
ATOM     21  C   UNL     1      -2.033  -2.699  24.283  0.00  0.00    +0.121 A 
ATOM     22  N   UNL     1      -2.814  -2.509  24.471  0.00  0.00    -0.226 NA
ENDBRANCH  17  18
ENDBRANCH  16  17
ENDBRANCH  11  13
TORSDOF 4
ENDMDL
