MODEL 1
REMARK VINA RESULT:     -10.1      0.000      0.000
REMARK  Name = 
REMARK  5 active torsions:
REMARK  status: ('A' for Active; 'I' for Inactive)
REMARK    1  A    between atoms: N_2  and  C_4
REMARK    2  A    between atoms: C_8  and  O_9
REMARK    3  A    between atoms: O_9  and  C_10
REMARK    4  A    between atoms: N_14  and  C_15
REMARK    5  A    between atoms: C_19  and  N_23
REMARK                            x       y       z     vdW  Elec       q    Type
REMARK                         _______ _______ _______ _____ _____    ______ ____
ROOT
ATOM     15  C   UNL     1      -4.005   2.279  24.392  0.00  0.00    +0.170 C 
ATOM     16  C   UNL     1      -3.879   2.061  23.607  0.00  0.00    +0.169 C 
ATOM     17  O   UNL     1      -3.932   1.239  23.559  0.00  0.00    -0.350 OA
ATOM     18  C   UNL     1      -4.090   0.949  24.315  0.00  0.00    +0.167 C 
ATOM     19  C   UNL     1      -4.221   0.263  24.753  0.00  0.00    +0.156 C 
ATOM     20  C   UNL     1      -4.346   0.481  25.539  0.00  0.00    +0.166 C 
ATOM     21  O   UNL     1      -4.293   1.303  25.586  0.00  0.00    -0.350 OA
ATOM     22  C   UNL     1      -4.135   1.592  24.829  0.00  0.00    +0.169 C 
ENDROOT
BRANCH  19  23
ATOM     23  N   UNL     1      -4.225  -0.508  24.458  0.00  0.00    -0.185 NA
ATOM     24  C   UNL     1      -3.818  -1.105  24.856  0.00  0.00    +0.323 C 
ATOM     25  O   UNL     1      -3.406  -0.932  25.550  0.00  0.00    -0.251 OA
ATOM     26  N   UNL     1      -3.822  -1.875  24.560  0.00  0.00    -0.258 N 
ATOM     27  C   UNL     1      -3.415  -2.472  24.958  0.00  0.00    +0.127 C 
ATOM     28  C   UNL     1      -3.419  -3.243  24.663  0.00  0.00    +0.164 C 
ATOM     29  O   UNL     1      -3.830  -3.415  23.968  0.00  0.00    -0.350 OA
ATOM     30  C   UNL     1      -4.237  -2.818  23.571  0.00  0.00    +0.164 C 
ATOM     31  C   UNL     1      -4.233  -2.048  23.866  0.00  0.00    +0.127 C 
ENDBRANCH  19  23
BRANCH  15  14
ATOM     10  C   UNL     1      -3.373   3.582  24.643  0.00  0.00    +0.343 A 
ATOM     11  N   UNL     1      -3.608   4.284  25.008  0.00  0.00    -0.071 NA
ATOM     12  N   UNL     1      -4.381   4.185  25.278  0.00  0.00    -0.020 NA
ATOM     13  N   UNL     1      -4.624   3.422  25.080  0.00  0.00    -0.040 NA
ATOM     14  N   UNL     1      -4.001   3.049  24.688  0.00  0.00    -0.180 N 
BRANCH  10   9
ATOM      9  O   UNL     1      -2.639   3.439  24.295  0.00  0.00    -0.421 OA
BRANCH   9   8
ATOM      4  C   UNL     1      -0.741   3.349  25.368  0.00  0.00    +0.051 A 
ATOM      5  C   UNL     1      -0.566   4.152  25.445  0.00  0.00    +0.015 A 
ATOM      6  C   UNL     1      -1.082   4.717  25.138  0.00  0.00    +0.004 A 
ATOM      7  C   UNL     1      -1.773   4.479  24.754  0.00  0.00    +0.038 A 
ATOM      8  C   UNL     1      -1.948   3.677  24.679  0.00  0.00    +0.150 A 
ATOM     32  C   UNL     1      -1.431   3.112  24.986  0.00  0.00    +0.052 A 
BRANCH   4   2
ATOM      1  C   UNL     1       0.236   2.325  25.166  0.00  0.00    +0.112 C 
ATOM      2  N   UNL     1      -0.224   2.783  25.676  0.00  0.00    -0.304 N 
ATOM      3  C   UNL     1      -0.167   2.677  26.491  0.00  0.00    +0.112 C 
ENDBRANCH   4   2
ENDBRANCH   9   8
ENDBRANCH  10   9
ENDBRANCH  15  14
TORSDOF 5
ENDMDL
MODEL 2
REMARK VINA RESULT:     -10.1      1.557      2.910
REMARK  Name = 
REMARK  5 active torsions:
REMARK  status: ('A' for Active; 'I' for Inactive)
REMARK    1  A    between atoms: N_2  and  C_4
REMARK    2  A    between atoms: C_8  and  O_9
REMARK    3  A    between atoms: O_9  and  C_10
REMARK    4  A    between atoms: N_14  and  C_15
REMARK    5  A    between atoms: C_19  and  N_23
REMARK                            x       y       z     vdW  Elec       q    Type
REMARK                         _______ _______ _______ _____ _____    ______ ____
ROOT
ATOM     15  C   UNL     1      -0.361   1.299  25.058  0.00  0.00    +0.170 C 
ATOM     16  C   UNL     1      -0.308   1.100  24.259  0.00  0.00    +0.169 C 
ATOM     17  O   UNL     1      -0.692   0.378  24.152  0.00  0.00    -0.350 OA
ATOM     18  C   UNL     1      -0.981   0.131  24.883  0.00  0.00    +0.167 C 
ATOM     19  C   UNL     1      -1.397  -0.468  25.270  0.00  0.00    +0.156 C 
ATOM     20  C   UNL     1      -1.449  -0.268  26.068  0.00  0.00    +0.166 C 
ATOM     21  O   UNL     1      -1.066   0.454  26.176  0.00  0.00    -0.350 OA
ATOM     22  C   UNL     1      -0.776   0.701  25.443  0.00  0.00    +0.169 C 
ENDROOT
BRANCH  19  23
ATOM     23  N   UNL     1      -1.707  -1.147  24.918  0.00  0.00    -0.185 NA
ATOM     24  C   UNL     1      -2.503  -1.337  25.019  0.00  0.00    +0.323 C 
ATOM     25  O   UNL     1      -2.991  -0.849  25.471  0.00  0.00    -0.251 OA
ATOM     26  N   UNL     1      -2.813  -2.017  24.668  0.00  0.00    -0.258 N 
ATOM     27  C   UNL     1      -3.609  -2.207  24.769  0.00  0.00    +0.127 C 
ATOM     28  C   UNL     1      -3.920  -2.886  24.418  0.00  0.00    +0.164 C 
ATOM     29  O   UNL     1      -3.432  -3.375  23.965  0.00  0.00    -0.350 OA
ATOM     30  C   UNL     1      -2.636  -3.184  23.865  0.00  0.00    +0.164 C 
ATOM     31  C   UNL     1      -2.326  -2.505  24.216  0.00  0.00    +0.127 C 
ENDBRANCH  19  23
BRANCH  15  14
ATOM     10  C   UNL     1      -0.323   2.749  25.298  0.00  0.00    +0.343 A 
ATOM     11  N   UNL     1       0.145   3.254  25.754  0.00  0.00    -0.071 NA
ATOM     12  N   UNL     1       0.707   2.794  26.147  0.00  0.00    -0.020 NA
ATOM     13  N   UNL     1       0.586   2.006  25.934  0.00  0.00    -0.040 NA
ATOM     14  N   UNL     1      -0.051   1.979  25.409  0.00  0.00    -0.180 N 
BRANCH  10   9
ATOM      9  O   UNL     1      -0.953   2.976  24.816  0.00  0.00    -0.421 OA
BRANCH   9   8
ATOM      4  C   UNL     1      -2.620   4.180  25.547  0.00  0.00    +0.051 A 
ATOM      5  C   UNL     1      -2.329   4.942  25.423  0.00  0.00    +0.015 A 
ATOM      6  C   UNL     1      -1.579   5.049  25.096  0.00  0.00    +0.004 A 
ATOM      7  C   UNL     1      -1.121   4.393  24.894  0.00  0.00    +0.038 A 
ATOM      8  C   UNL     1      -1.411   3.632  25.018  0.00  0.00    +0.150 A 
ATOM     32  C   UNL     1      -2.161   3.525  25.344  0.00  0.00    +0.052 A 
BRANCH   4   2
ATOM      1  C   UNL     1      -4.000   3.840  25.393  0.00  0.00    +0.112 C 
ATOM      2  N   UNL     1      -3.371   4.073  25.874  0.00  0.00    -0.304 N 
ATOM      3  C   UNL     1      -3.491   4.198  26.679  0.00  0.00    +0.112 C 
ENDBRANCH   4   2
ENDBRANCH   9   8
ENDBRANCH  10   9
ENDBRANCH  15  14
TORSDOF 5
ENDMDL
MODEL 3
REMARK VINA RESULT:      -9.7      2.032      5.233
REMARK  Name = 
REMARK  5 active torsions:
REMARK  status: ('A' for Active; 'I' for Inactive)
REMARK    1  A    between atoms: N_2  and  C_4
REMARK    2  A    between atoms: C_8  and  O_9
REMARK    3  A    between atoms: O_9  and  C_10
REMARK    4  A    between atoms: N_14  and  C_15
REMARK    5  A    between atoms: C_19  and  N_23
REMARK                            x       y       z     vdW  Elec       q    Type
REMARK                         _______ _______ _______ _____ _____    ______ ____
ROOT
ATOM     15  C   UNL     1      -1.169   1.176  24.511  0.00  0.00    +0.170 C 
ATOM     16  C   UNL     1      -1.103   1.531  25.253  0.00  0.00    +0.169 C 
ATOM     17  O   UNL     1      -1.754   2.026  25.357  0.00  0.00    -0.350 OA
ATOM     18  C   UNL     1      -2.223   1.976  24.681  0.00  0.00    +0.167 C 
ATOM     19  C   UNL     1      -2.916   2.251  24.326  0.00  0.00    +0.156 C 
ATOM     20  C   UNL     1      -2.982   1.896  23.585  0.00  0.00    +0.166 C 
ATOM     21  O   UNL     1      -2.330   1.401  23.481  0.00  0.00    -0.350 OA
ATOM     22  C   UNL     1      -1.861   1.451  24.158  0.00  0.00    +0.169 C 
ENDROOT
BRANCH  19  23
ATOM     23  N   UNL     1      -3.449   2.787  24.656  0.00  0.00    -0.185 NA
ATOM     24  C   UNL     1      -4.225   2.555  24.813  0.00  0.00    +0.323 C 
ATOM     25  O   UNL     1      -4.468   1.786  24.639  0.00  0.00    -0.251 OA
ATOM     26  N   UNL     1      -4.758   3.091  25.143  0.00  0.00    -0.258 N 
ATOM     27  C   UNL     1      -5.534   2.859  25.299  0.00  0.00    +0.127 C 
ATOM     28  C   UNL     1      -6.068   3.394  25.629  0.00  0.00    +0.164 C 
ATOM     29  O   UNL     1      -5.824   4.164  25.802  0.00  0.00    -0.350 OA
ATOM     30  C   UNL     1      -5.049   4.396  25.646  0.00  0.00    +0.164 C 
ATOM     31  C   UNL     1      -4.515   3.860  25.316  0.00  0.00    +0.127 C 
ENDBRANCH  19  23
BRANCH  15  14
ATOM     10  C   UNL     1      -0.553  -0.154  24.392  0.00  0.00    +0.343 A 
ATOM     11  N   UNL     1       0.042  -0.481  23.923  0.00  0.00    -0.071 NA
ATOM     12  N   UNL     1       0.327   0.110  23.423  0.00  0.00    -0.020 NA
ATOM     13  N   UNL     1      -0.092   0.803  23.582  0.00  0.00    -0.040 NA
ATOM     14  N   UNL     1      -0.636   0.640  24.181  0.00  0.00    -0.180 N 
BRANCH  10   9
ATOM      9  O   UNL     1      -0.989  -0.550  24.969  0.00  0.00    -0.421 OA
BRANCH   9   8
ATOM      4  C   UNL     1      -2.380  -2.190  24.600  0.00  0.00    +0.051 A 
ATOM      5  C   UNL     1      -1.858  -2.824  24.519  0.00  0.00    +0.015 A 
ATOM      6  C   UNL     1      -1.045  -2.699  24.589  0.00  0.00    +0.004 A 
ATOM      7  C   UNL     1      -0.756  -1.941  24.739  0.00  0.00    +0.038 A 
ATOM      8  C   UNL     1      -1.278  -1.308  24.819  0.00  0.00    +0.150 A 
ATOM     32  C   UNL     1      -2.091  -1.433  24.749  0.00  0.00    +0.052 A 
BRANCH   4   2
ATOM      1  C   UNL     1      -3.636  -1.862  24.001  0.00  0.00    +0.112 C 
ATOM      2  N   UNL     1      -3.194  -2.315  24.530  0.00  0.00    -0.304 N 
ATOM      3  C   UNL     1      -3.563  -2.892  24.988  0.00  0.00    +0.112 C 
ENDBRANCH   4   2
ENDBRANCH   9   8
ENDBRANCH  10   9
ENDBRANCH  15  14
TORSDOF 5
ENDMDL
MODEL 4
REMARK VINA RESULT:      -9.5      2.100      6.097
REMARK  Name = 
REMARK  5 active torsions:
REMARK  status: ('A' for Active; 'I' for Inactive)
REMARK    1  A    between atoms: N_2  and  C_4
REMARK    2  A    between atoms: C_8  and  O_9
REMARK    3  A    between atoms: O_9  and  C_10
REMARK    4  A    between atoms: N_14  and  C_15
REMARK    5  A    between atoms: C_19  and  N_23
REMARK                            x       y       z     vdW  Elec       q    Type
REMARK                         _______ _______ _______ _____ _____    ______ ____
ROOT
ATOM     15  C   UNL     1      -0.576   0.436  24.472  0.00  0.00    +0.170 C 
ATOM     16  C   UNL     1      -0.646   0.789  23.729  0.00  0.00    +0.169 C 
ATOM     17  O   UNL     1      -0.656   1.606  23.836  0.00  0.00    -0.350 OA
ATOM     18  C   UNL     1      -0.593   1.760  24.643  0.00  0.00    +0.167 C 
ATOM     19  C   UNL     1      -0.560   2.359  25.209  0.00  0.00    +0.156 C 
ATOM     20  C   UNL     1      -0.490   2.007  25.952  0.00  0.00    +0.166 C 
ATOM     21  O   UNL     1      -0.479   1.189  25.845  0.00  0.00    -0.350 OA
ATOM     22  C   UNL     1      -0.543   1.036  25.036  0.00  0.00    +0.169 C 
ENDROOT
BRANCH  19  23
ATOM     23  N   UNL     1      -0.592   3.170  25.058  0.00  0.00    -0.185 NA
ATOM     24  C   UNL     1      -1.231   3.615  25.329  0.00  0.00    +0.323 C 
ATOM     25  O   UNL     1      -1.839   3.251  25.750  0.00  0.00    -0.251 OA
ATOM     26  N   UNL     1      -1.263   4.426  25.178  0.00  0.00    -0.258 N 
ATOM     27  C   UNL     1      -1.903   4.871  25.448  0.00  0.00    +0.127 C 
ATOM     28  C   UNL     1      -1.935   5.682  25.298  0.00  0.00    +0.164 C 
ATOM     29  O   UNL     1      -1.326   6.047  24.876  0.00  0.00    -0.350 OA
ATOM     30  C   UNL     1      -0.687   5.601  24.606  0.00  0.00    +0.164 C 
ATOM     31  C   UNL     1      -0.655   4.791  24.756  0.00  0.00    +0.127 C 
ENDBRANCH  19  23
BRANCH  15  14
ATOM     10  C   UNL     1      -1.192  -0.876  24.714  0.00  0.00    +0.343 A 
ATOM     11  N   UNL     1      -0.907  -1.638  24.856  0.00  0.00    -0.071 NA
ATOM     12  N   UNL     1      -0.082  -1.606  24.854  0.00  0.00    -0.020 NA
ATOM     13  N   UNL     1       0.142  -0.825  24.709  0.00  0.00    -0.040 NA
ATOM     14  N   UNL     1      -0.544  -0.374  24.623  0.00  0.00    -0.180 N 
BRANCH  10   9
ATOM      9  O   UNL     1      -1.986  -0.656  24.670  0.00  0.00    -0.421 OA
BRANCH   9   8
ATOM      4  C   UNL     1      -3.550  -2.176  24.615  0.00  0.00    +0.051 A 
ATOM      5  C   UNL     1      -3.747  -2.227  25.415  0.00  0.00    +0.015 A 
ATOM      6  C   UNL     1      -3.357  -1.754  25.967  0.00  0.00    +0.004 A 
ATOM      7  C   UNL     1      -2.770  -1.230  25.718  0.00  0.00    +0.038 A 
ATOM      8  C   UNL     1      -2.573  -1.180  24.919  0.00  0.00    +0.150 A 
ATOM     32  C   UNL     1      -2.964  -1.653  24.367  0.00  0.00    +0.052 A 
BRANCH   4   2
ATOM      1  C   UNL     1      -4.486  -2.312  23.543  0.00  0.00    +0.112 C 
ATOM      2  N   UNL     1      -3.942  -2.650  24.063  0.00  0.00    -0.304 N 
ATOM      3  C   UNL     1      -3.788  -3.459  24.032  0.00  0.00    +0.112 C 
ENDBRANCH   4   2
ENDBRANCH   9   8
ENDBRANCH  10   9
ENDBRANCH  15  14
TORSDOF 5
ENDMDL
MODEL 5
REMARK VINA RESULT:      -9.5      3.010      5.164
REMARK  Name = 
REMARK  5 active torsions:
REMARK  status: ('A' for Active; 'I' for Inactive)
REMARK    1  A    between atoms: N_2  and  C_4
REMARK    2  A    between atoms: C_8  and  O_9
REMARK    3  A    between atoms: O_9  and  C_10
REMARK    4  A    between atoms: N_14  and  C_15
REMARK    5  A    between atoms: C_19  and  N_23
REMARK                            x       y       z     vdW  Elec       q    Type
REMARK                         _______ _______ _______ _____ _____    ______ ____
ROOT
ATOM     15  C   UNL     1      -1.397   0.127  25.100  0.00  0.00    +0.170 C 
ATOM     16  C   UNL     1      -1.010   0.789  25.404  0.00  0.00    +0.169 C 
ATOM     17  O   UNL     1      -0.291   0.868  25.008  0.00  0.00    -0.350 OA
ATOM     18  C   UNL     1      -0.233   0.256  24.459  0.00  0.00    +0.167 C 
ATOM     19  C   UNL     1       0.246  -0.075  23.874  0.00  0.00    +0.156 C 
ATOM     20  C   UNL     1      -0.141  -0.737  23.570  0.00  0.00    +0.166 C 
ATOM     21  O   UNL     1      -0.860  -0.816  23.967  0.00  0.00    -0.350 OA
ATOM     22  C   UNL     1      -0.917  -0.203  24.516  0.00  0.00    +0.169 C 
ENDROOT
BRANCH  19  23
ATOM     23  N   UNL     1       0.984   0.207  23.636  0.00  0.00    -0.185 NA
ATOM     24  C   UNL     1       1.334  -0.082  22.947  0.00  0.00    +0.323 C 
ATOM     25  O   UNL     1       0.946  -0.654  22.497  0.00  0.00    -0.251 OA
ATOM     26  N   UNL     1       2.072   0.200  22.709  0.00  0.00    -0.258 N 
ATOM     27  C   UNL     1       2.421  -0.089  22.020  0.00  0.00    +0.127 C 
ATOM     28  C   UNL     1       3.159   0.193  21.781  0.00  0.00    +0.164 C 
ATOM     29  O   UNL     1       3.546   0.766  22.232  0.00  0.00    -0.350 OA
ATOM     30  C   UNL     1       3.196   1.054  22.920  0.00  0.00    +0.164 C 
ATOM     31  C   UNL     1       2.459   0.773  23.160  0.00  0.00    +0.127 C 
ENDBRANCH  19  23
BRANCH  15  14
ATOM     10  C   UNL     1      -2.865   0.181  25.156  0.00  0.00    +0.343 A 
ATOM     11  N   UNL     1      -3.453  -0.280  25.506  0.00  0.00    -0.071 NA
ATOM     12  N   UNL     1      -3.086  -0.902  25.905  0.00  0.00    -0.020 NA
ATOM     13  N   UNL     1      -2.271  -0.825  25.802  0.00  0.00    -0.040 NA
ATOM     14  N   UNL     1      -2.135  -0.156  25.339  0.00  0.00    -0.180 N 
BRANCH  10   9
ATOM      9  O   UNL     1      -2.986   0.860  24.703  0.00  0.00    -0.421 OA
BRANCH   9   8
ATOM      4  C   UNL     1      -4.510   2.376  25.078  0.00  0.00    +0.051 A 
ATOM      5  C   UNL     1      -5.178   2.009  24.759  0.00  0.00    +0.015 A 
ATOM      6  C   UNL     1      -5.114   1.259  24.422  0.00  0.00    +0.004 A 
ATOM      7  C   UNL     1      -4.383   0.876  24.403  0.00  0.00    +0.038 A 
ATOM      8  C   UNL     1      -3.717   1.243  24.721  0.00  0.00    +0.150 A 
ATOM     32  C   UNL     1      -3.780   1.993  25.059  0.00  0.00    +0.052 A 
BRANCH   4   2
ATOM      1  C   UNL     1      -5.222   3.310  25.893  0.00  0.00    +0.112 C 
ATOM      2  N   UNL     1      -4.574   3.126  25.416  0.00  0.00    -0.304 N 
ATOM      3  C   UNL     1      -3.990   3.692  25.277  0.00  0.00    +0.112 C 
ENDBRANCH   4   2
ENDBRANCH   9   8
ENDBRANCH  10   9
ENDBRANCH  15  14
TORSDOF 5
ENDMDL
MODEL 6
REMARK VINA RESULT:      -9.5      2.224      4.485
REMARK  Name = 
REMARK  5 active torsions:
REMARK  status: ('A' for Active; 'I' for Inactive)
REMARK    1  A    between atoms: N_2  and  C_4
REMARK    2  A    between atoms: C_8  and  O_9
REMARK    3  A    between atoms: O_9  and  C_10
REMARK    4  A    between atoms: N_14  and  C_15
REMARK    5  A    between atoms: C_19  and  N_23
REMARK                            x       y       z     vdW  Elec       q    Type
REMARK                         _______ _______ _______ _____ _____    ______ ____
ROOT
ATOM     15  C   UNL     1      -1.543   3.208  24.917  0.00  0.00    +0.170 C 
ATOM     16  C   UNL     1      -1.263   3.570  24.231  0.00  0.00    +0.169 C 
ATOM     17  O   UNL     1      -0.607   3.144  23.968  0.00  0.00    -0.350 OA
ATOM     18  C   UNL     1      -0.482   2.519  24.490  0.00  0.00    +0.167 C 
ATOM     19  C   UNL     1      -0.000   1.869  24.651  0.00  0.00    +0.156 C 
ATOM     20  C   UNL     1      -0.280   1.507  25.337  0.00  0.00    +0.166 C 
ATOM     21  O   UNL     1      -0.935   1.933  25.600  0.00  0.00    -0.350 OA
ATOM     22  C   UNL     1      -1.060   2.559  25.077  0.00  0.00    +0.169 C 
ENDROOT
BRANCH  19  23
ATOM     23  N   UNL     1       0.649   1.625  24.204  0.00  0.00    -0.185 NA
ATOM     24  C   UNL     1       0.628   0.902  23.807  0.00  0.00    +0.323 C 
ATOM     25  O   UNL     1      -0.042   0.423  23.857  0.00  0.00    -0.251 OA
ATOM     26  N   UNL     1       1.277   0.658  23.360  0.00  0.00    -0.258 N 
ATOM     27  C   UNL     1       1.256  -0.065  22.963  0.00  0.00    +0.127 C 
ATOM     28  C   UNL     1       1.904  -0.310  22.515  0.00  0.00    +0.164 C 
ATOM     29  O   UNL     1       2.575   0.170  22.466  0.00  0.00    -0.350 OA
ATOM     30  C   UNL     1       2.595   0.892  22.862  0.00  0.00    +0.164 C 
ATOM     31  C   UNL     1       1.947   1.137  23.310  0.00  0.00    +0.127 C 
ENDBRANCH  19  23
BRANCH  15  14
ATOM     10  C   UNL     1      -2.984   3.298  25.193  0.00  0.00    +0.343 A 
ATOM     11  N   UNL     1      -3.444   3.644  25.784  0.00  0.00    -0.071 NA
ATOM     12  N   UNL     1      -2.936   4.012  26.321  0.00  0.00    -0.020 NA
ATOM     13  N   UNL     1      -2.162   3.893  26.061  0.00  0.00    -0.040 NA
ATOM     14  N   UNL     1      -2.192   3.452  25.364  0.00  0.00    -0.180 N 
BRANCH  10   9
ATOM      9  O   UNL     1      -3.266   2.873  24.545  0.00  0.00    -0.421 OA
BRANCH   9   8
ATOM      4  C   UNL     1      -4.471   1.067  24.766  0.00  0.00    +0.051 A 
ATOM      5  C   UNL     1      -5.230   1.388  24.802  0.00  0.00    +0.015 A 
ATOM      6  C   UNL     1      -5.334   2.205  24.753  0.00  0.00    +0.004 A 
ATOM      7  C   UNL     1      -4.680   2.699  24.668  0.00  0.00    +0.038 A 
ATOM      8  C   UNL     1      -3.921   2.378  24.631  0.00  0.00    +0.150 A 
ATOM     32  C   UNL     1      -3.817   1.561  24.680  0.00  0.00    +0.052 A 
BRANCH   4   2
ATOM      1  C   UNL     1      -4.351  -0.207  24.127  0.00  0.00    +0.112 C 
ATOM      2  N   UNL     1      -4.366   0.249  24.815  0.00  0.00    -0.304 N 
ATOM      3  C   UNL     1      -4.276  -0.111  25.551  0.00  0.00    +0.112 C 
ENDBRANCH   4   2
ENDBRANCH   9   8
ENDBRANCH  10   9
ENDBRANCH  15  14
TORSDOF 5
ENDMDL
MODEL 7
REMARK VINA RESULT:      -9.2      2.998      4.924
REMARK  Name = 
REMARK  5 active torsions:
REMARK  status: ('A' for Active; 'I' for Inactive)
REMARK    1  A    between atoms: N_2  and  C_4
REMARK    2  A    between atoms: C_8  and  O_9
REMARK    3  A    between atoms: O_9  and  C_10
REMARK    4  A    between atoms: N_14  and  C_15
REMARK    5  A    between atoms: C_19  and  N_23
REMARK                            x       y       z     vdW  Elec       q    Type
REMARK                         _______ _______ _______ _____ _____    ______ ____
ROOT
ATOM     15  C   UNL     1      -1.064   0.283  24.863  0.00  0.00    +0.170 C 
ATOM     16  C   UNL     1      -0.820   0.954  25.275  0.00  0.00    +0.169 C 
ATOM     17  O   UNL     1      -1.456   1.478  25.308  0.00  0.00    -0.350 OA
ATOM     18  C   UNL     1      -2.093   1.131  24.918  0.00  0.00    +0.167 C 
ATOM     19  C   UNL     1      -2.881   1.239  24.696  0.00  0.00    +0.156 C 
ATOM     20  C   UNL     1      -3.126   0.568  24.285  0.00  0.00    +0.166 C 
ATOM     21  O   UNL     1      -2.489   0.044  24.252  0.00  0.00    -0.350 OA
ATOM     22  C   UNL     1      -1.851   0.392  24.643  0.00  0.00    +0.169 C 
ENDROOT
BRANCH  19  23
ATOM     23  N   UNL     1      -3.343   1.904  24.858  0.00  0.00    -0.185 NA
ATOM     24  C   UNL     1      -4.133   1.814  25.075  0.00  0.00    +0.323 C 
ATOM     25  O   UNL     1      -4.463   1.059  25.130  0.00  0.00    -0.251 OA
ATOM     26  N   UNL     1      -4.595   2.478  25.237  0.00  0.00    -0.258 N 
ATOM     27  C   UNL     1      -5.386   2.388  25.454  0.00  0.00    +0.127 C 
ATOM     28  C   UNL     1      -5.848   3.052  25.616  0.00  0.00    +0.164 C 
ATOM     29  O   UNL     1      -5.518   3.807  25.561  0.00  0.00    -0.350 OA
ATOM     30  C   UNL     1      -4.728   3.896  25.345  0.00  0.00    +0.164 C 
ATOM     31  C   UNL     1      -4.265   3.232  25.183  0.00  0.00    +0.127 C 
ENDBRANCH  19  23
BRANCH  15  14
ATOM     10  C   UNL     1       0.015  -0.421  24.157  0.00  0.00    +0.343 A 
ATOM     11  N   UNL     1       0.322  -1.187  24.174  0.00  0.00    -0.071 NA
ATOM     12  N   UNL     1      -0.107  -1.621  24.730  0.00  0.00    -0.020 NA
ATOM     13  N   UNL     1      -0.678  -1.123  25.056  0.00  0.00    -0.040 NA
ATOM     14  N   UNL     1      -0.603  -0.382  24.701  0.00  0.00    -0.180 N 
BRANCH  10   9
ATOM      9  O   UNL     1       0.281   0.196  23.678  0.00  0.00    -0.421 OA
BRANCH   9   8
ATOM      4  C   UNL     1       2.215   0.095  22.673  0.00  0.00    +0.051 A 
ATOM      5  C   UNL     1       1.997  -0.231  21.947  0.00  0.00    +0.015 A 
ATOM      6  C   UNL     1       1.207  -0.414  21.798  0.00  0.00    +0.004 A 
ATOM      7  C   UNL     1       0.635  -0.271  22.375  0.00  0.00    +0.038 A 
ATOM      8  C   UNL     1       0.853   0.054  23.101  0.00  0.00    +0.150 A 
ATOM     32  C   UNL     1       1.643   0.237  23.250  0.00  0.00    +0.052 A 
BRANCH   4   2
ATOM      1  C   UNL     1       3.528  -0.315  23.061  0.00  0.00    +0.112 C 
ATOM      2  N   UNL     1       3.006   0.278  22.823  0.00  0.00    -0.304 N 
ATOM      3  C   UNL     1       3.274   1.053  22.733  0.00  0.00    +0.112 C 
ENDBRANCH   4   2
ENDBRANCH   9   8
ENDBRANCH  10   9
ENDBRANCH  15  14
TORSDOF 5
ENDMDL
MODEL 8
REMARK VINA RESULT:      -9.1      2.070      4.902
REMARK  Name = 
REMARK  5 active torsions:
REMARK  status: ('A' for Active; 'I' for Inactive)
REMARK    1  A    between atoms: N_2  and  C_4
REMARK    2  A    between atoms: C_8  and  O_9
REMARK    3  A    between atoms: O_9  and  C_10
REMARK    4  A    between atoms: N_14  and  C_15
REMARK    5  A    between atoms: C_19  and  N_23
REMARK                            x       y       z     vdW  Elec       q    Type
REMARK                         _______ _______ _______ _____ _____    ______ ____
ROOT
ATOM     15  C   UNL     1      -3.632  -1.074  24.988  0.00  0.00    +0.170 C 
ATOM     16  C   UNL     1      -3.901  -0.980  25.762  0.00  0.00    +0.169 C 
ATOM     17  O   UNL     1      -4.275  -0.247  25.814  0.00  0.00    -0.350 OA
ATOM     18  C   UNL     1      -4.237   0.113  25.074  0.00  0.00    +0.167 C 
ATOM     19  C   UNL     1      -4.444   0.788  24.647  0.00  0.00    +0.156 C 
ATOM     20  C   UNL     1      -4.175   0.695  23.873  0.00  0.00    +0.166 C 
ATOM     21  O   UNL     1      -3.801  -0.039  23.821  0.00  0.00    -0.350 OA
ATOM     22  C   UNL     1      -3.839  -0.398  24.563  0.00  0.00    +0.169 C 
ENDROOT
BRANCH  19  23
ATOM     23  N   UNL     1      -4.849   1.443  24.944  0.00  0.00    -0.185 NA
ATOM     24  C   UNL     1      -4.530   2.199  24.859  0.00  0.00    +0.323 C 
ATOM     25  O   UNL     1      -3.806   2.301  24.478  0.00  0.00    -0.251 OA
ATOM     26  N   UNL     1      -4.936   2.854  25.156  0.00  0.00    -0.258 N 
ATOM     27  C   UNL     1      -4.617   3.610  25.071  0.00  0.00    +0.127 C 
ATOM     28  C   UNL     1      -5.022   4.265  25.367  0.00  0.00    +0.164 C 
ATOM     29  O   UNL     1      -5.747   4.163  25.748  0.00  0.00    -0.350 OA
ATOM     30  C   UNL     1      -6.065   3.407  25.833  0.00  0.00    +0.164 C 
ATOM     31  C   UNL     1      -5.661   2.752  25.537  0.00  0.00    +0.127 C 
ENDBRANCH  19  23
BRANCH  15  14
ATOM     10  C   UNL     1      -2.425  -1.891  24.799  0.00  0.00    +0.343 A 
ATOM     11  N   UNL     1      -2.255  -2.599  24.409  0.00  0.00    -0.071 NA
ATOM     12  N   UNL     1      -2.951  -2.873  24.062  0.00  0.00    -0.020 NA
ATOM     13  N   UNL     1      -3.552  -2.335  24.236  0.00  0.00    -0.040 NA
ATOM     14  N   UNL     1      -3.227  -1.728  24.692  0.00  0.00    -0.180 N 
BRANCH  10   9
ATOM      9  O   UNL     1      -1.888  -1.428  25.221  0.00  0.00    -0.421 OA
BRANCH   9   8
ATOM      4  C   UNL     1      -0.094  -0.689  24.225  0.00  0.00    +0.051 A 
ATOM      5  C   UNL     1       0.460  -1.254  24.458  0.00  0.00    +0.015 A 
ATOM      6  C   UNL     1       0.230  -1.878  24.947  0.00  0.00    +0.004 A 
ATOM      7  C   UNL     1      -0.553  -1.936  25.201  0.00  0.00    +0.038 A 
ATOM      8  C   UNL     1      -1.105  -1.371  24.967  0.00  0.00    +0.150 A 
ATOM     32  C   UNL     1      -0.876  -0.747  24.478  0.00  0.00    +0.052 A 
BRANCH   4   2
ATOM      1  C   UNL     1      -0.132   0.701  23.890  0.00  0.00    +0.112 C 
ATOM      2  N   UNL     1       0.136  -0.064  23.735  0.00  0.00    -0.304 N 
ATOM      3  C   UNL     1       0.634  -0.205  23.093  0.00  0.00    +0.112 C 
ENDBRANCH   4   2
ENDBRANCH   9   8
ENDBRANCH  10   9
ENDBRANCH  15  14
TORSDOF 5
ENDMDL
MODEL 9
REMARK VINA RESULT:      -8.8      1.997      3.423
REMARK  Name = 
REMARK  5 active torsions:
REMARK  status: ('A' for Active; 'I' for Inactive)
REMARK    1  A    between atoms: N_2  and  C_4
REMARK    2  A    between atoms: C_8  and  O_9
REMARK    3  A    between atoms: O_9  and  C_10
REMARK    4  A    between atoms: N_14  and  C_15
REMARK    5  A    between atoms: C_19  and  N_23
REMARK                            x       y       z     vdW  Elec       q    Type
REMARK                         _______ _______ _______ _____ _____    ______ ____
ROOT
ATOM     15  C   UNL     1      -0.942   2.829  25.435  0.00  0.00    +0.170 C 
ATOM     16  C   UNL     1      -0.674   2.496  26.140  0.00  0.00    +0.169 C 
ATOM     17  O   UNL     1      -0.581   1.685  26.018  0.00  0.00    -0.350 OA
ATOM     18  C   UNL     1      -0.791   1.518  25.239  0.00  0.00    +0.167 C 
ATOM     19  C   UNL     1      -0.864   0.914  24.682  0.00  0.00    +0.156 C 
ATOM     20  C   UNL     1      -1.132   1.248  23.977  0.00  0.00    +0.166 C 
ATOM     21  O   UNL     1      -1.225   2.058  24.098  0.00  0.00    -0.350 OA
ATOM     22  C   UNL     1      -1.015   2.225  24.879  0.00  0.00    +0.169 C 
ENDROOT
BRANCH  19  23
ATOM     23  N   UNL     1      -0.697   0.116  24.807  0.00  0.00    -0.185 NA
ATOM     24  C   UNL     1      -1.264  -0.457  24.631  0.00  0.00    +0.323 C 
ATOM     25  O   UNL     1      -1.998  -0.232  24.329  0.00  0.00    -0.251 OA
ATOM     26  N   UNL     1      -1.097  -1.255  24.757  0.00  0.00    -0.258 N 
ATOM     27  C   UNL     1      -1.664  -1.828  24.581  0.00  0.00    +0.127 C 
ATOM     28  C   UNL     1      -1.498  -2.626  24.707  0.00  0.00    +0.164 C 
ATOM     29  O   UNL     1      -0.763  -2.851  25.009  0.00  0.00    -0.350 OA
ATOM     30  C   UNL     1      -0.197  -2.278  25.185  0.00  0.00    +0.164 C 
ATOM     31  C   UNL     1      -0.363  -1.480  25.059  0.00  0.00    +0.127 C 
ENDBRANCH  19  23
BRANCH  15  14
ATOM     10  C   UNL     1      -1.768   4.036  25.592  0.00  0.00    +0.343 A 
ATOM     11  N   UNL     1      -1.713   4.818  25.336  0.00  0.00    -0.071 NA
ATOM     12  N   UNL     1      -1.019   4.894  24.895  0.00  0.00    -0.020 NA
ATOM     13  N   UNL     1      -0.646   4.158  24.878  0.00  0.00    -0.040 NA
ATOM     14  N   UNL     1      -1.109   3.628  25.309  0.00  0.00    -0.180 N 
BRANCH  10   9
ATOM      9  O   UNL     1      -2.376   3.717  26.050  0.00  0.00    -0.421 OA
BRANCH   9   8
ATOM      4  C   UNL     1      -4.435   3.428  25.388  0.00  0.00    +0.051 A 
ATOM      5  C   UNL     1      -4.736   4.191  25.475  0.00  0.00    +0.015 A 
ATOM      6  C   UNL     1      -4.250   4.797  25.753  0.00  0.00    +0.004 A 
ATOM      7  C   UNL     1      -3.463   4.638  25.945  0.00  0.00    +0.038 A 
ATOM      8  C   UNL     1      -3.163   3.876  25.858  0.00  0.00    +0.150 A 
ATOM     32  C   UNL     1      -3.649   3.270  25.580  0.00  0.00    +0.052 A 
BRANCH   4   2
ATOM      1  C   UNL     1      -5.564   2.568  25.561  0.00  0.00    +0.112 C 
ATOM      2  N   UNL     1      -4.921   2.821  25.110  0.00  0.00    -0.304 N 
ATOM      3  C   UNL     1      -4.764   2.469  24.381  0.00  0.00    +0.112 C 
ENDBRANCH   4   2
ENDBRANCH   9   8
ENDBRANCH  10   9
ENDBRANCH  15  14
TORSDOF 5
ENDMDL
MODEL 10
REMARK VINA RESULT:      -7.2     16.054     18.897
REMARK  Name = 
REMARK  5 active torsions:
REMARK  status: ('A' for Active; 'I' for Inactive)
REMARK    1  A    between atoms: N_2  and  C_4
REMARK    2  A    between atoms: C_8  and  O_9
REMARK    3  A    between atoms: O_9  and  C_10
REMARK    4  A    between atoms: N_14  and  C_15
REMARK    5  A    between atoms: C_19  and  N_23
REMARK                            x       y       z     vdW  Elec       q    Type
REMARK                         _______ _______ _______ _____ _____    ______ ____
ROOT
ATOM     15  C   UNL     1      13.807   7.965  18.784  0.00  0.00    +0.170 C 
ATOM     16  C   UNL     1      13.966   8.647  19.221  0.00  0.00    +0.169 C 
ATOM     17  O   UNL     1      13.364   8.738  19.778  0.00  0.00    -0.350 OA
ATOM     18  C   UNL     1      12.834   8.114  19.685  0.00  0.00    +0.167 C 
ATOM     19  C   UNL     1      12.134   7.783  19.971  0.00  0.00    +0.156 C 
ATOM     20  C   UNL     1      11.975   7.102  19.534  0.00  0.00    +0.166 C 
ATOM     21  O   UNL     1      12.577   7.011  18.978  0.00  0.00    -0.350 OA
ATOM     22  C   UNL     1      13.108   7.636  19.071  0.00  0.00    +0.169 C 
ENDROOT
BRANCH  19  23
ATOM     23  N   UNL     1      11.673   8.082  20.587  0.00  0.00    -0.185 NA
ATOM     24  C   UNL     1      11.210   7.573  21.041  0.00  0.00    +0.323 C 
ATOM     25  O   UNL     1      11.207   6.764  20.880  0.00  0.00    -0.251 OA
ATOM     26  N   UNL     1      10.749   7.872  21.657  0.00  0.00    -0.258 N 
ATOM     27  C   UNL     1      10.286   7.362  22.111  0.00  0.00    +0.127 C 
ATOM     28  C   UNL     1       9.825   7.660  22.727  0.00  0.00    +0.164 C 
ATOM     29  O   UNL     1       9.828   8.471  22.888  0.00  0.00    -0.350 OA
ATOM     30  C   UNL     1      10.291   8.979  22.434  0.00  0.00    +0.164 C 
ATOM     31  C   UNL     1      10.752   8.681  21.818  0.00  0.00    +0.127 C 
ENDBRANCH  19  23
BRANCH  15  14
ATOM     10  C   UNL     1      14.824   7.060  18.230  0.00  0.00    +0.343 A 
ATOM     11  N   UNL     1      15.153   6.939  17.482  0.00  0.00    -0.071 NA
ATOM     12  N   UNL     1      14.800   7.472  16.959  0.00  0.00    -0.020 NA
ATOM     13  N   UNL     1      14.253   7.921  17.384  0.00  0.00    -0.040 NA
ATOM     14  N   UNL     1      14.268   7.666  18.168  0.00  0.00    -0.180 N 
BRANCH  10   9
ATOM      9  O   UNL     1      15.017   6.646  18.917  0.00  0.00    -0.421 OA
BRANCH   9   8
ATOM      4  C   UNL     1      16.921   6.714  19.979  0.00  0.00    +0.051 A 
ATOM      5  C   UNL     1      17.390   6.243  19.491  0.00  0.00    +0.015 A 
ATOM      6  C   UNL     1      17.068   5.905  18.811  0.00  0.00    +0.004 A 
ATOM      7  C   UNL     1      16.276   6.040  18.620  0.00  0.00    +0.038 A 
ATOM      8  C   UNL     1      15.808   6.511  19.108  0.00  0.00    +0.150 A 
ATOM     32  C   UNL     1      16.131   6.849  19.788  0.00  0.00    +0.052 A 
BRANCH   4   2
ATOM      1  C   UNL     1      17.405   7.861  20.683  0.00  0.00    +0.112 C 
ATOM      2  N   UNL     1      17.244   7.052  20.661  0.00  0.00    -0.304 N 
ATOM      3  C   UNL     1      17.405   6.581  21.317  0.00  0.00    +0.112 C 
ENDBRANCH   4   2
ENDBRANCH   9   8
ENDBRANCH  10   9
ENDBRANCH  15  14
TORSDOF 5
ENDMDL
