MODEL 1
REMARK VINA RESULT:      -9.7      0.000      0.000
REMARK  Name = 
REMARK  7 active torsions:
REMARK  status: ('A' for Active; 'I' for Inactive)
REMARK    1  A    between atoms: C_3  and  C_4
REMARK    2  A    between atoms: C_4  and  N_5
REMARK    3  A    between atoms: C_14  and  C_15
REMARK    4  A    between atoms: C_15  and  C_16
REMARK    5  A    between atoms: C_16  and  C_17
REMARK    6  A    between atoms: N_19  and  C_20
REMARK    7  A    between atoms: C_20  and  C_21
REMARK                            x       y       z     vdW  Elec       q    Type
REMARK                         _______ _______ _______ _____ _____    ______ ____
ROOT
ATOM      5  N   UNL     1      -2.157   1.729  24.777  0.00  0.00    -0.259 NA
ATOM      6  C   UNL     1      -2.408   0.961  24.946  0.00  0.00    +0.074 C 
ATOM      7  C   UNL     1      -1.811   0.441  24.716  0.00  0.00    +0.035 C 
ATOM      8  C   UNL     1      -1.190   0.887  24.405  0.00  0.00    +0.083 C 
ATOM      9  C   UNL     1      -1.404   1.683  24.444  0.00  0.00    +0.152 C 
ATOM     10  C   UNL     1      -0.973   2.344  24.203  0.00  0.00    +0.257 C 
ATOM     11  O   UNL     1      -1.343   3.072  24.315  0.00  0.00    -0.272 OA
ATOM     12  N   UNL     1      -0.222   2.372  23.864  0.00  0.00    -0.203 NA
ATOM     13  C   UNL     1       0.285   1.746  23.682  0.00  0.00    +0.131 C 
ATOM     14  C   UNL     1       0.164   0.938  23.795  0.00  0.00    +0.080 C 
ATOM     27  N   UNL     1      -0.492   0.556  24.117  0.00  0.00    -0.271 NA
ATOM     28  C   UNL     1      -0.444  -0.267  24.155  0.00  0.00    +0.090 C 
ENDROOT
BRANCH   5   4
ATOM      4  C   UNL     1      -2.584   2.420  24.919  0.00  0.00    +0.137 C 
BRANCH   4   3
ATOM      1  C   UNL     1      -3.577   3.575  25.867  0.00  0.00    +0.132 C 
ATOM      2  N   UNL     1      -3.859   2.917  25.456  0.00  0.00    -0.312 N 
ATOM      3  C   UNL     1      -3.402   2.386  25.020  0.00  0.00    +0.137 A 
ATOM     29  N   UNL     1      -3.907   1.815  24.704  0.00  0.00    -0.230 NA
ATOM     30  C   UNL     1      -4.676   1.994  24.944  0.00  0.00    +0.098 A 
ATOM     31  C   UNL     1      -4.646   2.675  25.409  0.00  0.00    +0.079 A 
ATOM     32  C   UNL     1      -5.339   2.986  25.730  0.00  0.00    +0.019 A 
ATOM     33  C   UNL     1      -6.063   2.616  25.586  0.00  0.00    +0.002 A 
ATOM     34  C   UNL     1      -6.093   1.936  25.120  0.00  0.00    +0.002 A 
ATOM     35  C   UNL     1      -5.399   1.625  24.800  0.00  0.00    +0.021 A 
ENDBRANCH   4   3
ENDBRANCH   5   4
BRANCH  14  15
ATOM     15  C   UNL     1       0.782   0.447  23.554  0.00  0.00    +0.027 C 
BRANCH  15  16
ATOM     16  C   UNL     1       1.438   0.768  23.169  0.00  0.00    +0.088 C 
BRANCH  16  17
ATOM     17  C   UNL     1       2.027   0.271  22.875  0.00  0.00    +0.242 C 
ATOM     18  O   UNL     1       1.837  -0.313  22.325  0.00  0.00    -0.273 OA
ATOM     19  N   UNL     1       2.806   0.359  23.131  0.00  0.00    -0.200 NA
BRANCH  19  20
ATOM     20  C   UNL     1       3.395  -0.138  22.836  0.00  0.00    +0.143 C 
BRANCH  20  21
ATOM     21  C   UNL     1       4.143  -0.143  23.186  0.00  0.00    +0.019 A 
ATOM     22  C   UNL     1       4.638   0.513  23.112  0.00  0.00    +0.001 A 
ATOM     23  C   UNL     1       5.385   0.508  23.461  0.00  0.00    +0.020 A 
ATOM     24  C   UNL     1       5.638  -0.154  23.884  0.00  0.00    +0.099 A 
ATOM     25  N   UNL     1       5.144  -0.810  23.958  0.00  0.00    -0.243 NA
ATOM     26  C   UNL     1       4.396  -0.805  23.609  0.00  0.00    +0.096 A 
ENDBRANCH  20  21
ENDBRANCH  19  20
ENDBRANCH  16  17
ENDBRANCH  15  16
ENDBRANCH  14  15
TORSDOF 7
ENDMDL
MODEL 2
REMARK VINA RESULT:      -6.7     16.404     18.123
REMARK  Name = 
REMARK  7 active torsions:
REMARK  status: ('A' for Active; 'I' for Inactive)
REMARK    1  A    between atoms: C_3  and  C_4
REMARK    2  A    between atoms: C_4  and  N_5
REMARK    3  A    between atoms: C_14  and  C_15
REMARK    4  A    between atoms: C_15  and  C_16
REMARK    5  A    between atoms: C_16  and  C_17
REMARK    6  A    between atoms: N_19  and  C_20
REMARK    7  A    between atoms: C_20  and  C_21
REMARK                            x       y       z     vdW  Elec       q    Type
REMARK                         _______ _______ _______ _____ _____    ______ ____
ROOT
ATOM      5  N   UNL     1      -4.199 -10.401  13.222  0.00  0.00    -0.259 NA
ATOM      6  C   UNL     1      -3.524 -10.161  12.812  0.00  0.00    +0.074 C 
ATOM      7  C   UNL     1      -3.760  -9.890  12.070  0.00  0.00    +0.035 C 
ATOM      8  C   UNL     1      -4.581  -9.963  12.021  0.00  0.00    +0.083 C 
ATOM      9  C   UNL     1      -4.851 -10.278  12.734  0.00  0.00    +0.152 C 
ATOM     10  C   UNL     1      -5.626 -10.454  12.956  0.00  0.00    +0.257 C 
ATOM     11  O   UNL     1      -5.717 -10.768  13.713  0.00  0.00    -0.272 OA
ATOM     12  N   UNL     1      -6.321 -10.358  12.522  0.00  0.00    -0.203 NA
ATOM     13  C   UNL     1      -6.413 -10.062  11.757  0.00  0.00    +0.131 C 
ATOM     14  C   UNL     1      -5.832  -9.789  11.238  0.00  0.00    +0.080 C 
ATOM     27  N   UNL     1      -5.016  -9.745  11.356  0.00  0.00    -0.271 NA
ATOM     28  C   UNL     1      -4.580  -9.443  10.724  0.00  0.00    +0.090 C 
ENDROOT
BRANCH   5   4
ATOM      4  C   UNL     1      -4.217 -10.710  13.987  0.00  0.00    +0.137 C 
BRANCH   4   3
ATOM      1  C   UNL     1      -4.157 -10.637  15.779  0.00  0.00    +0.132 C 
ATOM      2  N   UNL     1      -3.506 -10.673  15.273  0.00  0.00    -0.312 N 
ATOM      3  C   UNL     1      -3.533 -10.706  14.450  0.00  0.00    +0.137 A 
ATOM     29  N   UNL     1      -2.758 -10.736  14.169  0.00  0.00    -0.230 NA
ATOM     30  C   UNL     1      -2.251 -10.721  14.820  0.00  0.00    +0.098 A 
ATOM     31  C   UNL     1      -2.713 -10.682  15.503  0.00  0.00    +0.079 A 
ATOM     32  C   UNL     1      -2.353 -10.660  16.245  0.00  0.00    +0.019 A 
ATOM     33  C   UNL     1      -1.530 -10.677  16.304  0.00  0.00    +0.002 A 
ATOM     34  C   UNL     1      -1.067 -10.716  15.622  0.00  0.00    +0.002 A 
ATOM     35  C   UNL     1      -1.429 -10.738  14.880  0.00  0.00    +0.021 A 
ENDBRANCH   4   3
ENDBRANCH   5   4
BRANCH  14  15
ATOM     15  C   UNL     1      -6.103  -9.526  10.505  0.00  0.00    +0.027 C 
BRANCH  15  16
ATOM     16  C   UNL     1      -6.841  -9.162  10.444  0.00  0.00    +0.088 C 
BRANCH  16  17
ATOM     17  C   UNL     1      -7.161  -9.000   9.701  0.00  0.00    +0.242 C 
ATOM     18  O   UNL     1      -7.073  -9.543   9.087  0.00  0.00    -0.273 OA
ATOM     19  N   UNL     1      -7.569  -8.295   9.573  0.00  0.00    -0.200 NA
BRANCH  19  20
ATOM     20  C   UNL     1      -7.889  -8.133   8.830  0.00  0.00    +0.143 C 
BRANCH  20  21
ATOM     21  C   UNL     1      -8.343  -7.453   8.716  0.00  0.00    +0.019 A 
ATOM     22  C   UNL     1      -9.118  -7.422   8.997  0.00  0.00    +0.001 A 
ATOM     23  C   UNL     1      -9.571  -6.743   8.882  0.00  0.00    +0.020 A 
ATOM     24  C   UNL     1      -9.250  -6.093   8.487  0.00  0.00    +0.099 A 
ATOM     25  N   UNL     1      -8.475  -6.124   8.206  0.00  0.00    -0.243 NA
ATOM     26  C   UNL     1      -8.021  -6.804   8.320  0.00  0.00    +0.096 A 
ENDBRANCH  20  21
ENDBRANCH  19  20
ENDBRANCH  16  17
ENDBRANCH  15  16
ENDBRANCH  14  15
TORSDOF 7
ENDMDL
MODEL 3
REMARK VINA RESULT:      -6.6     15.349     16.278
REMARK  Name = 
REMARK  7 active torsions:
REMARK  status: ('A' for Active; 'I' for Inactive)
REMARK    1  A    between atoms: C_3  and  C_4
REMARK    2  A    between atoms: C_4  and  N_5
REMARK    3  A    between atoms: C_14  and  C_15
REMARK    4  A    between atoms: C_15  and  C_16
REMARK    5  A    between atoms: C_16  and  C_17
REMARK    6  A    between atoms: N_19  and  C_20
REMARK    7  A    between atoms: C_20  and  C_21
REMARK                            x       y       z     vdW  Elec       q    Type
REMARK                         _______ _______ _______ _____ _____    ______ ____
ROOT
ATOM      5  N   UNL     1      -7.300 -10.125  15.744  0.00  0.00    -0.259 NA
ATOM      6  C   UNL     1      -7.888 -10.267  15.183  0.00  0.00    +0.074 C 
ATOM      7  C   UNL     1      -7.520 -10.419  14.461  0.00  0.00    +0.035 C 
ATOM      8  C   UNL     1      -6.704 -10.371  14.576  0.00  0.00    +0.083 C 
ATOM      9  C   UNL     1      -6.569 -10.189  15.369  0.00  0.00    +0.152 C 
ATOM     10  C   UNL     1      -5.848 -10.082  15.756  0.00  0.00    +0.257 C 
ATOM     11  O   UNL     1      -5.897  -9.903  16.560  0.00  0.00    -0.272 OA
ATOM     12  N   UNL     1      -5.085 -10.131  15.447  0.00  0.00    -0.203 NA
ATOM     13  C   UNL     1      -4.854 -10.298  14.672  0.00  0.00    +0.131 C 
ATOM     14  C   UNL     1      -5.329 -10.459  14.017  0.00  0.00    +0.080 C 
ATOM     27  N   UNL     1      -6.153 -10.491  13.975  0.00  0.00    -0.271 NA
ATOM     28  C   UNL     1      -6.466 -10.667  13.232  0.00  0.00    +0.090 C 
ENDROOT
BRANCH   5   4
ATOM      4  C   UNL     1      -7.423  -9.949  16.541  0.00  0.00    +0.137 C 
BRANCH   4   3
ATOM      1  C   UNL     1      -8.441 -10.467  17.925  0.00  0.00    +0.132 C 
ATOM      2  N   UNL     1      -8.597  -9.835  17.418  0.00  0.00    -0.312 N 
ATOM      3  C   UNL     1      -8.129  -9.597  16.782  0.00  0.00    +0.137 A 
ATOM     29  N   UNL     1      -8.492  -8.945  16.428  0.00  0.00    -0.230 NA
ATOM     30  C   UNL     1      -9.184  -8.780  16.846  0.00  0.00    +0.098 A 
ATOM     31  C   UNL     1      -9.249  -9.330  17.458  0.00  0.00    +0.079 A 
ATOM     32  C   UNL     1      -9.893  -9.301  17.973  0.00  0.00    +0.019 A 
ATOM     33  C   UNL     1     -10.472  -8.720  17.875  0.00  0.00    +0.002 A 
ATOM     34  C   UNL     1     -10.407  -8.170  17.264  0.00  0.00    +0.002 A 
ATOM     35  C   UNL     1      -9.762  -8.201  16.750  0.00  0.00    +0.021 A 
ENDBRANCH   4   3
ENDBRANCH   5   4
BRANCH  14  15
ATOM     15  C   UNL     1      -4.928 -10.606  13.311  0.00  0.00    +0.027 C 
BRANCH  15  16
ATOM     16  C   UNL     1      -4.351 -10.079  13.046  0.00  0.00    +0.088 C 
BRANCH  16  17
ATOM     17  C   UNL     1      -3.895 -10.264  12.384  0.00  0.00    +0.242 C 
ATOM     18  O   UNL     1      -3.257 -10.781  12.455  0.00  0.00    -0.273 OA
ATOM     19  N   UNL     1      -4.079  -9.933  11.652  0.00  0.00    -0.200 NA
BRANCH  19  20
ATOM     20  C   UNL     1      -3.623 -10.118  10.990  0.00  0.00    +0.143 C 
BRANCH  20  21
ATOM     21  C   UNL     1      -3.843  -9.837  10.246  0.00  0.00    +0.019 A 
ATOM     22  C   UNL     1      -4.107 -10.363   9.668  0.00  0.00    +0.001 A 
ATOM     23  C   UNL     1      -4.327 -10.083   8.924  0.00  0.00    +0.020 A 
ATOM     24  C   UNL     1      -4.283  -9.276   8.757  0.00  0.00    +0.099 A 
ATOM     25  N   UNL     1      -4.018  -8.749   9.335  0.00  0.00    -0.243 NA
ATOM     26  C   UNL     1      -3.798  -9.030  10.080  0.00  0.00    +0.096 A 
ENDBRANCH  20  21
ENDBRANCH  19  20
ENDBRANCH  16  17
ENDBRANCH  15  16
ENDBRANCH  14  15
TORSDOF 7
ENDMDL
MODEL 4
REMARK VINA RESULT:      -6.6      1.106      7.417
REMARK  Name = 
REMARK  7 active torsions:
REMARK  status: ('A' for Active; 'I' for Inactive)
REMARK    1  A    between atoms: C_3  and  C_4
REMARK    2  A    between atoms: C_4  and  N_5
REMARK    3  A    between atoms: C_14  and  C_15
REMARK    4  A    between atoms: C_15  and  C_16
REMARK    5  A    between atoms: C_16  and  C_17
REMARK    6  A    between atoms: N_19  and  C_20
REMARK    7  A    between atoms: C_20  and  C_21
REMARK                            x       y       z     vdW  Elec       q    Type
REMARK                         _______ _______ _______ _____ _____    ______ ____
ROOT
ATOM      5  N   UNL     1       1.735   0.424  23.081  0.00  0.00    -0.259 NA
ATOM      6  C   UNL     1       1.639  -0.333  22.766  0.00  0.00    +0.074 C 
ATOM      7  C   UNL     1       0.876  -0.589  22.949  0.00  0.00    +0.035 C 
ATOM      8  C   UNL     1       0.502   0.010  23.377  0.00  0.00    +0.083 C 
ATOM      9  C   UNL     1       1.033   0.636  23.458  0.00  0.00    +0.152 C 
ATOM     10  C   UNL     1       0.921   1.358  23.839  0.00  0.00    +0.257 C 
ATOM     11  O   UNL     1       1.565   1.874  23.824  0.00  0.00    -0.272 OA
ATOM     12  N   UNL     1       0.251   1.634  24.234  0.00  0.00    -0.203 NA
ATOM     13  C   UNL     1      -0.473   1.255  24.344  0.00  0.00    +0.131 C 
ATOM     14  C   UNL     1      -0.706   0.505  24.087  0.00  0.00    +0.080 C 
ATOM     27  N   UNL     1      -0.272  -0.048  23.657  0.00  0.00    -0.271 NA
ATOM     28  C   UNL     1      -0.664  -0.753  23.484  0.00  0.00    +0.090 C 
ENDROOT
BRANCH   5   4
ATOM      4  C   UNL     1       2.415   0.888  23.027  0.00  0.00    +0.137 C 
BRANCH   4   3
ATOM      1  C   UNL     1       3.976   1.511  22.395  0.00  0.00    +0.132 C 
ATOM      2  N   UNL     1       3.875   0.834  22.856  0.00  0.00    -0.312 N 
ATOM      3  C   UNL     1       3.157   0.548  23.146  0.00  0.00    +0.137 A 
ATOM     29  N   UNL     1       3.312  -0.139  23.577  0.00  0.00    -0.230 NA
ATOM     30  C   UNL     1       4.126  -0.277  23.553  0.00  0.00    +0.098 A 
ATOM     31  C   UNL     1       4.473   0.324  23.108  0.00  0.00    +0.079 A 
ATOM     32  C   UNL     1       5.289   0.331  22.988  0.00  0.00    +0.019 A 
ATOM     33  C   UNL     1       5.759  -0.265  23.315  0.00  0.00    +0.002 A 
ATOM     34  C   UNL     1       5.411  -0.866  23.760  0.00  0.00    +0.002 A 
ATOM     35  C   UNL     1       4.595  -0.872  23.879  0.00  0.00    +0.021 A 
ENDBRANCH   4   3
ENDBRANCH   5   4
BRANCH  14  15
ATOM     15  C   UNL     1      -1.474   0.281  24.288  0.00  0.00    +0.027 C 
BRANCH  15  16
ATOM     16  C   UNL     1      -1.949   0.788  24.734  0.00  0.00    +0.088 C 
BRANCH  16  17
ATOM     17  C   UNL     1      -2.764   0.667  24.766  0.00  0.00    +0.242 C 
ATOM     18  O   UNL     1      -3.070  -0.097  24.731  0.00  0.00    -0.273 OA
ATOM     19  N   UNL     1      -3.274   1.312  24.833  0.00  0.00    -0.200 NA
BRANCH  19  20
ATOM     20  C   UNL     1      -4.089   1.192  24.865  0.00  0.00    +0.143 C 
BRANCH  20  21
ATOM     21  C   UNL     1      -4.590   1.814  25.075  0.00  0.00    +0.019 A 
ATOM     22  C   UNL     1      -5.308   1.656  25.450  0.00  0.00    +0.001 A 
ATOM     23  C   UNL     1      -5.809   2.276  25.660  0.00  0.00    +0.020 A 
ATOM     24  C   UNL     1      -5.592   3.056  25.496  0.00  0.00    +0.099 A 
ATOM     25  N   UNL     1      -4.874   3.214  25.122  0.00  0.00    -0.243 NA
ATOM     26  C   UNL     1      -4.373   2.592  24.911  0.00  0.00    +0.096 A 
ENDBRANCH  20  21
ENDBRANCH  19  20
ENDBRANCH  16  17
ENDBRANCH  15  16
ENDBRANCH  14  15
TORSDOF 7
ENDMDL
MODEL 5
REMARK VINA RESULT:      -6.5      3.106      5.913
REMARK  Name = 
REMARK  7 active torsions:
REMARK  status: ('A' for Active; 'I' for Inactive)
REMARK    1  A    between atoms: C_3  and  C_4
REMARK    2  A    between atoms: C_4  and  N_5
REMARK    3  A    between atoms: C_14  and  C_15
REMARK    4  A    between atoms: C_15  and  C_16
REMARK    5  A    between atoms: C_16  and  C_17
REMARK    6  A    between atoms: N_19  and  C_20
REMARK    7  A    between atoms: C_20  and  C_21
REMARK                            x       y       z     vdW  Elec       q    Type
REMARK                         _______ _______ _______ _____ _____    ______ ____
ROOT
ATOM      5  N   UNL     1      -0.997  -0.038  24.491  0.00  0.00    -0.259 NA
ATOM      6  C   UNL     1      -1.064   0.097  23.679  0.00  0.00    +0.074 C 
ATOM      7  C   UNL     1      -0.981   0.907  23.548  0.00  0.00    +0.035 C 
ATOM      8  C   UNL     1      -0.863   1.273  24.279  0.00  0.00    +0.083 C 
ATOM      9  C   UNL     1      -0.873   0.688  24.861  0.00  0.00    +0.152 C 
ATOM     10  C   UNL     1      -0.780   0.773  25.676  0.00  0.00    +0.257 C 
ATOM     11  O   UNL     1      -0.818   0.075  26.114  0.00  0.00    -0.272 OA
ATOM     12  N   UNL     1      -0.654   1.462  26.111  0.00  0.00    -0.203 NA
ATOM     13  C   UNL     1      -0.589   2.238  25.837  0.00  0.00    +0.131 C 
ATOM     14  C   UNL     1      -0.635   2.516  25.061  0.00  0.00    +0.080 C 
ATOM     27  N   UNL     1      -0.757   2.085  24.368  0.00  0.00    -0.271 NA
ATOM     28  C   UNL     1      -0.775   2.528  23.671  0.00  0.00    +0.090 C 
ENDROOT
BRANCH   5   4
ATOM      4  C   UNL     1      -1.047  -0.772  24.865  0.00  0.00    +0.137 C 
BRANCH   4   3
ATOM      1  C   UNL     1      -0.998  -2.564  24.784  0.00  0.00    +0.132 C 
ATOM      2  N   UNL     1      -1.667  -2.092  24.681  0.00  0.00    -0.312 N 
ATOM      3  C   UNL     1      -1.689  -1.268  24.718  0.00  0.00    +0.137 A 
ATOM     29  N   UNL     1      -2.467  -1.028  24.582  0.00  0.00    -0.230 NA
ATOM     30  C   UNL     1      -2.925  -1.703  24.461  0.00  0.00    +0.098 A 
ATOM     31  C   UNL     1      -2.431  -2.361  24.522  0.00  0.00    +0.079 A 
ATOM     32  C   UNL     1      -2.739  -3.120  24.425  0.00  0.00    +0.019 A 
ATOM     33  C   UNL     1      -3.543  -3.221  24.267  0.00  0.00    +0.002 A 
ATOM     34  C   UNL     1      -4.038  -2.563  24.206  0.00  0.00    +0.002 A 
ATOM     35  C   UNL     1      -3.728  -1.805  24.303  0.00  0.00    +0.021 A 
ENDBRANCH   4   3
ENDBRANCH   5   4
BRANCH  14  15
ATOM     15  C   UNL     1      -0.548   3.330  24.966  0.00  0.00    +0.027 C 
BRANCH  15  16
ATOM     16  C   UNL     1      -0.811   3.845  25.556  0.00  0.00    +0.088 C 
BRANCH  16  17
ATOM     17  C   UNL     1      -1.468   4.325  25.420  0.00  0.00    +0.242 C 
ATOM     18  O   UNL     1      -1.371   5.073  25.090  0.00  0.00    -0.273 OA
ATOM     19  N   UNL     1      -2.223   4.055  25.616  0.00  0.00    -0.200 NA
BRANCH  19  20
ATOM     20  C   UNL     1      -2.880   4.535  25.481  0.00  0.00    +0.143 C 
BRANCH  20  21
ATOM     21  C   UNL     1      -3.638   4.208  25.489  0.00  0.00    +0.019 A 
ATOM     22  C   UNL     1      -4.019   4.033  24.778  0.00  0.00    +0.001 A 
ATOM     23  C   UNL     1      -4.776   3.707  24.785  0.00  0.00    +0.020 A 
ATOM     24  C   UNL     1      -5.153   3.555  25.503  0.00  0.00    +0.099 A 
ATOM     25  N   UNL     1      -4.773   3.729  26.214  0.00  0.00    -0.243 NA
ATOM     26  C   UNL     1      -4.015   4.056  26.207  0.00  0.00    +0.096 A 
ENDBRANCH  20  21
ENDBRANCH  19  20
ENDBRANCH  16  17
ENDBRANCH  15  16
ENDBRANCH  14  15
TORSDOF 7
ENDMDL
MODEL 6
REMARK VINA RESULT:      -6.5     14.432     15.064
REMARK  Name = 
REMARK  7 active torsions:
REMARK  status: ('A' for Active; 'I' for Inactive)
REMARK    1  A    between atoms: C_3  and  C_4
REMARK    2  A    between atoms: C_4  and  N_5
REMARK    3  A    between atoms: C_14  and  C_15
REMARK    4  A    between atoms: C_15  and  C_16
REMARK    5  A    between atoms: C_16  and  C_17
REMARK    6  A    between atoms: N_19  and  C_20
REMARK    7  A    between atoms: C_20  and  C_21
REMARK                            x       y       z     vdW  Elec       q    Type
REMARK                         _______ _______ _______ _____ _____    ______ ____
ROOT
ATOM      5  N   UNL     1      -6.931  -9.991  16.738  0.00  0.00    -0.259 NA
ATOM      6  C   UNL     1      -7.263  -9.919  15.986  0.00  0.00    +0.074 C 
ATOM      7  C   UNL     1      -6.663 -10.030  15.431  0.00  0.00    +0.035 C 
ATOM      8  C   UNL     1      -5.960 -10.170  15.840  0.00  0.00    +0.083 C 
ATOM      9  C   UNL     1      -6.126 -10.146  16.648  0.00  0.00    +0.152 C 
ATOM     10  C   UNL     1      -5.610 -10.253  17.282  0.00  0.00    +0.257 C 
ATOM     11  O   UNL     1      -5.948 -10.195  18.032  0.00  0.00    -0.272 OA
ATOM     12  N   UNL     1      -4.800 -10.410  17.266  0.00  0.00    -0.203 NA
ATOM     13  C   UNL     1      -4.306 -10.499  16.611  0.00  0.00    +0.131 C 
ATOM     14  C   UNL     1      -4.501 -10.453  15.810  0.00  0.00    +0.080 C 
ATOM     27  N   UNL     1      -5.237 -10.306  15.467  0.00  0.00    -0.271 NA
ATOM     28  C   UNL     1      -5.251 -10.295  14.643  0.00  0.00    +0.090 C 
ENDROOT
BRANCH   5   4
ATOM      4  C   UNL     1      -7.334  -9.920  17.454  0.00  0.00    +0.137 C 
BRANCH   4   3
ATOM      1  C   UNL     1      -8.795 -10.601  18.243  0.00  0.00    +0.132 C 
ATOM      2  N   UNL     1      -8.753  -9.883  17.837  0.00  0.00    -0.312 N 
ATOM      3  C   UNL     1      -8.081  -9.571  17.475  0.00  0.00    +0.137 A 
ATOM     29  N   UNL     1      -8.288  -8.847  17.136  0.00  0.00    -0.230 NA
ATOM     30  C   UNL     1      -9.087  -8.713  17.289  0.00  0.00    +0.098 A 
ATOM     31  C   UNL     1      -9.375  -9.353  17.723  0.00  0.00    +0.079 A 
ATOM     32  C   UNL     1     -10.165  -9.371  17.958  0.00  0.00    +0.019 A 
ATOM     33  C   UNL     1     -10.669  -8.748  17.758  0.00  0.00    +0.002 A 
ATOM     34  C   UNL     1     -10.382  -8.108  17.325  0.00  0.00    +0.002 A 
ATOM     35  C   UNL     1      -9.591  -8.091  17.090  0.00  0.00    +0.021 A 
ENDBRANCH   4   3
ENDBRANCH   5   4
BRANCH  14  15
ATOM     15  C   UNL     1      -3.877 -10.568  15.282  0.00  0.00    +0.027 C 
BRANCH  15  16
ATOM     16  C   UNL     1      -3.125 -10.755  15.567  0.00  0.00    +0.088 C 
BRANCH  16  17
ATOM     17  C   UNL     1      -2.456 -10.544  15.134  0.00  0.00    +0.242 C 
ATOM     18  O   UNL     1      -1.770 -10.305  15.525  0.00  0.00    -0.273 OA
ATOM     19  N   UNL     1      -2.472 -10.572  14.310  0.00  0.00    -0.200 NA
BRANCH  19  20
ATOM     20  C   UNL     1      -1.803 -10.361  13.877  0.00  0.00    +0.143 C 
BRANCH  20  21
ATOM     21  C   UNL     1      -1.845 -10.303  13.055  0.00  0.00    +0.019 A 
ATOM     22  C   UNL     1      -2.370 -10.781  12.634  0.00  0.00    +0.001 A 
ATOM     23  C   UNL     1      -2.411 -10.724  11.812  0.00  0.00    +0.020 A 
ATOM     24  C   UNL     1      -1.928 -10.188  11.411  0.00  0.00    +0.099 A 
ATOM     25  N   UNL     1      -1.403  -9.711  11.831  0.00  0.00    -0.243 NA
ATOM     26  C   UNL     1      -1.362  -9.768  12.654  0.00  0.00    +0.096 A 
ENDBRANCH  20  21
ENDBRANCH  19  20
ENDBRANCH  16  17
ENDBRANCH  15  16
ENDBRANCH  14  15
TORSDOF 7
ENDMDL
MODEL 7
REMARK VINA RESULT:      -6.4     16.017     17.426
REMARK  Name = 
REMARK  7 active torsions:
REMARK  status: ('A' for Active; 'I' for Inactive)
REMARK    1  A    between atoms: C_3  and  C_4
REMARK    2  A    between atoms: C_4  and  N_5
REMARK    3  A    between atoms: C_14  and  C_15
REMARK    4  A    between atoms: C_15  and  C_16
REMARK    5  A    between atoms: C_16  and  C_17
REMARK    6  A    between atoms: N_19  and  C_20
REMARK    7  A    between atoms: C_20  and  C_21
REMARK                            x       y       z     vdW  Elec       q    Type
REMARK                         _______ _______ _______ _____ _____    ______ ____
ROOT
ATOM      5  N   UNL     1      -6.345 -10.132  15.023  0.00  0.00    -0.259 NA
ATOM      6  C   UNL     1      -7.108 -10.106  15.338  0.00  0.00    +0.074 C 
ATOM      7  C   UNL     1      -7.635  -9.975  14.718  0.00  0.00    +0.035 C 
ATOM      8  C   UNL     1      -7.199  -9.919  14.019  0.00  0.00    +0.083 C 
ATOM      9  C   UNL     1      -6.402 -10.016  14.208  0.00  0.00    +0.152 C 
ATOM     10  C   UNL     1      -5.749 -10.006  13.704  0.00  0.00    +0.257 C 
ATOM     11  O   UNL     1      -5.017 -10.120  14.065  0.00  0.00    -0.272 OA
ATOM     12  N   UNL     1      -5.732  -9.896  12.886  0.00  0.00    -0.203 NA
ATOM     13  C   UNL     1      -6.364  -9.770  12.371  0.00  0.00    +0.131 C 
ATOM     14  C   UNL     1      -7.170  -9.721  12.547  0.00  0.00    +0.080 C 
ATOM     27  N   UNL     1      -7.541  -9.788  13.281  0.00  0.00    -0.271 NA
ATOM     28  C   UNL     1      -8.362  -9.713  13.274  0.00  0.00    +0.090 C 
ENDROOT
BRANCH   5   4
ATOM      4  C   UNL     1      -5.649 -10.252  15.449  0.00  0.00    +0.137 C 
BRANCH   4   3
ATOM      1  C   UNL     1      -4.252 -10.614  16.516  0.00  0.00    +0.132 C 
ATOM      2  N   UNL     1      -5.036 -10.521  16.757  0.00  0.00    -0.312 N 
ATOM      3  C   UNL     1      -5.677 -10.354  16.267  0.00  0.00    +0.137 A 
ATOM     29  N   UNL     1      -6.354 -10.309  16.738  0.00  0.00    -0.230 NA
ATOM     30  C   UNL     1      -6.129 -10.447  17.520  0.00  0.00    +0.098 A 
ATOM     31  C   UNL     1      -5.315 -10.578  17.532  0.00  0.00    +0.079 A 
ATOM     32  C   UNL     1      -4.932 -10.733  18.246  0.00  0.00    +0.019 A 
ATOM     33  C   UNL     1      -5.364 -10.756  18.949  0.00  0.00    +0.002 A 
ATOM     34  C   UNL     1      -6.178 -10.625  18.937  0.00  0.00    +0.002 A 
ATOM     35  C   UNL     1      -6.560 -10.470  18.222  0.00  0.00    +0.021 A 
ENDBRANCH   4   3
ENDBRANCH   5   4
BRANCH  14  15
ATOM     15  C   UNL     1      -7.669  -9.589  11.903  0.00  0.00    +0.027 C 
BRANCH  15  16
ATOM     16  C   UNL     1      -7.357  -9.321  11.187  0.00  0.00    +0.088 C 
BRANCH  16  17
ATOM     17  C   UNL     1      -7.841  -9.270  10.521  0.00  0.00    +0.242 C 
ATOM     18  O   UNL     1      -8.310  -9.911  10.303  0.00  0.00    -0.273 OA
ATOM     19  N   UNL     1      -7.853  -8.578  10.073  0.00  0.00    -0.200 NA
BRANCH  19  20
ATOM     20  C   UNL     1      -8.336  -8.527   9.406  0.00  0.00    +0.143 C 
BRANCH  20  21
ATOM     21  C   UNL     1      -8.376  -7.822   8.979  0.00  0.00    +0.019 A 
ATOM     22  C   UNL     1      -9.073  -7.380   8.978  0.00  0.00    +0.001 A 
ATOM     23  C   UNL     1      -9.113  -6.675   8.551  0.00  0.00    +0.020 A 
ATOM     24  C   UNL     1      -8.457  -6.413   8.124  0.00  0.00    +0.099 A 
ATOM     25  N   UNL     1      -7.761  -6.856   8.124  0.00  0.00    -0.243 NA
ATOM     26  C   UNL     1      -7.721  -7.561   8.552  0.00  0.00    +0.096 A 
ENDBRANCH  20  21
ENDBRANCH  19  20
ENDBRANCH  16  17
ENDBRANCH  15  16
ENDBRANCH  14  15
TORSDOF 7
ENDMDL
MODEL 8
REMARK VINA RESULT:      -6.1     15.482     16.546
REMARK  Name = 
REMARK  7 active torsions:
REMARK  status: ('A' for Active; 'I' for Inactive)
REMARK    1  A    between atoms: C_3  and  C_4
REMARK    2  A    between atoms: C_4  and  N_5
REMARK    3  A    between atoms: C_14  and  C_15
REMARK    4  A    between atoms: C_15  and  C_16
REMARK    5  A    between atoms: C_16  and  C_17
REMARK    6  A    between atoms: N_19  and  C_20
REMARK    7  A    between atoms: C_20  and  C_21
REMARK                            x       y       z     vdW  Elec       q    Type
REMARK                         _______ _______ _______ _____ _____    ______ ____
ROOT
ATOM      5  N   UNL     1      -5.387 -10.388  15.719  0.00  0.00    -0.259 NA
ATOM      6  C   UNL     1      -6.133 -10.302  15.376  0.00  0.00    +0.074 C 
ATOM      7  C   UNL     1      -6.044 -10.349  14.557  0.00  0.00    +0.035 C 
ATOM      8  C   UNL     1      -5.242 -10.464  14.394  0.00  0.00    +0.083 C 
ATOM      9  C   UNL     1      -4.837 -10.488  15.112  0.00  0.00    +0.152 C 
ATOM     10  C   UNL     1      -4.029 -10.591  15.243  0.00  0.00    +0.257 C 
ATOM     11  O   UNL     1      -3.793 -10.588  16.033  0.00  0.00    -0.272 OA
ATOM     12  N   UNL     1      -3.427 -10.696  14.689  0.00  0.00    -0.203 NA
ATOM     13  C   UNL     1      -3.484 -10.723  13.866  0.00  0.00    +0.131 C 
ATOM     14  C   UNL     1      -4.159 -10.653  13.395  0.00  0.00    +0.080 C 
ATOM     27  N   UNL     1      -4.941 -10.538  13.630  0.00  0.00    -0.271 NA
ATOM     28  C   UNL     1      -5.494 -10.490  13.020  0.00  0.00    +0.090 C 
ENDROOT
BRANCH   5   4
ATOM      4  C   UNL     1      -5.221 -10.375  16.526  0.00  0.00    +0.137 C 
BRANCH   4   3
ATOM      1  C   UNL     1      -5.050 -10.766  18.270  0.00  0.00    +0.132 C 
ATOM      2  N   UNL     1      -5.757 -10.605  17.876  0.00  0.00    -0.312 N 
ATOM      3  C   UNL     1      -5.836 -10.425  17.075  0.00  0.00    +0.137 A 
ATOM     29  N   UNL     1      -6.637 -10.304  16.918  0.00  0.00    -0.230 NA
ATOM     30  C   UNL     1      -7.053 -10.409  17.623  0.00  0.00    +0.098 A 
ATOM     31  C   UNL     1      -6.510 -10.595  18.215  0.00  0.00    +0.079 A 
ATOM     32  C   UNL     1      -6.769 -10.731  18.986  0.00  0.00    +0.019 A 
ATOM     33  C   UNL     1      -7.574 -10.682  19.165  0.00  0.00    +0.002 A 
ATOM     34  C   UNL     1      -8.117 -10.496  18.573  0.00  0.00    +0.002 A 
ATOM     35  C   UNL     1      -7.857 -10.360  17.802  0.00  0.00    +0.021 A 
ENDBRANCH   4   3
ENDBRANCH   5   4
BRANCH  14  15
ATOM     15  C   UNL     1      -4.033 -10.705  12.581  0.00  0.00    +0.027 C 
BRANCH  15  16
ATOM     16  C   UNL     1      -3.503 -10.192  12.212  0.00  0.00    +0.088 C 
BRANCH  16  17
ATOM     17  C   UNL     1      -3.285 -10.319  11.426  0.00  0.00    +0.242 C 
ATOM     18  O   UNL     1      -2.626 -10.781  11.250  0.00  0.00    -0.273 OA
ATOM     19  N   UNL     1      -3.728  -9.983  10.817  0.00  0.00    -0.200 NA
BRANCH  19  20
ATOM     20  C   UNL     1      -3.511 -10.110  10.031  0.00  0.00    +0.143 C 
BRANCH  20  21
ATOM     21  C   UNL     1      -4.035  -9.919   9.422  0.00  0.00    +0.019 A 
ATOM     22  C   UNL     1      -4.037  -9.158   9.103  0.00  0.00    +0.001 A 
ATOM     23  C   UNL     1      -4.560  -8.968   8.495  0.00  0.00    +0.020 A 
ATOM     24  C   UNL     1      -5.082  -9.538   8.205  0.00  0.00    +0.099 A 
ATOM     25  N   UNL     1      -5.080 -10.299   8.524  0.00  0.00    -0.243 NA
ATOM     26  C   UNL     1      -4.556 -10.489   9.133  0.00  0.00    +0.096 A 
ENDBRANCH  20  21
ENDBRANCH  19  20
ENDBRANCH  16  17
ENDBRANCH  15  16
ENDBRANCH  14  15
TORSDOF 7
ENDMDL
MODEL 9
REMARK VINA RESULT:      -6.1      1.532      7.308
REMARK  Name = 
REMARK  7 active torsions:
REMARK  status: ('A' for Active; 'I' for Inactive)
REMARK    1  A    between atoms: C_3  and  C_4
REMARK    2  A    between atoms: C_4  and  N_5
REMARK    3  A    between atoms: C_14  and  C_15
REMARK    4  A    between atoms: C_15  and  C_16
REMARK    5  A    between atoms: C_16  and  C_17
REMARK    6  A    between atoms: N_19  and  C_20
REMARK    7  A    between atoms: C_20  and  C_21
REMARK                            x       y       z     vdW  Elec       q    Type
REMARK                         _______ _______ _______ _____ _____    ______ ____
ROOT
ATOM      5  N   UNL     1       0.354   0.238  23.495  0.00  0.00    -0.259 NA
ATOM      6  C   UNL     1       0.391   1.061  23.443  0.00  0.00    +0.074 C 
ATOM      7  C   UNL     1      -0.304   1.368  23.766  0.00  0.00    +0.035 C 
ATOM      8  C   UNL     1      -0.769   0.734  24.017  0.00  0.00    +0.083 C 
ATOM      9  C   UNL     1      -0.362   0.036  23.849  0.00  0.00    +0.152 C 
ATOM     10  C   UNL     1      -0.594  -0.742  23.994  0.00  0.00    +0.257 C 
ATOM     11  O   UNL     1      -0.060  -1.324  23.759  0.00  0.00    -0.272 OA
ATOM     12  N   UNL     1      -1.291  -1.015  24.341  0.00  0.00    -0.203 NA
ATOM     13  C   UNL     1      -1.928  -0.576  24.631  0.00  0.00    +0.131 C 
ATOM     14  C   UNL     1      -2.024   0.243  24.644  0.00  0.00    +0.080 C 
ATOM     27  N   UNL     1      -1.508   0.826  24.371  0.00  0.00    -0.271 NA
ATOM     28  C   UNL     1      -1.767   1.604  24.464  0.00  0.00    +0.090 C 
ENDROOT
BRANCH   5   4
ATOM      4  C   UNL     1       0.934  -0.289  23.236  0.00  0.00    +0.137 C 
BRANCH   4   3
ATOM      1  C   UNL     1       1.761  -0.550  21.665  0.00  0.00    +0.132 C 
ATOM      2  N   UNL     1       2.063  -0.131  22.309  0.00  0.00    -0.312 N 
ATOM      3  C   UNL     1       1.683  -0.011  23.031  0.00  0.00    +0.137 A 
ATOM     29  N   UNL     1       2.184   0.435  23.511  0.00  0.00    -0.230 NA
ATOM     30  C   UNL     1       2.873   0.591  23.086  0.00  0.00    +0.098 A 
ATOM     31  C   UNL     1       2.799   0.241  22.343  0.00  0.00    +0.079 A 
ATOM     32  C   UNL     1       3.410   0.306  21.792  0.00  0.00    +0.019 A 
ATOM     33  C   UNL     1       4.097   0.722  21.986  0.00  0.00    +0.002 A 
ATOM     34  C   UNL     1       4.171   1.072  22.730  0.00  0.00    +0.002 A 
ATOM     35  C   UNL     1       3.559   1.006  23.279  0.00  0.00    +0.021 A 
ENDBRANCH   4   3
ENDBRANCH   5   4
BRANCH  14  15
ATOM     15  C   UNL     1      -2.730   0.515  24.974  0.00  0.00    +0.027 C 
BRANCH  15  16
ATOM     16  C   UNL     1      -3.364  -0.003  25.077  0.00  0.00    +0.088 C 
BRANCH  16  17
ATOM     17  C   UNL     1      -4.136   0.260  24.954  0.00  0.00    +0.242 C 
ATOM     18  O   UNL     1      -4.653  -0.182  24.490  0.00  0.00    -0.273 OA
ATOM     19  N   UNL     1      -4.390   0.966  25.296  0.00  0.00    -0.200 NA
BRANCH  19  20
ATOM     20  C   UNL     1      -5.162   1.229  25.173  0.00  0.00    +0.143 C 
BRANCH  20  21
ATOM     21  C   UNL     1      -5.376   1.996  25.392  0.00  0.00    +0.019 A 
ATOM     22  C   UNL     1      -5.175   2.634  24.908  0.00  0.00    +0.001 A 
ATOM     23  C   UNL     1      -5.389   3.400  25.126  0.00  0.00    +0.020 A 
ATOM     24  C   UNL     1      -5.804   3.529  25.827  0.00  0.00    +0.099 A 
ATOM     25  N   UNL     1      -6.006   2.891  26.311  0.00  0.00    -0.243 NA
ATOM     26  C   UNL     1      -5.792   2.125  26.092  0.00  0.00    +0.096 A 
ENDBRANCH  20  21
ENDBRANCH  19  20
ENDBRANCH  16  17
ENDBRANCH  15  16
ENDBRANCH  14  15
TORSDOF 7
ENDMDL
MODEL 10
REMARK VINA RESULT:      -6.1     17.397     19.201
REMARK  Name = 
REMARK  7 active torsions:
REMARK  status: ('A' for Active; 'I' for Inactive)
REMARK    1  A    between atoms: C_3  and  C_4
REMARK    2  A    between atoms: C_4  and  N_5
REMARK    3  A    between atoms: C_14  and  C_15
REMARK    4  A    between atoms: C_15  and  C_16
REMARK    5  A    between atoms: C_16  and  C_17
REMARK    6  A    between atoms: N_19  and  C_20
REMARK    7  A    between atoms: C_20  and  C_21
REMARK                            x       y       z     vdW  Elec       q    Type
REMARK                         _______ _______ _______ _____ _____    ______ ____
ROOT
ATOM      5  N   UNL     1      -5.409  -9.535  11.235  0.00  0.00    -0.259 NA
ATOM      6  C   UNL     1      -4.889  -9.045  10.822  0.00  0.00    +0.074 C 
ATOM      7  C   UNL     1      -5.330  -8.601  10.284  0.00  0.00    +0.035 C 
ATOM      8  C   UNL     1      -6.123  -8.818  10.364  0.00  0.00    +0.083 C 
ATOM      9  C   UNL     1      -6.171  -9.396  10.952  0.00  0.00    +0.152 C 
ATOM     10  C   UNL     1      -6.840  -9.787  11.234  0.00  0.00    +0.257 C 
ATOM     11  O   UNL     1      -6.705 -10.340  11.830  0.00  0.00    -0.272 OA
ATOM     12  N   UNL     1      -7.626  -9.698  10.999  0.00  0.00    -0.203 NA
ATOM     13  C   UNL     1      -7.937  -9.195  10.423  0.00  0.00    +0.131 C 
ATOM     14  C   UNL     1      -7.538  -8.657   9.940  0.00  0.00    +0.080 C 
ATOM     27  N   UNL     1      -6.731  -8.490   9.914  0.00  0.00    -0.271 NA
ATOM     28  C   UNL     1      -6.502  -7.918   9.365  0.00  0.00    +0.090 C 
ENDROOT
BRANCH   5   4
ATOM      4  C   UNL     1      -5.203 -10.072  11.826  0.00  0.00    +0.137 C 
BRANCH   4   3
ATOM      1  C   UNL     1      -4.496 -10.409  13.442  0.00  0.00    +0.132 C 
ATOM      2  N   UNL     1      -4.083 -10.379  12.728  0.00  0.00    -0.312 N 
ATOM      3  C   UNL     1      -4.408 -10.224  11.986  0.00  0.00    +0.137 A 
ATOM     29  N   UNL     1      -3.797 -10.249  11.430  0.00  0.00    -0.230 NA
ATOM     30  C   UNL     1      -3.096 -10.419  11.830  0.00  0.00    +0.098 A 
ATOM     31  C   UNL     1      -3.272 -10.500  12.632  0.00  0.00    +0.079 A 
ATOM     32  C   UNL     1      -2.672 -10.672  13.171  0.00  0.00    +0.019 A 
ATOM     33  C   UNL     1      -1.895 -10.764  12.908  0.00  0.00    +0.002 A 
ATOM     34  C   UNL     1      -1.719 -10.684  12.106  0.00  0.00    +0.002 A 
ATOM     35  C   UNL     1      -2.320 -10.511  11.567  0.00  0.00    +0.021 A 
ENDBRANCH   4   3
ENDBRANCH   5   4
BRANCH  14  15
ATOM     15  C   UNL     1      -8.009  -8.231   9.414  0.00  0.00    +0.027 C 
BRANCH  15  16
ATOM     16  C   UNL     1      -8.749  -8.523   9.192  0.00  0.00    +0.088 C 
BRANCH  16  17
ATOM     17  C   UNL     1      -9.253  -8.062   8.731  0.00  0.00    +0.242 C 
ATOM     18  O   UNL     1      -9.690  -8.409   8.124  0.00  0.00    -0.273 OA
ATOM     19  N   UNL     1      -9.321  -7.253   8.877  0.00  0.00    -0.200 NA
BRANCH  19  20
ATOM     20  C   UNL     1      -9.826  -6.792   8.416  0.00  0.00    +0.143 C 
BRANCH  20  21
ATOM     21  C   UNL     1      -9.930  -5.992   8.592  0.00  0.00    +0.019 A 
ATOM     22  C   UNL     1     -10.615  -5.740   8.976  0.00  0.00    +0.001 A 
ATOM     23  C   UNL     1     -10.719  -4.941   9.152  0.00  0.00    +0.020 A 
ATOM     24  C   UNL     1     -10.138  -4.393   8.944  0.00  0.00    +0.099 A 
ATOM     25  N   UNL     1      -9.453  -4.645   8.560  0.00  0.00    -0.243 NA
ATOM     26  C   UNL     1      -9.348  -5.445   8.384  0.00  0.00    +0.096 A 
ENDBRANCH  20  21
ENDBRANCH  19  20
ENDBRANCH  16  17
ENDBRANCH  15  16
ENDBRANCH  14  15
TORSDOF 7
ENDMDL
