MODEL 1
REMARK VINA RESULT:     -14.1      0.000      0.000
REMARK  Name = 
REMARK  4 active torsions:
REMARK  status: ('A' for Active; 'I' for Inactive)
REMARK    1  A    between atoms: C_4  and  C_8
REMARK    2  A    between atoms: C_11  and  C_13
REMARK    3  A    between atoms: C_19  and  C_21
REMARK    4  A    between atoms: C_26  and  C_27
REMARK                            x       y       z     vdW  Elec       q    Type
REMARK                         _______ _______ _______ _____ _____    ______ ____
ROOT
ATOM     13  C   UNL     1      -3.918   1.855  24.655  0.00  0.00    +0.161 C 
ATOM     14  C   UNL     1      -4.700   2.026  24.852  0.00  0.00    +0.077 C 
ATOM     15  C   UNL     1      -4.888   2.739  25.221  0.00  0.00    +0.078 A 
ATOM     16  C   UNL     1      -4.291   3.283  25.393  0.00  0.00    +0.094 A 
ATOM     17  C   UNL     1      -3.508   3.113  25.196  0.00  0.00    +0.141 C 
ATOM     18  N   UNL     1      -3.322   2.399  24.827  0.00  0.00    -0.263 N 
ATOM     19  C   UNL     1      -2.539   2.229  24.630  0.00  0.00    +0.250 C 
ATOM     20  O   UNL     1      -2.353   1.515  24.260  0.00  0.00    -0.270 OA
ATOM     30  N   UNL     1      -4.639   3.936  25.757  0.00  0.00    -0.225 NA
ATOM     31  C   UNL     1      -5.450   3.797  25.810  0.00  0.00    +0.198 A 
ATOM     32  N   UNL     1      -5.603   3.057  25.479  0.00  0.00    -0.227 NA
ENDROOT
BRANCH  19  21
ATOM     21  C   UNL     1      -1.943   2.773  24.802  0.00  0.00    +0.060 A 
ATOM     22  C   UNL     1      -2.027   3.561  24.577  0.00  0.00    +0.005 A 
ATOM     23  C   UNL     1      -1.430   4.105  24.749  0.00  0.00    +0.000 A 
ATOM     24  C   UNL     1      -0.750   3.860  25.146  0.00  0.00    +0.000 A 
ATOM     25  C   UNL     1      -0.667   3.070  25.371  0.00  0.00    +0.007 A 
ATOM     26  C   UNL     1      -1.263   2.526  25.199  0.00  0.00    +0.084 A 
BRANCH  26  27
ATOM     27  C   UNL     1      -1.179   1.738  25.424  0.00  0.00    +0.388 C 
ATOM     28  O   UNL     1      -0.790   1.206  24.928  0.00  0.00    -0.241 OA
ATOM     29  O   UNL     1      -1.484   1.479  26.146  0.00  0.00    -0.241 OA
ENDBRANCH  26  27
ENDBRANCH  19  21
BRANCH  13  11
ATOM      8  C   UNL     1      -3.582  -0.163  24.047  0.00  0.00    +0.203 A 
ATOM      9  N   UNL     1      -3.307   0.249  23.388  0.00  0.00    -0.056 NA
ATOM     10  O   UNL     1      -3.399   1.057  23.535  0.00  0.00    -0.335 OA
ATOM     11  C   UNL     1      -3.732   1.142  24.286  0.00  0.00    +0.255 A 
ATOM     12  N   UNL     1      -3.845   0.389  24.601  0.00  0.00    -0.189 NA
BRANCH   8   4
ATOM      1  C   UNL     1      -2.336  -2.573  24.944  0.00  0.00    +0.031 C 
ATOM      2  C   UNL     1      -2.971  -2.189  24.584  0.00  0.00    -0.022 A 
ATOM      3  C   UNL     1      -2.959  -1.368  24.495  0.00  0.00    -0.001 A 
ATOM      4  C   UNL     1      -3.593  -0.983  24.136  0.00  0.00    +0.039 A 
ATOM      5  C   UNL     1      -4.241  -1.418  23.865  0.00  0.00    +0.003 A 
ATOM      6  C   UNL     1      -4.252  -2.239  23.955  0.00  0.00    -0.000 A 
ATOM      7  C   UNL     1      -3.617  -2.623  24.314  0.00  0.00    -0.004 A 
ENDBRANCH   8   4
ENDBRANCH  13  11
TORSDOF 4
ENDMDL
MODEL 2
REMARK VINA RESULT:     -13.8      1.505      2.893
REMARK  Name = 
REMARK  4 active torsions:
REMARK  status: ('A' for Active; 'I' for Inactive)
REMARK    1  A    between atoms: C_4  and  C_8
REMARK    2  A    between atoms: C_11  and  C_13
REMARK    3  A    between atoms: C_19  and  C_21
REMARK    4  A    between atoms: C_26  and  C_27
REMARK                            x       y       z     vdW  Elec       q    Type
REMARK                         _______ _______ _______ _____ _____    ______ ____
ROOT
ATOM     13  C   UNL     1      -1.726   1.053  24.781  0.00  0.00    +0.161 C 
ATOM     14  C   UNL     1      -0.952   0.844  24.592  0.00  0.00    +0.077 C 
ATOM     15  C   UNL     1      -0.395   1.429  24.423  0.00  0.00    +0.078 A 
ATOM     16  C   UNL     1      -0.614   2.225  24.443  0.00  0.00    +0.094 A 
ATOM     17  C   UNL     1      -1.390   2.434  24.632  0.00  0.00    +0.141 C 
ATOM     18  N   UNL     1      -1.945   1.849  24.801  0.00  0.00    -0.263 N 
ATOM     19  C   UNL     1      -2.720   2.059  24.990  0.00  0.00    +0.250 C 
ATOM     20  O   UNL     1      -3.277   1.473  25.159  0.00  0.00    -0.270 OA
ATOM     30  N   UNL     1       0.049   2.677  24.252  0.00  0.00    -0.225 NA
ATOM     31  C   UNL     1       0.678   2.161  24.115  0.00  0.00    +0.198 A 
ATOM     32  N   UNL     1       0.403   1.391  24.220  0.00  0.00    -0.227 NA
ENDROOT
BRANCH  19  21
ATOM     21  C   UNL     1      -2.940   2.854  25.010  0.00  0.00    +0.060 A 
ATOM     22  C   UNL     1      -2.570   3.370  25.536  0.00  0.00    +0.005 A 
ATOM     23  C   UNL     1      -2.790   4.165  25.556  0.00  0.00    +0.000 A 
ATOM     24  C   UNL     1      -3.378   4.444  25.050  0.00  0.00    +0.000 A 
ATOM     25  C   UNL     1      -3.747   3.927  24.523  0.00  0.00    +0.007 A 
ATOM     26  C   UNL     1      -3.528   3.132  24.503  0.00  0.00    +0.084 A 
BRANCH  26  27
ATOM     27  C   UNL     1      -3.897   2.616  23.976  0.00  0.00    +0.388 C 
ATOM     28  O   UNL     1      -4.585   2.219  24.202  0.00  0.00    -0.241 OA
ATOM     29  O   UNL     1      -3.580   2.495  23.224  0.00  0.00    -0.241 OA
ENDBRANCH  26  27
ENDBRANCH  19  21
BRANCH  13  11
ATOM      8  C   UNL     1      -3.080  -0.596  24.836  0.00  0.00    +0.203 A 
ATOM      9  N   UNL     1      -3.196  -0.270  25.584  0.00  0.00    -0.056 NA
ATOM     10  O   UNL     1      -2.703   0.388  25.656  0.00  0.00    -0.335 OA
ATOM     11  C   UNL     1      -2.282   0.469  24.950  0.00  0.00    +0.255 A 
ATOM     12  N   UNL     1      -2.516  -0.139  24.444  0.00  0.00    -0.189 NA
BRANCH   8   4
ATOM      1  C   UNL     1      -3.351  -3.436  24.672  0.00  0.00    +0.031 C 
ATOM      2  C   UNL     1      -3.598  -2.681  24.450  0.00  0.00    -0.022 A 
ATOM      3  C   UNL     1      -3.215  -2.016  24.754  0.00  0.00    -0.001 A 
ATOM      4  C   UNL     1      -3.462  -1.261  24.532  0.00  0.00    +0.039 A 
ATOM      5  C   UNL     1      -4.091  -1.170  24.005  0.00  0.00    +0.003 A 
ATOM      6  C   UNL     1      -4.473  -1.836  23.701  0.00  0.00    -0.000 A 
ATOM      7  C   UNL     1      -4.226  -2.591  23.923  0.00  0.00    -0.004 A 
ENDBRANCH   8   4
ENDBRANCH  13  11
TORSDOF 4
ENDMDL
MODEL 3
REMARK VINA RESULT:     -13.4      1.064      4.170
REMARK  Name = 
REMARK  4 active torsions:
REMARK  status: ('A' for Active; 'I' for Inactive)
REMARK    1  A    between atoms: C_4  and  C_8
REMARK    2  A    between atoms: C_11  and  C_13
REMARK    3  A    between atoms: C_19  and  C_21
REMARK    4  A    between atoms: C_26  and  C_27
REMARK                            x       y       z     vdW  Elec       q    Type
REMARK                         _______ _______ _______ _____ _____    ______ ____
ROOT
ATOM     13  C   UNL     1      -3.837   1.580  24.573  0.00  0.00    +0.161 C 
ATOM     14  C   UNL     1      -4.440   2.115  24.748  0.00  0.00    +0.077 C 
ATOM     15  C   UNL     1      -5.199   1.841  24.919  0.00  0.00    +0.078 A 
ATOM     16  C   UNL     1      -5.355   1.031  24.915  0.00  0.00    +0.094 A 
ATOM     17  C   UNL     1      -4.752   0.495  24.741  0.00  0.00    +0.141 C 
ATOM     18  N   UNL     1      -3.994   0.770  24.570  0.00  0.00    -0.263 N 
ATOM     19  C   UNL     1      -3.391   0.234  24.395  0.00  0.00    +0.250 C 
ATOM     20  O   UNL     1      -2.632   0.509  24.224  0.00  0.00    -0.270 OA
ATOM     30  N   UNL     1      -6.151   0.924  25.104  0.00  0.00    -0.225 NA
ATOM     31  C   UNL     1      -6.486   1.668  25.224  0.00  0.00    +0.198 A 
ATOM     32  N   UNL     1      -5.898   2.234  25.110  0.00  0.00    -0.227 NA
ENDROOT
BRANCH  19  21
ATOM     21  C   UNL     1      -3.548  -0.576  24.392  0.00  0.00    +0.060 A 
ATOM     22  C   UNL     1      -4.118  -0.883  23.882  0.00  0.00    +0.005 A 
ATOM     23  C   UNL     1      -4.274  -1.693  23.878  0.00  0.00    +0.000 A 
ATOM     24  C   UNL     1      -3.860  -2.196  24.385  0.00  0.00    +0.000 A 
ATOM     25  C   UNL     1      -3.290  -1.888  24.896  0.00  0.00    +0.007 A 
ATOM     26  C   UNL     1      -3.133  -1.078  24.899  0.00  0.00    +0.084 A 
BRANCH  26  27
ATOM     27  C   UNL     1      -2.563  -0.770  25.409  0.00  0.00    +0.388 C 
ATOM     28  O   UNL     1      -2.779  -0.521  26.166  0.00  0.00    -0.241 OA
ATOM     29  O   UNL     1      -1.778  -0.712  25.164  0.00  0.00    -0.241 OA
ENDBRANCH  26  27
ENDBRANCH  19  21
BRANCH  13  11
ATOM      8  C   UNL     1      -1.900   2.474  24.501  0.00  0.00    +0.203 A 
ATOM      9  N   UNL     1      -1.920   2.079  23.777  0.00  0.00    -0.056 NA
ATOM     10  O   UNL     1      -2.649   1.696  23.716  0.00  0.00    -0.335 OA
ATOM     11  C   UNL     1      -3.079   1.854  24.402  0.00  0.00    +0.255 A 
ATOM     12  N   UNL     1      -2.616   2.335  24.887  0.00  0.00    -0.189 NA
BRANCH   8   4
ATOM      1  C   UNL     1      -0.674   5.022  24.910  0.00  0.00    +0.031 C 
ATOM      2  C   UNL     1      -0.661   4.202  24.993  0.00  0.00    -0.022 A 
ATOM      3  C   UNL     1      -1.287   3.748  24.705  0.00  0.00    -0.001 A 
ATOM      4  C   UNL     1      -1.274   2.928  24.789  0.00  0.00    +0.039 A 
ATOM      5  C   UNL     1      -0.635   2.560  25.160  0.00  0.00    +0.003 A 
ATOM      6  C   UNL     1      -0.009   3.015  25.448  0.00  0.00    -0.000 A 
ATOM      7  C   UNL     1      -0.022   3.835  25.365  0.00  0.00    -0.004 A 
ENDBRANCH   8   4
ENDBRANCH  13  11
TORSDOF 4
ENDMDL
MODEL 4
REMARK VINA RESULT:     -13.1      2.018      5.319
REMARK  Name = 
REMARK  4 active torsions:
REMARK  status: ('A' for Active; 'I' for Inactive)
REMARK    1  A    between atoms: C_4  and  C_8
REMARK    2  A    between atoms: C_11  and  C_13
REMARK    3  A    between atoms: C_19  and  C_21
REMARK    4  A    between atoms: C_26  and  C_27
REMARK                            x       y       z     vdW  Elec       q    Type
REMARK                         _______ _______ _______ _____ _____    ______ ____
ROOT
ATOM     13  C   UNL     1      -0.372   0.995  24.527  0.00  0.00    +0.161 C 
ATOM     14  C   UNL     1       0.304   1.125  24.074  0.00  0.00    +0.077 C 
ATOM     15  C   UNL     1       0.589   0.531  23.576  0.00  0.00    +0.078 A 
ATOM     16  C   UNL     1       0.196  -0.193  23.533  0.00  0.00    +0.094 A 
ATOM     17  C   UNL     1      -0.481  -0.324  23.987  0.00  0.00    +0.141 C 
ATOM     18  N   UNL     1      -0.764   0.270  24.484  0.00  0.00    -0.263 N 
ATOM     19  C   UNL     1      -1.441   0.140  24.937  0.00  0.00    +0.250 C 
ATOM     20  O   UNL     1      -1.725   0.734  25.435  0.00  0.00    -0.270 OA
ATOM     30  N   UNL     1       0.602  -0.672  22.998  0.00  0.00    -0.225 NA
ATOM     31  C   UNL     1       1.245  -0.244  22.710  0.00  0.00    +0.198 A 
ATOM     32  N   UNL     1       1.237   0.499  23.068  0.00  0.00    -0.227 NA
ENDROOT
BRANCH  19  21
ATOM     21  C   UNL     1      -1.834  -0.585  24.894  0.00  0.00    +0.060 A 
ATOM     22  C   UNL     1      -1.432  -1.283  25.070  0.00  0.00    +0.005 A 
ATOM     23  C   UNL     1      -1.824  -2.007  25.027  0.00  0.00    +0.000 A 
ATOM     24  C   UNL     1      -2.619  -2.033  24.807  0.00  0.00    +0.000 A 
ATOM     25  C   UNL     1      -3.021  -1.334  24.631  0.00  0.00    +0.007 A 
ATOM     26  C   UNL     1      -2.629  -0.610  24.674  0.00  0.00    +0.084 A 
BRANCH  26  27
ATOM     27  C   UNL     1      -3.031   0.088  24.498  0.00  0.00    +0.388 C 
ATOM     28  O   UNL     1      -3.442   0.488  25.091  0.00  0.00    -0.241 OA
ATOM     29  O   UNL     1      -3.022   0.387  23.729  0.00  0.00    -0.241 OA
ENDBRANCH  26  27
ENDBRANCH  19  21
BRANCH  13  11
ATOM      8  C   UNL     1      -1.186   2.733  25.461  0.00  0.00    +0.203 A 
ATOM      9  N   UNL     1      -1.000   2.272  26.118  0.00  0.00    -0.056 NA
ATOM     10  O   UNL     1      -0.673   1.563  25.849  0.00  0.00    -0.335 OA
ATOM     11  C   UNL     1      -0.656   1.588  25.024  0.00  0.00    +0.255 A 
ATOM     12  N   UNL     1      -0.973   2.311  24.785  0.00  0.00    -0.189 NA
BRANCH   8   4
ATOM      1  C   UNL     1      -1.047   5.523  24.857  0.00  0.00    +0.031 C 
ATOM      2  C   UNL     1      -1.456   4.881  25.174  0.00  0.00    -0.022 A 
ATOM      3  C   UNL     1      -1.116   4.128  25.159  0.00  0.00    -0.001 A 
ATOM      4  C   UNL     1      -1.524   3.486  25.475  0.00  0.00    +0.039 A 
ATOM      5  C   UNL     1      -2.272   3.594  25.807  0.00  0.00    +0.003 A 
ATOM      6  C   UNL     1      -2.611   4.346  25.822  0.00  0.00    -0.000 A 
ATOM      7  C   UNL     1      -2.203   4.989  25.505  0.00  0.00    -0.004 A 
ENDBRANCH   8   4
ENDBRANCH  13  11
TORSDOF 4
ENDMDL
MODEL 5
REMARK VINA RESULT:     -13.0      1.646      4.793
REMARK  Name = 
REMARK  4 active torsions:
REMARK  status: ('A' for Active; 'I' for Inactive)
REMARK    1  A    between atoms: C_4  and  C_8
REMARK    2  A    between atoms: C_11  and  C_13
REMARK    3  A    between atoms: C_19  and  C_21
REMARK    4  A    between atoms: C_26  and  C_27
REMARK                            x       y       z     vdW  Elec       q    Type
REMARK                         _______ _______ _______ _____ _____    ______ ____
ROOT
ATOM     13  C   UNL     1      -2.058   0.558  24.072  0.00  0.00    +0.161 C 
ATOM     14  C   UNL     1      -1.299   0.850  23.933  0.00  0.00    +0.077 C 
ATOM     15  C   UNL     1      -0.649   0.342  23.962  0.00  0.00    +0.078 A 
ATOM     16  C   UNL     1      -0.759  -0.458  24.131  0.00  0.00    +0.094 A 
ATOM     17  C   UNL     1      -1.519  -0.751  24.270  0.00  0.00    +0.141 C 
ATOM     18  N   UNL     1      -2.167  -0.242  24.240  0.00  0.00    -0.263 N 
ATOM     19  C   UNL     1      -2.926  -0.535  24.379  0.00  0.00    +0.250 C 
ATOM     20  O   UNL     1      -3.576  -0.026  24.350  0.00  0.00    -0.270 OA
ATOM     30  N   UNL     1      -0.020  -0.824  24.123  0.00  0.00    -0.225 NA
ATOM     31  C   UNL     1       0.546  -0.250  23.950  0.00  0.00    +0.198 A 
ATOM     32  N   UNL     1       0.157   0.470  23.851  0.00  0.00    -0.227 NA
ENDROOT
BRANCH  19  21
ATOM     21  C   UNL     1      -3.036  -1.335  24.548  0.00  0.00    +0.060 A 
ATOM     22  C   UNL     1      -2.846  -1.905  23.983  0.00  0.00    +0.005 A 
ATOM     23  C   UNL     1      -2.956  -2.705  24.152  0.00  0.00    +0.000 A 
ATOM     24  C   UNL     1      -3.255  -2.935  24.886  0.00  0.00    +0.000 A 
ATOM     25  C   UNL     1      -3.444  -2.364  25.451  0.00  0.00    +0.007 A 
ATOM     26  C   UNL     1      -3.334  -1.564  25.282  0.00  0.00    +0.084 A 
BRANCH  26  27
ATOM     27  C   UNL     1      -3.523  -0.994  25.847  0.00  0.00    +0.388 C 
ATOM     28  O   UNL     1      -2.964  -0.770  26.411  0.00  0.00    -0.241 OA
ATOM     29  O   UNL     1      -4.272  -0.647  25.850  0.00  0.00    -0.241 OA
ENDBRANCH  26  27
ENDBRANCH  19  21
BRANCH  13  11
ATOM      8  C   UNL     1      -3.580   2.030  24.343  0.00  0.00    +0.203 A 
ATOM      9  N   UNL     1      -3.833   1.665  23.649  0.00  0.00    -0.056 NA
ATOM     10  O   UNL     1      -3.294   1.068  23.462  0.00  0.00    -0.335 OA
ATOM     11  C   UNL     1      -2.707   1.065  24.042  0.00  0.00    +0.255 A 
ATOM     12  N   UNL     1      -2.883   1.660  24.586  0.00  0.00    -0.189 NA
BRANCH   8   4
ATOM      1  C   UNL     1      -5.825   3.066  25.775  0.00  0.00    +0.031 C 
ATOM      2  C   UNL     1      -5.078   3.174  25.444  0.00  0.00    -0.022 A 
ATOM      3  C   UNL     1      -4.703   2.548  25.059  0.00  0.00    -0.001 A 
ATOM      4  C   UNL     1      -3.955   2.656  24.728  0.00  0.00    +0.039 A 
ATOM      5  C   UNL     1      -3.582   3.390  24.782  0.00  0.00    +0.003 A 
ATOM      6  C   UNL     1      -3.957   4.016  25.167  0.00  0.00    -0.000 A 
ATOM      7  C   UNL     1      -4.705   3.908  25.497  0.00  0.00    -0.004 A 
ENDBRANCH   8   4
ENDBRANCH  13  11
TORSDOF 4
ENDMDL
