MODEL 1
REMARK VINA RESULT:     -10.7      0.000      0.000
REMARK  Name = 
REMARK  5 active torsions:
REMARK  status: ('A' for Active; 'I' for Inactive)
REMARK    1  A    between atoms: C_2  and  C_4
REMARK    2  A    between atoms: C_6  and  C_7
REMARK    3  A    between atoms: C_7  and  C_8
REMARK    4  A    between atoms: C_11  and  C_13
REMARK    5  A    between atoms: C_22  and  C_23
REMARK                            x       y       z     vdW  Elec       q    Type
REMARK                         _______ _______ _______ _____ _____    ______ ____
ROOT
ATOM      4  C   UNL     1      -2.242  -0.989  25.064  0.00  0.00    +0.007 C 
ATOM      5  C   UNL     1      -2.911  -0.508  25.072  0.00  0.00    +0.005 C 
ATOM      6  C   UNL     1      -3.607  -0.764  24.710  0.00  0.00    +0.027 C 
ATOM     19  C   UNL     1      -3.634  -1.500  24.340  0.00  0.00    -0.048 C 
ATOM     20  C   UNL     1      -4.330  -1.756  23.978  0.00  0.00    +0.026 C 
ATOM     21  C   UNL     1      -2.963  -1.982  24.332  0.00  0.00    -0.032 C 
ATOM     22  C   UNL     1      -2.267  -1.726  24.694  0.00  0.00    +0.054 C 
ENDROOT
BRANCH   4   2
ATOM      1  C   UNL     1      -0.955  -0.372  24.977  0.00  0.00    +0.000 C 
ATOM      2  C   UNL     1      -1.546  -0.734  25.426  0.00  0.00    +0.000 C 
ATOM      3  C   UNL     1      -1.440  -0.839  26.237  0.00  0.00    +0.000 C 
ENDBRANCH   4   2
BRANCH  22  23
ATOM     23  C   UNL     1      -1.598  -2.207  24.686  0.00  0.00    +0.186 C 
ATOM     24  O   UNL     1      -1.616  -2.935  24.297  0.00  0.00    -0.220 OA
ENDBRANCH  22  23
BRANCH   6   7
ATOM      7  C   UNL     1      -4.278  -0.283  24.718  0.00  0.00    +0.091 C 
BRANCH   7   8
ATOM      8  C   UNL     1      -4.206   0.528  24.582  0.00  0.00    +0.227 A 
ATOM      9  N   UNL     1      -4.002   0.883  23.866  0.00  0.00    -0.111 NA
ATOM     10  N   UNL     1      -3.996   1.700  23.979  0.00  0.00    -0.106 NA
ATOM     11  C   UNL     1      -4.196   1.850  24.765  0.00  0.00    +0.267 A 
ATOM     12  O   UNL     1      -4.326   1.125  25.138  0.00  0.00    -0.418 OA
BRANCH  11  13
ATOM     13  C   UNL     1      -4.256   2.593  25.118  0.00  0.00    +0.136 A 
ATOM     14  C   UNL     1      -4.954   2.959  25.361  0.00  0.00    +0.123 A 
ATOM     15  N   UNL     1      -4.759   3.693  25.682  0.00  0.00    -0.222 NA
ATOM     16  C   UNL     1      -3.940   3.781  25.637  0.00  0.00    +0.179 A 
ATOM     17  N   UNL     1      -3.629   3.101  25.289  0.00  0.00    -0.303 N 
ATOM     18  C   UNL     1      -2.832   2.955  25.138  0.00  0.00    +0.132 C 
ENDBRANCH  11  13
ENDBRANCH   7   8
ENDBRANCH   6   7
TORSDOF 5
ENDMDL
MODEL 2
REMARK VINA RESULT:     -10.6      2.108      3.065
REMARK  Name = 
REMARK  5 active torsions:
REMARK  status: ('A' for Active; 'I' for Inactive)
REMARK    1  A    between atoms: C_2  and  C_4
REMARK    2  A    between atoms: C_6  and  C_7
REMARK    3  A    between atoms: C_7  and  C_8
REMARK    4  A    between atoms: C_11  and  C_13
REMARK    5  A    between atoms: C_22  and  C_23
REMARK                            x       y       z     vdW  Elec       q    Type
REMARK                         _______ _______ _______ _____ _____    ______ ____
ROOT
ATOM      4  C   UNL     1      -3.392  -0.804  24.673  0.00  0.00    +0.007 C 
ATOM      5  C   UNL     1      -2.663  -0.585  24.991  0.00  0.00    +0.005 C 
ATOM      6  C   UNL     1      -2.043  -1.129  25.011  0.00  0.00    +0.027 C 
ATOM     19  C   UNL     1      -2.151  -1.891  24.714  0.00  0.00    -0.048 C 
ATOM     20  C   UNL     1      -1.531  -2.434  24.735  0.00  0.00    +0.026 C 
ATOM     21  C   UNL     1      -2.881  -2.109  24.396  0.00  0.00    -0.032 C 
ATOM     22  C   UNL     1      -3.502  -1.566  24.376  0.00  0.00    +0.054 C 
ENDROOT
BRANCH   4   2
ATOM      1  C   UNL     1      -4.485  -0.148  25.320  0.00  0.00    +0.000 C 
ATOM      2  C   UNL     1      -4.013  -0.261  24.653  0.00  0.00    +0.000 C 
ATOM      3  C   UNL     1      -4.161   0.171  23.966  0.00  0.00    +0.000 C 
ENDBRANCH   4   2
BRANCH  22  23
ATOM     23  C   UNL     1      -4.230  -1.784  24.058  0.00  0.00    +0.186 C 
ATOM     24  O   UNL     1      -4.344  -2.550  23.773  0.00  0.00    -0.220 OA
ENDBRANCH  22  23
BRANCH   6   7
ATOM      7  C   UNL     1      -1.314  -0.911  25.329  0.00  0.00    +0.091 C 
BRANCH   7   8
ATOM      8  C   UNL     1      -0.970  -0.191  25.119  0.00  0.00    +0.227 A 
ATOM      9  N   UNL     1      -0.523  -0.047  24.440  0.00  0.00    -0.111 NA
ATOM     10  N   UNL     1      -0.289   0.745  24.452  0.00  0.00    -0.106 NA
ATOM     11  C   UNL     1      -0.593   1.090  25.137  0.00  0.00    +0.267 A 
ATOM     12  O   UNL     1      -1.013   0.511  25.549  0.00  0.00    -0.418 OA
BRANCH  11  13
ATOM     13  C   UNL     1      -0.493   1.875  25.370  0.00  0.00    +0.136 A 
ATOM     14  C   UNL     1      -0.064   2.135  26.025  0.00  0.00    +0.123 A 
ATOM     15  N   UNL     1      -0.111   2.958  26.049  0.00  0.00    -0.222 NA
ATOM     16  C   UNL     1      -0.569   3.206  25.409  0.00  0.00    +0.179 A 
ATOM     17  N   UNL     1      -0.805   2.537  24.990  0.00  0.00    -0.303 N 
ATOM     18  C   UNL     1      -1.270   2.531  24.309  0.00  0.00    +0.132 C 
ENDBRANCH  11  13
ENDBRANCH   7   8
ENDBRANCH   6   7
TORSDOF 5
ENDMDL
MODEL 3
REMARK VINA RESULT:     -10.5      1.786      4.413
REMARK  Name = 
REMARK  5 active torsions:
REMARK  status: ('A' for Active; 'I' for Inactive)
REMARK    1  A    between atoms: C_2  and  C_4
REMARK    2  A    between atoms: C_6  and  C_7
REMARK    3  A    between atoms: C_7  and  C_8
REMARK    4  A    between atoms: C_11  and  C_13
REMARK    5  A    between atoms: C_22  and  C_23
REMARK                            x       y       z     vdW  Elec       q    Type
REMARK                         _______ _______ _______ _____ _____    ______ ____
ROOT
ATOM      4  C   UNL     1      -3.505   2.071  23.957  0.00  0.00    +0.007 C 
ATOM      5  C   UNL     1      -3.812   1.320  24.105  0.00  0.00    +0.005 C 
ATOM      6  C   UNL     1      -4.513   1.238  24.533  0.00  0.00    +0.027 C 
ATOM     19  C   UNL     1      -4.907   1.906  24.813  0.00  0.00    -0.048 C 
ATOM     20  C   UNL     1      -5.607   1.824  25.240  0.00  0.00    +0.026 C 
ATOM     21  C   UNL     1      -4.599   2.658  24.664  0.00  0.00    -0.032 C 
ATOM     22  C   UNL     1      -3.898   2.740  24.237  0.00  0.00    +0.054 C 
ENDROOT
BRANCH   4   2
ATOM      1  C   UNL     1      -2.089   2.266  23.926  0.00  0.00    +0.000 C 
ATOM      2  C   UNL     1      -2.805   2.153  23.529  0.00  0.00    +0.000 C 
ATOM      3  C   UNL     1      -2.818   2.121  22.705  0.00  0.00    +0.000 C 
ENDBRANCH   4   2
BRANCH  22  23
ATOM     23  C   UNL     1      -3.591   3.491  24.089  0.00  0.00    +0.186 C 
ATOM     24  O   UNL     1      -3.971   4.159  24.388  0.00  0.00    -0.220 OA
ENDBRANCH  22  23
BRANCH   6   7
ATOM      7  C   UNL     1      -4.821   0.487  24.681  0.00  0.00    +0.091 C 
BRANCH   7   8
ATOM      8  C   UNL     1      -4.325  -0.118  24.944  0.00  0.00    +0.227 A 
ATOM      9  N   UNL     1      -4.073  -0.235  25.721  0.00  0.00    -0.111 NA
ATOM     10  N   UNL     1      -3.587  -0.902  25.733  0.00  0.00    -0.106 NA
ATOM     11  C   UNL     1      -3.539  -1.197  24.964  0.00  0.00    +0.267 A 
ATOM     12  O   UNL     1      -3.996  -0.712  24.476  0.00  0.00    -0.418 OA
BRANCH  11  13
ATOM     13  C   UNL     1      -3.110  -1.859  24.724  0.00  0.00    +0.136 A 
ATOM     14  C   UNL     1      -3.428  -2.584  24.492  0.00  0.00    +0.123 A 
ATOM     15  N   UNL     1      -2.804  -3.086  24.299  0.00  0.00    -0.222 NA
ATOM     16  C   UNL     1      -2.099  -2.672  24.411  0.00  0.00    +0.179 A 
ATOM     17  N   UNL     1      -2.289  -1.914  24.674  0.00  0.00    -0.303 N 
ATOM     18  C   UNL     1      -1.751  -1.315  24.855  0.00  0.00    +0.132 C 
ENDBRANCH  11  13
ENDBRANCH   7   8
ENDBRANCH   6   7
TORSDOF 5
ENDMDL
MODEL 4
REMARK VINA RESULT:     -10.3      2.079      4.128
REMARK  Name = 
REMARK  5 active torsions:
REMARK  status: ('A' for Active; 'I' for Inactive)
REMARK    1  A    between atoms: C_2  and  C_4
REMARK    2  A    between atoms: C_6  and  C_7
REMARK    3  A    between atoms: C_7  and  C_8
REMARK    4  A    between atoms: C_11  and  C_13
REMARK    5  A    between atoms: C_22  and  C_23
REMARK                            x       y       z     vdW  Elec       q    Type
REMARK                         _______ _______ _______ _____ _____    ______ ____
ROOT
ATOM      4  C   UNL     1      -4.176   2.097  24.628  0.00  0.00    +0.007 C 
ATOM      5  C   UNL     1      -3.554   1.602  24.408  0.00  0.00    +0.005 C 
ATOM      6  C   UNL     1      -3.649   0.783  24.437  0.00  0.00    +0.027 C 
ATOM     19  C   UNL     1      -4.365   0.459  24.686  0.00  0.00    -0.048 C 
ATOM     20  C   UNL     1      -4.460  -0.360  24.714  0.00  0.00    +0.026 C 
ATOM     21  C   UNL     1      -4.988   0.955  24.906  0.00  0.00    -0.032 C 
ATOM     22  C   UNL     1      -4.893   1.774  24.878  0.00  0.00    +0.054 C 
ENDROOT
BRANCH   4   2
ATOM      1  C   UNL     1      -4.170   3.317  23.884  0.00  0.00    +0.000 C 
ATOM      2  C   UNL     1      -4.081   2.916  24.600  0.00  0.00    +0.000 C 
ATOM      3  C   UNL     1      -3.897   3.335  25.286  0.00  0.00    +0.000 C 
ENDBRANCH   4   2
BRANCH  22  23
ATOM     23  C   UNL     1      -5.514   2.268  25.098  0.00  0.00    +0.186 C 
ATOM     24  O   UNL     1      -6.252   1.948  25.285  0.00  0.00    -0.220 OA
ENDBRANCH  22  23
BRANCH   6   7
ATOM      7  C   UNL     1      -3.028   0.288  24.216  0.00  0.00    +0.091 C 
BRANCH   7   8
ATOM      8  C   UNL     1      -2.266   0.429  24.499  0.00  0.00    +0.227 A 
ATOM      9  N   UNL     1      -1.968   0.188  25.231  0.00  0.00    -0.111 NA
ATOM     10  N   UNL     1      -1.186   0.447  25.285  0.00  0.00    -0.106 NA
ATOM     11  C   UNL     1      -1.001   0.847  24.588  0.00  0.00    +0.267 A 
ATOM     12  O   UNL     1      -1.668   0.836  24.102  0.00  0.00    -0.418 OA
BRANCH  11  13
ATOM     13  C   UNL     1      -0.276   1.197  24.407  0.00  0.00    +0.136 A 
ATOM     14  C   UNL     1      -0.012   1.930  24.676  0.00  0.00    +0.123 A 
ATOM     15  N   UNL     1       0.739   2.062  24.361  0.00  0.00    -0.222 NA
ATOM     16  C   UNL     1       0.939   1.409  23.897  0.00  0.00    +0.179 A 
ATOM     17  N   UNL     1       0.311   0.875  23.926  0.00  0.00    -0.303 N 
ATOM     18  C   UNL     1       0.278   0.147  23.541  0.00  0.00    +0.132 C 
ENDBRANCH  11  13
ENDBRANCH   7   8
ENDBRANCH   6   7
TORSDOF 5
ENDMDL
