MODEL 1
REMARK VINA RESULT:     -11.5      0.000      0.000
REMARK  Name = 
REMARK  2 active torsions:
REMARK  status: ('A' for Active; 'I' for Inactive)
REMARK    1  A    between atoms: C_5  and  N_8
REMARK    2  A    between atoms: C_11  and  C_13
REMARK                            x       y       z     vdW  Elec       q    Type
REMARK                         _______ _______ _______ _____ _____    ______ ____
ROOT
ATOM      8  N   UNL     1      -3.499   2.196  24.879  0.00  0.00    -0.273 NA
ATOM      9  C   UNL     1      -4.318   2.180  24.778  0.00  0.00    +0.073 C 
ATOM     10  C   UNL     1      -4.549   1.392  24.695  0.00  0.00    +0.026 C 
ATOM     11  C   UNL     1      -3.873   0.921  24.745  0.00  0.00    +0.076 C 
ATOM     12  C   UNL     1      -3.224   1.418  24.859  0.00  0.00    +0.080 C 
ENDROOT
BRANCH  11  13
ATOM     13  C   UNL     1      -3.850   0.098  24.691  0.00  0.00    +0.140 A 
ATOM     14  N   UNL     1      -3.508  -0.415  25.239  0.00  0.00    -0.229 NA
ATOM     15  C   UNL     1      -3.612  -1.186  24.966  0.00  0.00    +0.100 A 
ATOM     16  C   UNL     1      -4.018  -1.150  24.248  0.00  0.00    +0.100 A 
ATOM     17  N   UNL     1      -4.165  -0.357  24.078  0.00  0.00    -0.229 NA
ATOM     18  C   UNL     1      -4.200  -1.845  23.843  0.00  0.00    +0.021 A 
ATOM     19  C   UNL     1      -3.978  -2.575  24.154  0.00  0.00    +0.002 A 
ATOM     20  C   UNL     1      -3.572  -2.611  24.872  0.00  0.00    +0.002 A 
ATOM     21  C   UNL     1      -3.389  -1.917  25.278  0.00  0.00    +0.021 A 
ENDBRANCH  11  13
BRANCH   8   5
ATOM      1  C   UNL     1      -1.647   4.896  25.293  0.00  0.00    +0.090 C 
ATOM      2  N   UNL     1      -2.110   4.220  25.190  0.00  0.00    -0.271 NA
ATOM      3  C   UNL     1      -1.936   3.689  24.584  0.00  0.00    +0.074 C 
ATOM      4  C   UNL     1      -2.399   3.015  24.480  0.00  0.00    +0.033 C 
ATOM      5  C   UNL     1      -3.036   2.870  24.983  0.00  0.00    +0.060 C 
ATOM      6  C   UNL     1      -3.211   3.402  25.590  0.00  0.00    +0.033 C 
ATOM      7  C   UNL     1      -2.748   4.077  25.693  0.00  0.00    +0.074 C 
ENDBRANCH   8   5
TORSDOF 2
ENDMDL
MODEL 2
REMARK VINA RESULT:     -11.1      0.763      4.893
REMARK  Name = 
REMARK  2 active torsions:
REMARK  status: ('A' for Active; 'I' for Inactive)
REMARK    1  A    between atoms: C_5  and  N_8
REMARK    2  A    between atoms: C_11  and  C_13
REMARK                            x       y       z     vdW  Elec       q    Type
REMARK                         _______ _______ _______ _____ _____    ______ ____
ROOT
ATOM      8  N   UNL     1      -3.732   0.500  24.749  0.00  0.00    -0.273 NA
ATOM      9  C   UNL     1      -4.401   0.981  24.713  0.00  0.00    +0.073 C 
ATOM     10  C   UNL     1      -4.153   1.766  24.770  0.00  0.00    +0.026 C 
ATOM     11  C   UNL     1      -3.331   1.770  24.840  0.00  0.00    +0.076 C 
ATOM     12  C   UNL     1      -3.071   0.988  24.828  0.00  0.00    +0.080 C 
ENDROOT
BRANCH  11  13
ATOM     13  C   UNL     1      -2.853   2.439  24.911  0.00  0.00    +0.140 A 
ATOM     14  N   UNL     1      -2.071   2.505  24.660  0.00  0.00    -0.229 NA
ATOM     15  C   UNL     1      -1.809   3.266  24.840  0.00  0.00    +0.100 A 
ATOM     16  C   UNL     1      -2.430   3.671  25.202  0.00  0.00    +0.100 A 
ATOM     17  N   UNL     1      -3.075   3.160  25.246  0.00  0.00    -0.229 NA
ATOM     18  C   UNL     1      -2.326   4.453  25.444  0.00  0.00    +0.021 A 
ATOM     19  C   UNL     1      -1.603   4.830  25.325  0.00  0.00    +0.002 A 
ATOM     20  C   UNL     1      -0.982   4.425  24.962  0.00  0.00    +0.002 A 
ATOM     21  C   UNL     1      -1.084   3.643  24.720  0.00  0.00    +0.021 A 
ENDBRANCH  11  13
BRANCH   8   5
ATOM      1  C   UNL     1      -3.703  -2.797  24.603  0.00  0.00    +0.090 C 
ATOM      2  N   UNL     1      -3.710  -1.973  24.640  0.00  0.00    -0.271 NA
ATOM      3  C   UNL     1      -3.955  -1.533  23.986  0.00  0.00    +0.074 C 
ATOM      4  C   UNL     1      -3.962  -0.709  24.023  0.00  0.00    +0.033 C 
ATOM      5  C   UNL     1      -3.725  -0.324  24.713  0.00  0.00    +0.060 C 
ATOM      6  C   UNL     1      -3.480  -0.764  25.367  0.00  0.00    +0.033 C 
ATOM      7  C   UNL     1      -3.473  -1.589  25.330  0.00  0.00    +0.074 C 
ENDBRANCH   8   5
TORSDOF 2
ENDMDL
MODEL 3
REMARK VINA RESULT:     -10.6      1.365      1.801
REMARK  Name = 
REMARK  2 active torsions:
REMARK  status: ('A' for Active; 'I' for Inactive)
REMARK    1  A    between atoms: C_5  and  N_8
REMARK    2  A    between atoms: C_11  and  C_13
REMARK                            x       y       z     vdW  Elec       q    Type
REMARK                         _______ _______ _______ _____ _____    ______ ____
ROOT
ATOM      8  N   UNL     1      -4.157   1.703  24.519  0.00  0.00    -0.273 NA
ATOM      9  C   UNL     1      -3.594   1.699  23.915  0.00  0.00    +0.073 C 
ATOM     10  C   UNL     1      -3.371   0.916  23.780  0.00  0.00    +0.026 C 
ATOM     11  C   UNL     1      -3.797   0.436  24.301  0.00  0.00    +0.076 C 
ATOM     12  C   UNL     1      -4.282   0.923  24.757  0.00  0.00    +0.080 C 
ENDROOT
BRANCH  11  13
ATOM     13  C   UNL     1      -3.745  -0.386  24.355  0.00  0.00    +0.140 A 
ATOM     14  N   UNL     1      -3.302  -0.808  24.906  0.00  0.00    -0.229 NA
ATOM     15  C   UNL     1      -3.411  -1.612  24.759  0.00  0.00    +0.100 A 
ATOM     16  C   UNL     1      -3.922  -1.687  24.116  0.00  0.00    +0.100 A 
ATOM     17  N   UNL     1      -4.129  -0.929  23.866  0.00  0.00    -0.229 NA
ATOM     18  C   UNL     1      -4.133  -2.436  23.842  0.00  0.00    +0.021 A 
ATOM     19  C   UNL     1      -3.833  -3.110  24.210  0.00  0.00    +0.002 A 
ATOM     20  C   UNL     1      -3.322  -3.035  24.853  0.00  0.00    +0.002 A 
ATOM     21  C   UNL     1      -3.110  -2.287  25.128  0.00  0.00    +0.021 A 
ENDBRANCH  11  13
BRANCH   8   5
ATOM      1  C   UNL     1      -5.648   4.371  25.763  0.00  0.00    +0.090 C 
ATOM      2  N   UNL     1      -5.275   3.704  25.452  0.00  0.00    -0.271 NA
ATOM      3  C   UNL     1      -5.676   2.984  25.421  0.00  0.00    +0.074 C 
ATOM      4  C   UNL     1      -5.304   2.317  25.110  0.00  0.00    +0.033 C 
ATOM      5  C   UNL     1      -4.529   2.370  24.830  0.00  0.00    +0.060 C 
ATOM      6  C   UNL     1      -4.128   3.091  24.861  0.00  0.00    +0.033 C 
ATOM      7  C   UNL     1      -4.501   3.758  25.172  0.00  0.00    +0.074 C 
ENDBRANCH   8   5
TORSDOF 2
ENDMDL
MODEL 4
REMARK VINA RESULT:      -9.5      1.628      4.423
REMARK  Name = 
REMARK  2 active torsions:
REMARK  status: ('A' for Active; 'I' for Inactive)
REMARK    1  A    between atoms: C_5  and  N_8
REMARK    2  A    between atoms: C_11  and  C_13
REMARK                            x       y       z     vdW  Elec       q    Type
REMARK                         _______ _______ _______ _____ _____    ______ ____
ROOT
ATOM      8  N   UNL     1      -2.982  -0.530  24.705  0.00  0.00    -0.273 NA
ATOM      9  C   UNL     1      -3.640  -0.765  24.265  0.00  0.00    +0.073 C 
ATOM     10  C   UNL     1      -4.195  -0.154  24.290  0.00  0.00    +0.026 C 
ATOM     11  C   UNL     1      -3.880   0.458  24.746  0.00  0.00    +0.076 C 
ATOM     12  C   UNL     1      -3.131   0.226  25.001  0.00  0.00    +0.080 C 
ENDROOT
BRANCH  11  13
ATOM     13  C   UNL     1      -4.250   1.176  24.915  0.00  0.00    +0.140 A 
ATOM     14  N   UNL     1      -4.970   1.270  25.305  0.00  0.00    -0.229 NA
ATOM     15  C   UNL     1      -5.129   2.078  25.355  0.00  0.00    +0.100 A 
ATOM     16  C   UNL     1      -4.507   2.483  24.995  0.00  0.00    +0.100 A 
ATOM     17  N   UNL     1      -3.963   1.926  24.723  0.00  0.00    -0.229 NA
ATOM     18  C   UNL     1      -4.516   3.307  24.963  0.00  0.00    +0.021 A 
ATOM     19  C   UNL     1      -5.147   3.726  25.288  0.00  0.00    +0.002 A 
ATOM     20  C   UNL     1      -5.769   3.321  25.648  0.00  0.00    +0.002 A 
ATOM     21  C   UNL     1      -5.761   2.497  25.681  0.00  0.00    +0.021 A 
ENDBRANCH  11  13
BRANCH   8   5
ATOM      1  C   UNL     1      -0.240  -2.300  25.190  0.00  0.00    +0.090 C 
ATOM      2  N   UNL     1      -0.926  -1.857  25.069  0.00  0.00    -0.271 NA
ATOM      3  C   UNL     1      -1.592  -2.211  24.736  0.00  0.00    +0.074 C 
ATOM      4  C   UNL     1      -2.277  -1.769  24.614  0.00  0.00    +0.033 C 
ATOM      5  C   UNL     1      -2.297  -0.972  24.826  0.00  0.00    +0.060 C 
ATOM      6  C   UNL     1      -1.630  -0.618  25.160  0.00  0.00    +0.033 C 
ATOM      7  C   UNL     1      -0.944  -1.061  25.281  0.00  0.00    +0.074 C 
ENDBRANCH   8   5
TORSDOF 2
ENDMDL
MODEL 5
REMARK VINA RESULT:      -9.0      2.390      3.911
REMARK  Name = 
REMARK  2 active torsions:
REMARK  status: ('A' for Active; 'I' for Inactive)
REMARK    1  A    between atoms: C_5  and  N_8
REMARK    2  A    between atoms: C_11  and  C_13
REMARK                            x       y       z     vdW  Elec       q    Type
REMARK                         _______ _______ _______ _____ _____    ______ ____
ROOT
ATOM      8  N   UNL     1      -1.720   0.151  24.500  0.00  0.00    -0.273 NA
ATOM      9  C   UNL     1      -2.072  -0.428  24.972  0.00  0.00    +0.073 C 
ATOM     10  C   UNL     1      -2.814  -0.150  25.204  0.00  0.00    +0.026 C 
ATOM     11  C   UNL     1      -2.920   0.600  24.876  0.00  0.00    +0.076 C 
ATOM     12  C   UNL     1      -2.244   0.785  24.441  0.00  0.00    +0.080 C 
ENDROOT
BRANCH  11  13
ATOM     13  C   UNL     1      -3.585   1.079  24.966  0.00  0.00    +0.140 A 
ATOM     14  N   UNL     1      -3.582   1.886  25.137  0.00  0.00    -0.229 NA
ATOM     15  C   UNL     1      -4.364   2.141  25.179  0.00  0.00    +0.100 A 
ATOM     16  C   UNL     1      -4.852   1.492  25.034  0.00  0.00    +0.100 A 
ATOM     17  N   UNL     1      -4.371   0.836  24.902  0.00  0.00    -0.229 NA
ATOM     18  C   UNL     1      -5.672   1.583  25.040  0.00  0.00    +0.021 A 
ATOM     19  C   UNL     1      -6.004   2.323  25.191  0.00  0.00    +0.002 A 
ATOM     20  C   UNL     1      -5.517   2.972  25.336  0.00  0.00    +0.002 A 
ATOM     21  C   UNL     1      -4.697   2.882  25.330  0.00  0.00    +0.021 A 
ENDBRANCH  11  13
BRANCH   8   5
ATOM      1  C   UNL     1       1.261  -0.040  23.097  0.00  0.00    +0.090 C 
ATOM      2  N   UNL     1       0.515   0.008  23.448  0.00  0.00    -0.271 NA
ATOM      3  C   UNL     1       0.111   0.726  23.462  0.00  0.00    +0.074 C 
ATOM      4  C   UNL     1      -0.634   0.774  23.813  0.00  0.00    +0.033 C 
ATOM      5  C   UNL     1      -0.975   0.103  24.149  0.00  0.00    +0.060 C 
ATOM      6  C   UNL     1      -0.570  -0.617  24.135  0.00  0.00    +0.033 C 
ATOM      7  C   UNL     1       0.175  -0.664  23.784  0.00  0.00    +0.074 C 
ENDBRANCH   8   5
TORSDOF 2
ENDMDL
MODEL 6
REMARK VINA RESULT:      -8.2      2.323      3.201
REMARK  Name = 
REMARK  2 active torsions:
REMARK  status: ('A' for Active; 'I' for Inactive)
REMARK    1  A    between atoms: C_5  and  N_8
REMARK    2  A    between atoms: C_11  and  C_13
REMARK                            x       y       z     vdW  Elec       q    Type
REMARK                         _______ _______ _______ _____ _____    ______ ____
ROOT
ATOM      8  N   UNL     1      -3.002   2.622  24.976  0.00  0.00    -0.273 NA
ATOM      9  C   UNL     1      -2.372   3.155  24.980  0.00  0.00    +0.073 C 
ATOM     10  C   UNL     1      -1.686   2.741  24.784  0.00  0.00    +0.026 C 
ATOM     11  C   UNL     1      -1.892   1.952  24.658  0.00  0.00    +0.076 C 
ATOM     12  C   UNL     1      -2.704   1.878  24.777  0.00  0.00    +0.080 C 
ENDROOT
BRANCH  11  13
ATOM     13  C   UNL     1      -1.375   1.343  24.450  0.00  0.00    +0.140 A 
ATOM     14  N   UNL     1      -0.778   1.387  23.882  0.00  0.00    -0.229 NA
ATOM     15  C   UNL     1      -0.399   0.656  23.854  0.00  0.00    +0.100 A 
ATOM     16  C   UNL     1      -0.761   0.159  24.405  0.00  0.00    +0.100 A 
ATOM     17  N   UNL     1      -1.364   0.584  24.773  0.00  0.00    -0.229 NA
ATOM     18  C   UNL     1      -0.494  -0.616  24.500  0.00  0.00    +0.021 A 
ATOM     19  C   UNL     1       0.135  -0.894  24.044  0.00  0.00    +0.002 A 
ATOM     20  C   UNL     1       0.497  -0.398  23.493  0.00  0.00    +0.002 A 
ATOM     21  C   UNL     1       0.230   0.377  23.398  0.00  0.00    +0.021 A 
ENDBRANCH  11  13
BRANCH   8   5
ATOM      1  C   UNL     1      -6.155   3.334  25.639  0.00  0.00    +0.090 C 
ATOM      2  N   UNL     1      -5.367   3.156  25.474  0.00  0.00    -0.271 NA
ATOM      3  C   UNL     1      -5.177   2.467  25.063  0.00  0.00    +0.074 C 
ATOM      4  C   UNL     1      -4.389   2.289  24.897  0.00  0.00    +0.033 C 
ATOM      5  C   UNL     1      -3.790   2.800  25.142  0.00  0.00    +0.060 C 
ATOM      6  C   UNL     1      -3.980   3.490  25.553  0.00  0.00    +0.033 C 
ATOM      7  C   UNL     1      -4.768   3.668  25.719  0.00  0.00    +0.074 C 
ENDBRANCH   8   5
TORSDOF 2
ENDMDL
