MODEL 1
REMARK VINA RESULT:     -12.5      0.000      0.000
REMARK  Name = 
REMARK  5 active torsions:
REMARK  status: ('A' for Active; 'I' for Inactive)
REMARK    1  A    between atoms: O_2  and  C_3
REMARK    2  A    between atoms: C_6  and  C_7
REMARK    3  A    between atoms: C_7  and  N_8
REMARK    4  A    between atoms: C_13  and  C_14
REMARK    5  A    between atoms: C_16  and  C_19
REMARK                            x       y       z     vdW  Elec       q    Type
REMARK                         _______ _______ _______ _____ _____    ______ ____
ROOT
ATOM      8  N   UNL     1      -4.006   2.301  25.084  0.00  0.00    -0.260 NA
ATOM      9  C   UNL     1      -4.474   2.897  25.409  0.00  0.00    +0.106 C 
ATOM     10  C   UNL     1      -5.259   2.641  25.393  0.00  0.00    +0.170 C 
ATOM     11  O   UNL     1      -5.913   3.064  25.664  0.00  0.00    -0.222 OA
ATOM     12  C   UNL     1      -5.274   1.887  25.057  0.00  0.00    +0.060 C 
ATOM     13  C   UNL     1      -4.499   1.677  24.866  0.00  0.00    +0.140 C 
ENDROOT
BRANCH  13  14
ATOM     14  C   UNL     1      -4.261   0.969  24.519  0.00  0.00    +0.251 A 
ATOM     15  N   UNL     1      -4.238   0.231  24.888  0.00  0.00    -0.190 NA
ATOM     16  C   UNL     1      -3.966  -0.321  24.339  0.00  0.00    +0.203 A 
ATOM     17  N   UNL     1      -3.820   0.075  23.631  0.00  0.00    -0.056 NA
ATOM     18  O   UNL     1      -4.002   0.871  23.742  0.00  0.00    -0.336 OA
BRANCH  16  19
ATOM     19  C   UNL     1      -3.858  -1.128  24.475  0.00  0.00    +0.039 A 
ATOM     20  C   UNL     1      -3.452  -1.382  25.146  0.00  0.00    +0.005 A 
ATOM     21  C   UNL     1      -3.344  -2.189  25.281  0.00  0.00    +0.030 A 
ATOM     22  C   UNL     1      -3.643  -2.741  24.746  0.00  0.00    +0.140 A 
ATOM     23  F   UNL     1      -3.536  -3.548  24.882  0.00  0.00    -0.204 F 
ATOM     24  C   UNL     1      -4.050  -2.487  24.075  0.00  0.00    +0.030 A 
ATOM     25  C   UNL     1      -4.157  -1.680  23.939  0.00  0.00    +0.005 A 
ENDBRANCH  16  19
ENDBRANCH  13  14
BRANCH   8   7
ATOM      7  C   UNL     1      -3.187   2.325  24.992  0.00  0.00    +0.100 C 
BRANCH   7   6
ATOM      3  C   UNL     1      -1.972   4.465  25.266  0.00  0.00    +0.139 A 
ATOM      4  C   UNL     1      -2.018   3.933  25.895  0.00  0.00    +0.037 A 
ATOM      5  C   UNL     1      -2.422   3.220  25.804  0.00  0.00    +0.000 A 
ATOM      6  C   UNL     1      -2.782   3.039  25.083  0.00  0.00    -0.006 A 
ATOM     26  C   UNL     1      -2.736   3.571  24.455  0.00  0.00    +0.000 A 
ATOM     27  C   UNL     1      -2.331   4.284  24.547  0.00  0.00    +0.037 A 
BRANCH   3   2
ATOM      1  C   UNL     1      -0.866   5.310  24.943  0.00  0.00    +0.252 C 
ATOM      2  O   UNL     1      -1.568   5.177  25.358  0.00  0.00    -0.471 OA
ENDBRANCH   3   2
ENDBRANCH   7   6
ENDBRANCH   8   7
TORSDOF 5
ENDMDL
MODEL 2
REMARK VINA RESULT:     -12.5      2.119      5.079
REMARK  Name = 
REMARK  5 active torsions:
REMARK  status: ('A' for Active; 'I' for Inactive)
REMARK    1  A    between atoms: O_2  and  C_3
REMARK    2  A    between atoms: C_6  and  C_7
REMARK    3  A    between atoms: C_7  and  N_8
REMARK    4  A    between atoms: C_13  and  C_14
REMARK    5  A    between atoms: C_16  and  C_19
REMARK                            x       y       z     vdW  Elec       q    Type
REMARK                         _______ _______ _______ _____ _____    ______ ____
ROOT
ATOM      8  N   UNL     1      -4.511   1.235  24.913  0.00  0.00    -0.260 NA
ATOM      9  C   UNL     1      -5.176   0.929  25.293  0.00  0.00    +0.106 C 
ATOM     10  C   UNL     1      -5.622   1.563  25.576  0.00  0.00    +0.170 C 
ATOM     11  O   UNL     1      -6.333   1.509  25.991  0.00  0.00    -0.222 OA
ATOM     12  C   UNL     1      -5.233   2.261  25.370  0.00  0.00    +0.060 C 
ATOM     13  C   UNL     1      -4.546   2.057  24.960  0.00  0.00    +0.140 C 
ENDROOT
BRANCH  13  14
ATOM     14  C   UNL     1      -3.991   2.584  24.651  0.00  0.00    +0.251 A 
ATOM     15  N   UNL     1      -3.354   2.912  25.060  0.00  0.00    -0.190 NA
ATOM     16  C   UNL     1      -2.945   3.406  24.542  0.00  0.00    +0.203 A 
ATOM     17  N   UNL     1      -3.329   3.384  23.813  0.00  0.00    -0.056 NA
ATOM     18  O   UNL     1      -3.975   2.877  23.880  0.00  0.00    -0.336 OA
BRANCH  16  19
ATOM     19  C   UNL     1      -2.270   3.846  24.721  0.00  0.00    +0.039 A 
ATOM     20  C   UNL     1      -1.522   3.524  24.589  0.00  0.00    +0.005 A 
ATOM     21  C   UNL     1      -0.847   3.963  24.769  0.00  0.00    +0.030 A 
ATOM     22  C   UNL     1      -0.920   4.724  25.080  0.00  0.00    +0.140 A 
ATOM     23  F   UNL     1      -0.245   5.163  25.259  0.00  0.00    -0.204 F 
ATOM     24  C   UNL     1      -1.668   5.046  25.212  0.00  0.00    +0.030 A 
ATOM     25  C   UNL     1      -2.343   4.606  25.032  0.00  0.00    +0.005 A 
ENDBRANCH  16  19
ENDBRANCH  13  14
BRANCH   8   7
ATOM      7  C   UNL     1      -3.916   0.795  24.549  0.00  0.00    +0.100 C 
BRANCH   7   6
ATOM      3  C   UNL     1      -3.768  -1.645  24.937  0.00  0.00    +0.139 A 
ATOM      4  C   UNL     1      -3.424  -1.121  25.473  0.00  0.00    +0.037 A 
ATOM      5  C   UNL     1      -3.474  -0.308  25.344  0.00  0.00    +0.000 A 
ATOM      6  C   UNL     1      -3.867  -0.019  24.678  0.00  0.00    -0.006 A 
ATOM     26  C   UNL     1      -4.210  -0.544  24.142  0.00  0.00    +0.000 A 
ATOM     27  C   UNL     1      -4.160  -1.357  24.272  0.00  0.00    +0.037 A 
BRANCH   3   2
ATOM      1  C   UNL     1      -3.350  -2.943  24.509  0.00  0.00    +0.252 C 
ATOM      2  O   UNL     1      -3.718  -2.458  25.066  0.00  0.00    -0.471 OA
ENDBRANCH   3   2
ENDBRANCH   7   6
ENDBRANCH   8   7
TORSDOF 5
ENDMDL
MODEL 3
REMARK VINA RESULT:     -12.3      2.901      5.822
REMARK  Name = 
REMARK  5 active torsions:
REMARK  status: ('A' for Active; 'I' for Inactive)
REMARK    1  A    between atoms: O_2  and  C_3
REMARK    2  A    between atoms: C_6  and  C_7
REMARK    3  A    between atoms: C_7  and  N_8
REMARK    4  A    between atoms: C_13  and  C_14
REMARK    5  A    between atoms: C_16  and  C_19
REMARK                            x       y       z     vdW  Elec       q    Type
REMARK                         _______ _______ _______ _____ _____    ______ ____
ROOT
ATOM      8  N   UNL     1      -1.300   0.185  24.828  0.00  0.00    -0.260 NA
ATOM      9  C   UNL     1      -1.018  -0.454  24.387  0.00  0.00    +0.106 C 
ATOM     10  C   UNL     1      -0.253  -0.272  24.137  0.00  0.00    +0.170 C 
ATOM     11  O   UNL     1       0.235  -0.755  23.681  0.00  0.00    -0.222 OA
ATOM     12  C   UNL     1      -0.063   0.478  24.423  0.00  0.00    +0.060 C 
ATOM     13  C   UNL     1      -0.710   0.760  24.850  0.00  0.00    +0.140 C 
ENDROOT
BRANCH  13  14
ATOM     14  C   UNL     1      -0.759   1.489  25.232  0.00  0.00    +0.251 A 
ATOM     15  N   UNL     1      -0.994   2.202  24.888  0.00  0.00    -0.190 NA
ATOM     16  C   UNL     1      -0.961   2.788  25.468  0.00  0.00    +0.203 A 
ATOM     17  N   UNL     1      -0.707   2.437  26.170  0.00  0.00    -0.056 NA
ATOM     18  O   UNL     1      -0.583   1.636  26.024  0.00  0.00    -0.336 OA
BRANCH  16  19
ATOM     19  C   UNL     1      -1.150   3.584  25.365  0.00  0.00    +0.039 A 
ATOM     20  C   UNL     1      -1.883   3.870  25.614  0.00  0.00    +0.005 A 
ATOM     21  C   UNL     1      -2.072   4.667  25.510  0.00  0.00    +0.030 A 
ATOM     22  C   UNL     1      -1.528   5.177  25.157  0.00  0.00    +0.140 A 
ATOM     23  F   UNL     1      -1.717   5.973  25.053  0.00  0.00    -0.204 F 
ATOM     24  C   UNL     1      -0.796   4.891  24.908  0.00  0.00    +0.030 A 
ATOM     25  C   UNL     1      -0.607   4.094  25.012  0.00  0.00    +0.005 A 
ENDBRANCH  16  19
ENDBRANCH  13  14
BRANCH   8   7
ATOM      7  C   UNL     1      -2.042   0.237  25.184  0.00  0.00    +0.100 C 
BRANCH   7   6
ATOM      3  C   UNL     1      -3.880  -1.245  24.439  0.00  0.00    +0.139 A 
ATOM      4  C   UNL     1      -3.395  -1.472  25.067  0.00  0.00    +0.037 A 
ATOM      5  C   UNL     1      -2.783  -0.979  25.315  0.00  0.00    +0.000 A 
ATOM      6  C   UNL     1      -2.655  -0.257  24.936  0.00  0.00    -0.006 A 
ATOM     26  C   UNL     1      -3.140  -0.030  24.308  0.00  0.00    +0.000 A 
ATOM     27  C   UNL     1      -3.753  -0.524  24.060  0.00  0.00    +0.037 A 
BRANCH   3   2
ATOM      1  C   UNL     1      -4.320  -2.448  23.806  0.00  0.00    +0.252 C 
ATOM      2  O   UNL     1      -4.492  -1.738  24.192  0.00  0.00    -0.471 OA
ENDBRANCH   3   2
ENDBRANCH   7   6
ENDBRANCH   8   7
TORSDOF 5
ENDMDL
MODEL 4
REMARK VINA RESULT:     -11.7      2.108      2.889
REMARK  Name = 
REMARK  5 active torsions:
REMARK  status: ('A' for Active; 'I' for Inactive)
REMARK    1  A    between atoms: O_2  and  C_3
REMARK    2  A    between atoms: C_6  and  C_7
REMARK    3  A    between atoms: C_7  and  N_8
REMARK    4  A    between atoms: C_13  and  C_14
REMARK    5  A    between atoms: C_16  and  C_19
REMARK                            x       y       z     vdW  Elec       q    Type
REMARK                         _______ _______ _______ _____ _____    ______ ____
ROOT
ATOM      8  N   UNL     1      -0.920   1.363  24.894  0.00  0.00    -0.260 NA
ATOM      9  C   UNL     1      -0.266   1.750  24.574  0.00  0.00    +0.106 C 
ATOM     10  C   UNL     1       0.199   1.188  24.189  0.00  0.00    +0.170 C 
ATOM     11  O   UNL     1       0.906   1.334  23.791  0.00  0.00    -0.222 OA
ATOM     12  C   UNL     1      -0.169   0.454  24.272  0.00  0.00    +0.060 C 
ATOM     13  C   UNL     1      -0.861   0.563  24.708  0.00  0.00    +0.140 C 
ENDROOT
BRANCH  13  14
ATOM     14  C   UNL     1      -1.398  -0.026  24.920  0.00  0.00    +0.251 A 
ATOM     15  N   UNL     1      -1.953  -0.379  24.422  0.00  0.00    -0.190 NA
ATOM     16  C   UNL     1      -2.372  -0.936  24.862  0.00  0.00    +0.203 A 
ATOM     17  N   UNL     1      -2.077  -0.928  25.631  0.00  0.00    -0.056 NA
ATOM     18  O   UNL     1      -1.476  -0.366  25.668  0.00  0.00    -0.336 OA
BRANCH  16  19
ATOM     19  C   UNL     1      -2.981  -1.418  24.580  0.00  0.00    +0.039 A 
ATOM     20  C   UNL     1      -3.661  -1.078  24.261  0.00  0.00    +0.005 A 
ATOM     21  C   UNL     1      -4.270  -1.559  23.980  0.00  0.00    +0.030 A 
ATOM     22  C   UNL     1      -4.197  -2.380  24.018  0.00  0.00    +0.140 A 
ATOM     23  F   UNL     1      -4.806  -2.862  23.737  0.00  0.00    -0.204 F 
ATOM     24  C   UNL     1      -3.517  -2.720  24.337  0.00  0.00    +0.030 A 
ATOM     25  C   UNL     1      -2.909  -2.239  24.618  0.00  0.00    +0.005 A 
ENDBRANCH  16  19
ENDBRANCH  13  14
BRANCH   8   7
ATOM      7  C   UNL     1      -1.528   1.716  25.326  0.00  0.00    +0.100 C 
BRANCH   7   6
ATOM      3  C   UNL     1      -1.763   4.181  25.347  0.00  0.00    +0.139 A 
ATOM      4  C   UNL     1      -2.191   3.730  24.804  0.00  0.00    +0.037 A 
ATOM      5  C   UNL     1      -2.113   2.909  24.797  0.00  0.00    +0.000 A 
ATOM      6  C   UNL     1      -1.607   2.538  25.333  0.00  0.00    -0.006 A 
ATOM     26  C   UNL     1      -1.179   2.989  25.876  0.00  0.00    +0.000 A 
ATOM     27  C   UNL     1      -1.258   3.810  25.882  0.00  0.00    +0.037 A 
BRANCH   3   2
ATOM      1  C   UNL     1      -1.276   5.473  24.979  0.00  0.00    +0.252 C 
ATOM      2  O   UNL     1      -1.842   5.001  25.353  0.00  0.00    -0.471 OA
ENDBRANCH   3   2
ENDBRANCH   7   6
ENDBRANCH   8   7
TORSDOF 5
ENDMDL
