MODEL 1
REMARK VINA RESULT:     -10.3      0.000      0.000
REMARK  Name = 
REMARK  8 active torsions:
REMARK  status: ('A' for Active; 'I' for Inactive)
REMARK    1  A    between atoms: O_2  and  C_3
REMARK    2  A    between atoms: C_6  and  C_9
REMARK    3  A    between atoms: C_12  and  C_13
REMARK    4  A    between atoms: C_13  and  C_14
REMARK    5  A    between atoms: C_16  and  C_17
REMARK    6  A    between atoms: C_20  and  C_21
REMARK    7  A    between atoms: C_21  and  N_22
REMARK    8  A    between atoms: N_22  and  C_23
REMARK                            x       y       z     vdW  Elec       q    Type
REMARK                         _______ _______ _______ _____ _____    ______ ____
ROOT
ATOM     14  C   UNL     1      -4.092   2.856  24.527  0.00  0.00    +0.027 C 
ATOM     15  C   UNL     1      -3.968   3.079  25.312  0.00  0.00    +0.005 C 
ATOM     16  C   UNL     1      -3.336   3.573  25.505  0.00  0.00    +0.006 C 
ATOM     20  C   UNL     1      -2.829   3.845  24.915  0.00  0.00    +0.039 C 
ATOM     26  C   UNL     1      -2.953   3.622  24.130  0.00  0.00    -0.033 C 
ATOM     27  C   UNL     1      -3.585   3.128  23.936  0.00  0.00    -0.048 C 
ATOM     28  C   UNL     1      -3.709   2.906  23.152  0.00  0.00    +0.026 C 
ENDROOT
BRANCH  16  17
ATOM     17  C   UNL     1      -3.212   3.796  26.290  0.00  0.00    +0.000 C 
ATOM     18  C   UNL     1      -2.676   3.377  26.757  0.00  0.00    +0.000 C 
ATOM     19  C   UNL     1      -3.624   4.436  26.608  0.00  0.00    +0.000 C 
ENDBRANCH  16  17
BRANCH  14  13
ATOM     13  C   UNL     1      -4.724   2.362  24.334  0.00  0.00    +0.091 C 
BRANCH  13  12
ATOM      9  C   UNL     1      -4.513   0.312  24.892  0.00  0.00    +0.250 A 
ATOM     10  N   UNL     1      -5.136   0.547  25.380  0.00  0.00    -0.107 NA
ATOM     11  N   UNL     1      -5.291   1.344  25.230  0.00  0.00    -0.111 NA
ATOM     12  C   UNL     1      -4.764   1.601  24.650  0.00  0.00    +0.227 A 
ATOM     29  O   UNL     1      -4.283   0.964  24.441  0.00  0.00    -0.420 OA
BRANCH   9   6
ATOM      3  C   UNL     1      -3.512  -1.949  24.799  0.00  0.00    +0.139 A 
ATOM      4  C   UNL     1      -3.376  -1.464  25.453  0.00  0.00    +0.037 A 
ATOM      5  C   UNL     1      -3.710  -0.710  25.484  0.00  0.00    +0.008 A 
ATOM      6  C   UNL     1      -4.179  -0.441  24.861  0.00  0.00    +0.055 A 
ATOM      7  C   UNL     1      -4.315  -0.925  24.207  0.00  0.00    +0.008 A 
ATOM      8  C   UNL     1      -3.981  -1.679  24.176  0.00  0.00    +0.037 A 
BRANCH   3   2
ATOM      1  C   UNL     1      -2.397  -2.798  24.521  0.00  0.00    +0.252 C 
ATOM      2  O   UNL     1      -3.178  -2.703  24.768  0.00  0.00    -0.471 OA
ENDBRANCH   3   2
ENDBRANCH   9   6
ENDBRANCH  13  12
ENDBRANCH  14  13
BRANCH  20  21
ATOM     21  C   UNL     1      -2.197   4.339  25.108  0.00  0.00    +0.093 C 
BRANCH  21  22
ATOM     22  N   UNL     1      -1.664   4.572  24.524  0.00  0.00    -0.219 NA
BRANCH  22  23
ATOM     23  C   UNL     1      -0.982   4.989  24.730  0.00  0.00    +0.073 C 
ATOM     24  C   UNL     1      -0.268   4.589  24.833  0.00  0.00    +0.019 C 
ATOM     25  C   UNL     1      -1.015   5.807  24.834  0.00  0.00    +0.019 C 
ENDBRANCH  22  23
ENDBRANCH  21  22
ENDBRANCH  20  21
TORSDOF 8
ENDMDL
MODEL 2
REMARK VINA RESULT:      -9.6      1.710      5.309
REMARK  Name = 
REMARK  8 active torsions:
REMARK  status: ('A' for Active; 'I' for Inactive)
REMARK    1  A    between atoms: O_2  and  C_3
REMARK    2  A    between atoms: C_6  and  C_9
REMARK    3  A    between atoms: C_12  and  C_13
REMARK    4  A    between atoms: C_13  and  C_14
REMARK    5  A    between atoms: C_16  and  C_17
REMARK    6  A    between atoms: C_20  and  C_21
REMARK    7  A    between atoms: C_21  and  N_22
REMARK    8  A    between atoms: N_22  and  C_23
REMARK                            x       y       z     vdW  Elec       q    Type
REMARK                         _______ _______ _______ _____ _____    ______ ____
ROOT
ATOM     14  C   UNL     1      -4.586   1.600  24.747  0.00  0.00    +0.027 C 
ATOM     15  C   UNL     1      -3.899   1.483  24.304  0.00  0.00    +0.005 C 
ATOM     16  C   UNL     1      -3.636   0.718  24.147  0.00  0.00    +0.006 C 
ATOM     20  C   UNL     1      -4.057   0.069  24.433  0.00  0.00    +0.039 C 
ATOM     26  C   UNL     1      -4.743   0.186  24.876  0.00  0.00    -0.033 C 
ATOM     27  C   UNL     1      -5.008   0.952  25.034  0.00  0.00    -0.048 C 
ATOM     28  C   UNL     1      -5.693   1.069  25.476  0.00  0.00    +0.026 C 
ENDROOT
BRANCH  16  17
ATOM     17  C   UNL     1      -2.949   0.601  23.704  0.00  0.00    +0.000 C 
ATOM     18  C   UNL     1      -2.982   0.625  22.880  0.00  0.00    +0.000 C 
ATOM     19  C   UNL     1      -2.231   0.460  24.085  0.00  0.00    +0.000 C 
ENDBRANCH  16  17
BRANCH  14  13
ATOM     13  C   UNL     1      -4.849   2.366  24.904  0.00  0.00    +0.091 C 
BRANCH  13  12
ATOM      9  C   UNL     1      -3.300   3.731  25.445  0.00  0.00    +0.250 A 
ATOM     10  N   UNL     1      -3.804   3.797  26.095  0.00  0.00    -0.107 NA
ATOM     11  N   UNL     1      -4.446   3.293  25.971  0.00  0.00    -0.111 NA
ATOM     12  C   UNL     1      -4.339   2.917  25.245  0.00  0.00    +0.227 A 
ATOM     29  O   UNL     1      -3.630   3.188  24.920  0.00  0.00    -0.420 OA
BRANCH   9   6
ATOM      3  C   UNL     1      -1.171   4.953  25.127  0.00  0.00    +0.139 A 
ATOM      4  C   UNL     1      -1.890   5.327  24.969  0.00  0.00    +0.037 A 
ATOM      5  C   UNL     1      -2.599   4.920  25.074  0.00  0.00    +0.008 A 
ATOM      6  C   UNL     1      -2.590   4.138  25.339  0.00  0.00    +0.055 A 
ATOM      7  C   UNL     1      -1.873   3.764  25.498  0.00  0.00    +0.008 A 
ATOM      8  C   UNL     1      -1.164   4.172  25.392  0.00  0.00    +0.037 A 
BRANCH   3   2
ATOM      1  C   UNL     1      -0.039   5.276  24.319  0.00  0.00    +0.252 C 
ATOM      2  O   UNL     1      -0.461   5.360  25.022  0.00  0.00    -0.471 OA
ENDBRANCH   3   2
ENDBRANCH   9   6
ENDBRANCH  13  12
ENDBRANCH  14  13
BRANCH  20  21
ATOM     21  C   UNL     1      -3.793  -0.697  24.276  0.00  0.00    +0.093 C 
BRANCH  21  22
ATOM     22  N   UNL     1      -4.206  -1.344  24.578  0.00  0.00    -0.219 NA
BRANCH  22  23
ATOM     23  C   UNL     1      -3.950  -2.111  24.411  0.00  0.00    +0.073 C 
ATOM     24  C   UNL     1      -4.221  -2.498  23.734  0.00  0.00    +0.019 C 
ATOM     25  C   UNL     1      -3.425  -2.490  24.921  0.00  0.00    +0.019 C 
ENDBRANCH  22  23
ENDBRANCH  21  22
ENDBRANCH  20  21
TORSDOF 8
ENDMDL
MODEL 3
REMARK VINA RESULT:      -9.4      2.308      5.894
REMARK  Name = 
REMARK  8 active torsions:
REMARK  status: ('A' for Active; 'I' for Inactive)
REMARK    1  A    between atoms: O_2  and  C_3
REMARK    2  A    between atoms: C_6  and  C_9
REMARK    3  A    between atoms: C_12  and  C_13
REMARK    4  A    between atoms: C_13  and  C_14
REMARK    5  A    between atoms: C_16  and  C_17
REMARK    6  A    between atoms: C_20  and  C_21
REMARK    7  A    between atoms: C_21  and  N_22
REMARK    8  A    between atoms: N_22  and  C_23
REMARK                            x       y       z     vdW  Elec       q    Type
REMARK                         _______ _______ _______ _____ _____    ______ ____
ROOT
ATOM     14  C   UNL     1      -1.197   0.058  24.672  0.00  0.00    +0.027 C 
ATOM     15  C   UNL     1      -1.966   0.358  24.639  0.00  0.00    +0.005 C 
ATOM     16  C   UNL     1      -2.607  -0.159  24.589  0.00  0.00    +0.006 C 
ATOM     20  C   UNL     1      -2.482  -0.973  24.571  0.00  0.00    +0.039 C 
ATOM     26  C   UNL     1      -1.713  -1.272  24.604  0.00  0.00    -0.033 C 
ATOM     27  C   UNL     1      -1.071  -0.756  24.654  0.00  0.00    -0.048 C 
ATOM     28  C   UNL     1      -0.303  -1.056  24.686  0.00  0.00    +0.026 C 
ENDROOT
BRANCH  16  17
ATOM     17  C   UNL     1      -3.376   0.141  24.557  0.00  0.00    +0.000 C 
ATOM     18  C   UNL     1      -3.695   0.380  23.834  0.00  0.00    +0.000 C 
ATOM     19  C   UNL     1      -3.825   0.202  25.247  0.00  0.00    +0.000 C 
ENDBRANCH  16  17
BRANCH  14  13
ATOM     13  C   UNL     1      -0.556   0.575  24.722  0.00  0.00    +0.091 C 
BRANCH  13  12
ATOM      9  C   UNL     1      -0.874   2.549  25.467  0.00  0.00    +0.250 A 
ATOM     10  N   UNL     1      -0.585   2.169  26.141  0.00  0.00    -0.107 NA
ATOM     11  N   UNL     1      -0.430   1.383  25.943  0.00  0.00    -0.111 NA
ATOM     12  C   UNL     1      -0.624   1.277  25.148  0.00  0.00    +0.227 A 
ATOM     29  O   UNL     1      -0.898   1.998  24.854  0.00  0.00    -0.420 OA
BRANCH   9   6
ATOM      3  C   UNL     1      -1.550   4.925  25.316  0.00  0.00    +0.139 A 
ATOM      4  C   UNL     1      -0.826   4.681  25.001  0.00  0.00    +0.037 A 
ATOM      5  C   UNL     1      -0.601   3.889  25.052  0.00  0.00    +0.008 A 
ATOM      6  C   UNL     1      -1.099   3.341  25.417  0.00  0.00    +0.055 A 
ATOM      7  C   UNL     1      -1.821   3.585  25.731  0.00  0.00    +0.008 A 
ATOM      8  C   UNL     1      -2.047   4.377  25.680  0.00  0.00    +0.037 A 
BRANCH   3   2
ATOM      1  C   UNL     1      -1.592   6.156  24.592  0.00  0.00    +0.252 C 
ATOM      2  O   UNL     1      -1.775   5.717  25.265  0.00  0.00    -0.471 OA
ENDBRANCH   3   2
ENDBRANCH   9   6
ENDBRANCH  13  12
ENDBRANCH  14  13
BRANCH  20  21
ATOM     21  C   UNL     1      -3.123  -1.489  24.521  0.00  0.00    +0.093 C 
BRANCH  21  22
ATOM     22  N   UNL     1      -3.005  -2.272  24.290  0.00  0.00    -0.219 NA
BRANCH  22  23
ATOM     23  C   UNL     1      -3.613  -2.823  24.372  0.00  0.00    +0.073 C 
ATOM     24  C   UNL     1      -4.181  -2.903  23.778  0.00  0.00    +0.019 C 
ATOM     25  C   UNL     1      -3.653  -3.295  25.047  0.00  0.00    +0.019 C 
ENDBRANCH  22  23
ENDBRANCH  21  22
ENDBRANCH  20  21
TORSDOF 8
ENDMDL
MODEL 4
REMARK VINA RESULT:      -9.3      1.986      2.710
REMARK  Name = 
REMARK  8 active torsions:
REMARK  status: ('A' for Active; 'I' for Inactive)
REMARK    1  A    between atoms: O_2  and  C_3
REMARK    2  A    between atoms: C_6  and  C_9
REMARK    3  A    between atoms: C_12  and  C_13
REMARK    4  A    between atoms: C_13  and  C_14
REMARK    5  A    between atoms: C_16  and  C_17
REMARK    6  A    between atoms: C_20  and  C_21
REMARK    7  A    between atoms: C_21  and  N_22
REMARK    8  A    between atoms: N_22  and  C_23
REMARK                            x       y       z     vdW  Elec       q    Type
REMARK                         _______ _______ _______ _____ _____    ______ ____
ROOT
ATOM     14  C   UNL     1      -0.837   1.576  25.080  0.00  0.00    +0.027 C 
ATOM     15  C   UNL     1      -1.585   1.694  24.752  0.00  0.00    +0.005 C 
ATOM     16  C   UNL     1      -1.908   2.452  24.724  0.00  0.00    +0.006 C 
ATOM     20  C   UNL     1      -1.484   3.093  25.024  0.00  0.00    +0.039 C 
ATOM     26  C   UNL     1      -0.736   2.975  25.352  0.00  0.00    -0.033 C 
ATOM     27  C   UNL     1      -0.412   2.216  25.380  0.00  0.00    -0.048 C 
ATOM     28  C   UNL     1       0.335   2.098  25.708  0.00  0.00    +0.026 C 
ENDROOT
BRANCH  16  17
ATOM     17  C   UNL     1      -2.656   2.570  24.396  0.00  0.00    +0.000 C 
ATOM     18  C   UNL     1      -2.738   2.659  23.580  0.00  0.00    +0.000 C 
ATOM     19  C   UNL     1      -3.321   2.599  24.884  0.00  0.00    +0.000 C 
ENDBRANCH  16  17
BRANCH  14  13
ATOM     13  C   UNL     1      -0.514   0.817  25.108  0.00  0.00    +0.091 C 
BRANCH  13  12
ATOM      9  C   UNL     1      -1.827  -0.850  25.334  0.00  0.00    +0.250 A 
ATOM     10  N   UNL     1      -1.559  -0.753  26.109  0.00  0.00    -0.107 NA
ATOM     11  N   UNL     1      -1.034  -0.116  26.118  0.00  0.00    -0.111 NA
ATOM     12  C   UNL     1      -0.978   0.180  25.350  0.00  0.00    +0.227 A 
ATOM     29  O   UNL     1      -1.469  -0.274  24.865  0.00  0.00    -0.420 OA
BRANCH   9   6
ATOM      3  C   UNL     1      -3.428  -2.570  24.556  0.00  0.00    +0.139 A 
ATOM      4  C   UNL     1      -3.690  -1.946  25.028  0.00  0.00    +0.037 A 
ATOM      5  C   UNL     1      -3.156  -1.372  25.288  0.00  0.00    +0.008 A 
ATOM      6  C   UNL     1      -2.361  -1.424  25.075  0.00  0.00    +0.055 A 
ATOM      7  C   UNL     1      -2.099  -2.047  24.603  0.00  0.00    +0.008 A 
ATOM      8  C   UNL     1      -2.633  -2.620  24.344  0.00  0.00    +0.037 A 
BRANCH   3   2
ATOM      1  C   UNL     1      -4.428  -3.001  23.632  0.00  0.00    +0.252 C 
ATOM      2  O   UNL     1      -3.962  -3.143  24.297  0.00  0.00    -0.471 OA
ENDBRANCH   3   2
ENDBRANCH   9   6
ENDBRANCH  13  12
ENDBRANCH  14  13
BRANCH  20  21
ATOM     21  C   UNL     1      -1.807   3.851  24.996  0.00  0.00    +0.093 C 
BRANCH  21  22
ATOM     22  N   UNL     1      -1.424   4.476  25.375  0.00  0.00    -0.219 NA
BRANCH  22  23
ATOM     23  C   UNL     1      -1.578   5.254  25.147  0.00  0.00    +0.073 C 
ATOM     24  C   UNL     1      -2.276   5.623  25.387  0.00  0.00    +0.019 C 
ATOM     25  C   UNL     1      -1.035   5.662  24.679  0.00  0.00    +0.019 C 
ENDBRANCH  22  23
ENDBRANCH  21  22
ENDBRANCH  20  21
TORSDOF 8
ENDMDL
MODEL 5
REMARK VINA RESULT:      -9.0      2.910      4.541
REMARK  Name = 
REMARK  8 active torsions:
REMARK  status: ('A' for Active; 'I' for Inactive)
REMARK    1  A    between atoms: O_2  and  C_3
REMARK    2  A    between atoms: C_6  and  C_9
REMARK    3  A    between atoms: C_12  and  C_13
REMARK    4  A    between atoms: C_13  and  C_14
REMARK    5  A    between atoms: C_16  and  C_17
REMARK    6  A    between atoms: C_20  and  C_21
REMARK    7  A    between atoms: C_21  and  N_22
REMARK    8  A    between atoms: N_22  and  C_23
REMARK                            x       y       z     vdW  Elec       q    Type
REMARK                         _______ _______ _______ _____ _____    ______ ____
ROOT
ATOM     14  C   UNL     1      -1.552  -0.413  24.789  0.00  0.00    +0.027 C 
ATOM     15  C   UNL     1      -1.363   0.383  24.677  0.00  0.00    +0.005 C 
ATOM     16  C   UNL     1      -0.685   0.589  24.255  0.00  0.00    +0.006 C 
ATOM     20  C   UNL     1      -0.197   0.002  23.944  0.00  0.00    +0.039 C 
ATOM     26  C   UNL     1      -0.386  -0.794  24.056  0.00  0.00    -0.033 C 
ATOM     27  C   UNL     1      -1.065  -1.001  24.478  0.00  0.00    -0.048 C 
ATOM     28  C   UNL     1      -1.254  -1.796  24.590  0.00  0.00    +0.026 C 
ENDROOT
BRANCH  16  17
ATOM     17  C   UNL     1      -0.495   1.384  24.143  0.00  0.00    +0.000 C 
ATOM     18  C   UNL     1      -0.018   1.775  24.691  0.00  0.00    +0.000 C 
ATOM     19  C   UNL     1      -0.783   1.789  23.483  0.00  0.00    +0.000 C 
ENDBRANCH  16  17
BRANCH  14  13
ATOM     13  C   UNL     1      -2.231  -0.619  25.211  0.00  0.00    +0.091 C 
BRANCH  13  12
ATOM      9  C   UNL     1      -3.998   0.541  24.918  0.00  0.00    +0.250 A 
ATOM     10  N   UNL     1      -4.167  -0.125  24.459  0.00  0.00    -0.107 NA
ATOM     11  N   UNL     1      -3.524  -0.641  24.513  0.00  0.00    -0.111 NA
ATOM     12  C   UNL     1      -2.960  -0.294  25.005  0.00  0.00    +0.227 A 
ATOM     29  O   UNL     1      -3.253   0.436  25.255  0.00  0.00    -0.420 OA
BRANCH   9   6
ATOM      3  C   UNL     1      -5.473   2.504  25.226  0.00  0.00    +0.139 A 
ATOM      4  C   UNL     1      -4.783   2.572  24.777  0.00  0.00    +0.037 A 
ATOM      5  C   UNL     1      -4.292   1.918  24.674  0.00  0.00    +0.008 A 
ATOM      6  C   UNL     1      -4.490   1.195  25.021  0.00  0.00    +0.055 A 
ATOM      7  C   UNL     1      -5.178   1.127  25.469  0.00  0.00    +0.008 A 
ATOM      8  C   UNL     1      -5.670   1.782  25.572  0.00  0.00    +0.037 A 
BRANCH   3   2
ATOM      1  C   UNL     1      -5.646   3.880  25.569  0.00  0.00    +0.252 C 
ATOM      2  O   UNL     1      -5.965   3.159  25.329  0.00  0.00    -0.471 OA
ENDBRANCH   3   2
ENDBRANCH   9   6
ENDBRANCH  13  12
ENDBRANCH  14  13
BRANCH  20  21
ATOM     21  C   UNL     1       0.481   0.208  23.522  0.00  0.00    +0.093 C 
BRANCH  21  22
ATOM     22  N   UNL     1       0.962  -0.381  23.202  0.00  0.00    -0.219 NA
BRANCH  22  23
ATOM     23  C   UNL     1       1.573  -0.179  22.685  0.00  0.00    +0.073 C 
ATOM     24  C   UNL     1       2.281   0.123  22.981  0.00  0.00    +0.019 C 
ATOM     25  C   UNL     1       1.475  -0.280  21.872  0.00  0.00    +0.019 C 
ENDBRANCH  22  23
ENDBRANCH  21  22
ENDBRANCH  20  21
TORSDOF 8
ENDMDL
MODEL 6
REMARK VINA RESULT:      -9.0      2.137      3.552
REMARK  Name = 
REMARK  8 active torsions:
REMARK  status: ('A' for Active; 'I' for Inactive)
REMARK    1  A    between atoms: O_2  and  C_3
REMARK    2  A    between atoms: C_6  and  C_9
REMARK    3  A    between atoms: C_12  and  C_13
REMARK    4  A    between atoms: C_13  and  C_14
REMARK    5  A    between atoms: C_16  and  C_17
REMARK    6  A    between atoms: C_20  and  C_21
REMARK    7  A    between atoms: C_21  and  N_22
REMARK    8  A    between atoms: N_22  and  C_23
REMARK                            x       y       z     vdW  Elec       q    Type
REMARK                         _______ _______ _______ _____ _____    ______ ____
ROOT
ATOM     14  C   UNL     1      -1.815   3.156  24.884  0.00  0.00    +0.027 C 
ATOM     15  C   UNL     1      -2.262   2.907  24.236  0.00  0.00    +0.005 C 
ATOM     16  C   UNL     1      -3.082   2.993  24.244  0.00  0.00    +0.006 C 
ATOM     20  C   UNL     1      -3.456   3.328  24.898  0.00  0.00    +0.039 C 
ATOM     26  C   UNL     1      -3.010   3.577  25.546  0.00  0.00    -0.033 C 
ATOM     27  C   UNL     1      -2.189   3.491  25.539  0.00  0.00    -0.048 C 
ATOM     28  C   UNL     1      -1.743   3.740  26.186  0.00  0.00    +0.026 C 
ENDROOT
BRANCH  16  17
ATOM     17  C   UNL     1      -3.529   2.744  23.596  0.00  0.00    +0.000 C 
ATOM     18  C   UNL     1      -3.814   1.970  23.565  0.00  0.00    +0.000 C 
ATOM     19  C   UNL     1      -3.690   3.268  22.979  0.00  0.00    +0.000 C 
ENDBRANCH  16  17
BRANCH  14  13
ATOM     13  C   UNL     1      -0.995   3.070  24.877  0.00  0.00    +0.091 C 
BRANCH  13  12
ATOM      9  C   UNL     1      -0.470   1.009  24.690  0.00  0.00    +0.250 A 
ATOM     10  N   UNL     1       0.184   1.372  24.341  0.00  0.00    -0.107 NA
ATOM     11  N   UNL     1       0.067   2.189  24.368  0.00  0.00    -0.111 NA
ATOM     12  C   UNL     1      -0.659   2.330  24.734  0.00  0.00    +0.227 A 
ATOM     29  O   UNL     1      -0.990   1.601  24.933  0.00  0.00    -0.420 OA
BRANCH   9   6
ATOM      3  C   UNL     1      -0.807  -1.428  24.960  0.00  0.00    +0.139 A 
ATOM      4  C   UNL     1      -0.469  -1.132  24.267  0.00  0.00    +0.037 A 
ATOM      5  C   UNL     1      -0.357  -0.320  24.177  0.00  0.00    +0.008 A 
ATOM      6  C   UNL     1      -0.582   0.197  24.780  0.00  0.00    +0.055 A 
ATOM      7  C   UNL     1      -0.920  -0.098  25.472  0.00  0.00    +0.008 A 
ATOM      8  C   UNL     1      -1.032  -0.911  25.561  0.00  0.00    +0.037 A 
BRANCH   3   2
ATOM      1  C   UNL     1      -1.591  -2.601  24.734  0.00  0.00    +0.252 C 
ATOM      2  O   UNL     1      -0.920  -2.240  25.049  0.00  0.00    -0.471 OA
ENDBRANCH   3   2
ENDBRANCH   9   6
ENDBRANCH  13  12
ENDBRANCH  14  13
BRANCH  20  21
ATOM     21  C   UNL     1      -4.277   3.414  24.905  0.00  0.00    +0.093 C 
BRANCH  21  22
ATOM     22  N   UNL     1      -4.662   3.621  25.604  0.00  0.00    -0.219 NA
BRANCH  22  23
ATOM     23  C   UNL     1      -5.487   3.644  25.629  0.00  0.00    +0.073 C 
ATOM     24  C   UNL     1      -5.914   2.959  25.806  0.00  0.00    +0.019 C 
ATOM     25  C   UNL     1      -5.884   4.351  25.479  0.00  0.00    +0.019 C 
ENDBRANCH  22  23
ENDBRANCH  21  22
ENDBRANCH  20  21
TORSDOF 8
ENDMDL
MODEL 7
REMARK VINA RESULT:      -9.0      3.130      4.658
REMARK  Name = 
REMARK  8 active torsions:
REMARK  status: ('A' for Active; 'I' for Inactive)
REMARK    1  A    between atoms: O_2  and  C_3
REMARK    2  A    between atoms: C_6  and  C_9
REMARK    3  A    between atoms: C_12  and  C_13
REMARK    4  A    between atoms: C_13  and  C_14
REMARK    5  A    between atoms: C_16  and  C_17
REMARK    6  A    between atoms: C_20  and  C_21
REMARK    7  A    between atoms: C_21  and  N_22
REMARK    8  A    between atoms: N_22  and  C_23
REMARK                            x       y       z     vdW  Elec       q    Type
REMARK                         _______ _______ _______ _____ _____    ______ ____
ROOT
ATOM     14  C   UNL     1      -2.957  -0.207  24.603  0.00  0.00    +0.027 C 
ATOM     15  C   UNL     1      -2.826   0.530  24.255  0.00  0.00    +0.005 C 
ATOM     16  C   UNL     1      -3.382   1.133  24.346  0.00  0.00    +0.006 C 
ATOM     20  C   UNL     1      -4.067   1.000  24.784  0.00  0.00    +0.039 C 
ATOM     26  C   UNL     1      -4.198   0.264  25.132  0.00  0.00    -0.033 C 
ATOM     27  C   UNL     1      -3.643  -0.340  25.041  0.00  0.00    -0.048 C 
ATOM     28  C   UNL     1      -3.774  -1.077  25.389  0.00  0.00    +0.026 C 
ENDROOT
BRANCH  16  17
ATOM     17  C   UNL     1      -3.251   1.870  23.998  0.00  0.00    +0.000 C 
ATOM     18  C   UNL     1      -2.888   2.471  24.431  0.00  0.00    +0.000 C 
ATOM     19  C   UNL     1      -3.482   2.005  23.217  0.00  0.00    +0.000 C 
ENDBRANCH  16  17
BRANCH  14  13
ATOM     13  C   UNL     1      -2.402  -0.810  24.512  0.00  0.00    +0.091 C 
BRANCH  13  12
ATOM      9  C   UNL     1      -0.347  -0.326  24.192  0.00  0.00    +0.250 A 
ATOM     10  N   UNL     1      -0.364  -0.419  25.012  0.00  0.00    -0.107 NA
ATOM     11  N   UNL     1      -1.136  -0.611  25.232  0.00  0.00    -0.111 NA
ATOM     12  C   UNL     1      -1.596  -0.638  24.547  0.00  0.00    +0.227 A 
ATOM     29  O   UNL     1      -1.109  -0.462  23.905  0.00  0.00    -0.420 OA
BRANCH   9   6
ATOM      3  C   UNL     1       1.638   0.255  22.833  0.00  0.00    +0.139 A 
ATOM      4  C   UNL     1       1.364   0.779  23.410  0.00  0.00    +0.037 A 
ATOM      5  C   UNL     1       0.703   0.585  23.863  0.00  0.00    +0.008 A 
ATOM      6  C   UNL     1       0.314  -0.132  23.739  0.00  0.00    +0.055 A 
ATOM      7  C   UNL     1       0.587  -0.655  23.163  0.00  0.00    +0.008 A 
ATOM      8  C   UNL     1       1.249  -0.461  22.710  0.00  0.00    +0.037 A 
BRANCH   3   2
ATOM      1  C   UNL     1       3.048   0.453  22.725  0.00  0.00    +0.252 C 
ATOM      2  O   UNL     1       2.299   0.449  22.380  0.00  0.00    -0.471 OA
ENDBRANCH   3   2
ENDBRANCH   9   6
ENDBRANCH  13  12
ENDBRANCH  14  13
BRANCH  20  21
ATOM     21  C   UNL     1      -4.623   1.604  24.875  0.00  0.00    +0.093 C 
BRANCH  21  22
ATOM     22  N   UNL     1      -5.261   1.501  25.386  0.00  0.00    -0.219 NA
BRANCH  22  23
ATOM     23  C   UNL     1      -5.853   2.076  25.429  0.00  0.00    +0.073 C 
ATOM     24  C   UNL     1      -6.517   2.021  24.943  0.00  0.00    +0.019 C 
ATOM     25  C   UNL     1      -5.778   2.704  25.958  0.00  0.00    +0.019 C 
ENDBRANCH  22  23
ENDBRANCH  21  22
ENDBRANCH  20  21
TORSDOF 8
ENDMDL
