MODEL 1
REMARK VINA RESULT:      -9.6      0.000      0.000
REMARK  Name = 
REMARK  7 active torsions:
REMARK  status: ('A' for Active; 'I' for Inactive)
REMARK    1  A    between atoms: C_3  and  C_4
REMARK    2  A    between atoms: C_4  and  N_5
REMARK    3  A    between atoms: N_5  and  S_6
REMARK    4  A    between atoms: S_6  and  C_9
REMARK    5  A    between atoms: C_17  and  N_18
REMARK    6  A    between atoms: N_18  and  C_19
REMARK    7  A    between atoms: C_19  and  C_20
REMARK                            x       y       z     vdW  Elec       q    Type
REMARK                         _______ _______ _______ _____ _____    ______ ____
ROOT
ATOM      1  O   UNL     1      -2.754   1.023  23.656  0.00  0.00    -0.219 OA
ATOM      2  C   UNL     1      -3.371   1.137  24.191  0.00  0.00    +0.199 C 
ATOM      3  C   UNL     1      -3.553   1.842  24.578  0.00  0.00    +0.166 C 
ATOM     15  O   UNL     1      -4.209   1.706  25.059  0.00  0.00    -0.350 OA
ATOM     16  C   UNL     1      -4.432   0.917  24.970  0.00  0.00    +0.162 C 
ATOM     17  C   UNL     1      -3.915   0.565  24.433  0.00  0.00    +0.135 C 
ENDROOT
BRANCH   3   4
ATOM      4  C   UNL     1      -3.149   2.557  24.498  0.00  0.00    +0.148 C 
BRANCH   4   5
ATOM      5  N   UNL     1      -2.961   3.001  25.167  0.00  0.00    -0.075 NA
BRANCH   5   6
ATOM      6  S   UNL     1      -2.416   3.619  25.113  0.00  0.00    +0.077 S 
ATOM      7  O   UNL     1      -1.931   3.239  25.662  0.00  0.00    -0.152 OA
ATOM      8  O   UNL     1      -2.901   3.998  24.563  0.00  0.00    -0.152 OA
BRANCH   6   9
ATOM      9  C   UNL     1      -1.871   4.235  25.058  0.00  0.00    +0.124 A 
ATOM     10  C   UNL     1      -1.081   4.074  24.881  0.00  0.00    +0.020 A 
ATOM     11  C   UNL     1      -0.537   4.691  24.827  0.00  0.00    +0.001 A 
ATOM     12  C   UNL     1      -0.781   5.470  24.950  0.00  0.00    +0.000 A 
ATOM     13  C   UNL     1      -1.570   5.631  25.127  0.00  0.00    +0.001 A 
ATOM     14  C   UNL     1      -2.116   5.013  25.181  0.00  0.00    +0.020 A 
ENDBRANCH   6   9
ENDBRANCH   5   6
ENDBRANCH   4   5
ENDBRANCH   3   4
BRANCH  17  18
ATOM     18  N   UNL     1      -3.937  -0.220  24.182  0.00  0.00    -0.208 NA
BRANCH  18  19
ATOM     19  C   UNL     1      -4.221  -0.807  24.688  0.00  0.00    +0.134 C 
BRANCH  19  20
ATOM     20  C   UNL     1      -4.009  -1.595  24.566  0.00  0.00    +0.077 A 
ATOM     21  N   UNL     1      -3.522  -1.980  25.109  0.00  0.00    -0.247 NA
ATOM     22  C   UNL     1      -3.310  -2.768  24.987  0.00  0.00    +0.098 A 
ATOM     23  C   UNL     1      -3.585  -3.171  24.322  0.00  0.00    +0.021 A 
ATOM     24  C   UNL     1      -4.072  -2.786  23.779  0.00  0.00    +0.003 A 
ATOM     25  C   UNL     1      -4.285  -1.998  23.901  0.00  0.00    +0.016 A 
ENDBRANCH  19  20
ENDBRANCH  18  19
ENDBRANCH  17  18
TORSDOF 7
ENDMDL
MODEL 2
REMARK VINA RESULT:      -9.5      1.320      5.850
REMARK  Name = 
REMARK  7 active torsions:
REMARK  status: ('A' for Active; 'I' for Inactive)
REMARK    1  A    between atoms: C_3  and  C_4
REMARK    2  A    between atoms: C_4  and  N_5
REMARK    3  A    between atoms: N_5  and  S_6
REMARK    4  A    between atoms: S_6  and  C_9
REMARK    5  A    between atoms: C_17  and  N_18
REMARK    6  A    between atoms: N_18  and  C_19
REMARK    7  A    between atoms: C_19  and  C_20
REMARK                            x       y       z     vdW  Elec       q    Type
REMARK                         _______ _______ _______ _____ _____    ______ ____
ROOT
ATOM      1  O   UNL     1      -2.552   1.730  23.723  0.00  0.00    -0.219 OA
ATOM      2  C   UNL     1      -3.141   1.899  24.276  0.00  0.00    +0.199 C 
ATOM      3  C   UNL     1      -3.723   1.377  24.538  0.00  0.00    +0.166 C 
ATOM     15  O   UNL     1      -4.192   1.774  25.088  0.00  0.00    -0.350 OA
ATOM     16  C   UNL     1      -3.899   2.542  25.167  0.00  0.00    +0.162 C 
ATOM     17  C   UNL     1      -3.249   2.619  24.665  0.00  0.00    +0.135 C 
ENDROOT
BRANCH   3   4
ATOM      4  C   UNL     1      -3.820   0.595  24.293  0.00  0.00    +0.148 C 
BRANCH   4   5
ATOM      5  N   UNL     1      -4.156   0.041  24.804  0.00  0.00    -0.075 NA
BRANCH   5   6
ATOM      6  S   UNL     1      -4.030  -0.765  24.679  0.00  0.00    +0.077 S 
ATOM      7  O   UNL     1      -4.379  -0.704  23.933  0.00  0.00    -0.152 OA
ATOM      8  O   UNL     1      -3.681  -0.825  25.424  0.00  0.00    -0.152 OA
BRANCH   6   9
ATOM      9  C   UNL     1      -3.904  -1.570  24.554  0.00  0.00    +0.124 A 
ATOM     10  C   UNL     1      -4.253  -1.947  23.908  0.00  0.00    +0.020 A 
ATOM     11  C   UNL     1      -4.127  -2.753  23.784  0.00  0.00    +0.001 A 
ATOM     12  C   UNL     1      -3.652  -3.182  24.305  0.00  0.00    +0.000 A 
ATOM     13  C   UNL     1      -3.303  -2.805  24.950  0.00  0.00    +0.001 A 
ATOM     14  C   UNL     1      -3.429  -1.999  25.075  0.00  0.00    +0.020 A 
ENDBRANCH   6   9
ENDBRANCH   5   6
ENDBRANCH   4   5
ENDBRANCH   3   4
BRANCH  17  18
ATOM     18  N   UNL     1      -2.789   3.296  24.568  0.00  0.00    -0.208 NA
BRANCH  18  19
ATOM     19  C   UNL     1      -2.435   3.651  25.223  0.00  0.00    +0.134 C 
BRANCH  19  20
ATOM     20  C   UNL     1      -1.862   4.235  25.116  0.00  0.00    +0.077 A 
ATOM     21  N   UNL     1      -1.079   4.022  24.968  0.00  0.00    -0.247 NA
ATOM     22  C   UNL     1      -0.505   4.606  24.862  0.00  0.00    +0.098 A 
ATOM     23  C   UNL     1      -0.716   5.403  24.903  0.00  0.00    +0.021 A 
ATOM     24  C   UNL     1      -1.499   5.616  25.052  0.00  0.00    +0.003 A 
ATOM     25  C   UNL     1      -2.072   5.032  25.158  0.00  0.00    +0.016 A 
ENDBRANCH  19  20
ENDBRANCH  18  19
ENDBRANCH  17  18
TORSDOF 7
ENDMDL
MODEL 3
REMARK VINA RESULT:      -9.0      1.416      1.692
REMARK  Name = 
REMARK  7 active torsions:
REMARK  status: ('A' for Active; 'I' for Inactive)
REMARK    1  A    between atoms: C_3  and  C_4
REMARK    2  A    between atoms: C_4  and  N_5
REMARK    3  A    between atoms: N_5  and  S_6
REMARK    4  A    between atoms: S_6  and  C_9
REMARK    5  A    between atoms: C_17  and  N_18
REMARK    6  A    between atoms: N_18  and  C_19
REMARK    7  A    between atoms: C_19  and  C_20
REMARK                            x       y       z     vdW  Elec       q    Type
REMARK                         _______ _______ _______ _____ _____    ______ ____
ROOT
ATOM      1  O   UNL     1      -2.001   0.782  23.857  0.00  0.00    -0.219 OA
ATOM      2  C   UNL     1      -1.715   0.574  24.602  0.00  0.00    +0.199 C 
ATOM      3  C   UNL     1      -1.305   1.068  25.120  0.00  0.00    +0.166 C 
ATOM     15  O   UNL     1      -1.125   0.634  25.797  0.00  0.00    -0.350 OA
ATOM     16  C   UNL     1      -1.424  -0.129  25.699  0.00  0.00    +0.162 C 
ATOM     17  C   UNL     1      -1.788  -0.166  24.960  0.00  0.00    +0.135 C 
ENDROOT
BRANCH   3   4
ATOM      4  C   UNL     1      -1.109   1.858  24.983  0.00  0.00    +0.148 C 
BRANCH   4   5
ATOM      5  N   UNL     1      -1.130   2.401  25.604  0.00  0.00    -0.075 NA
BRANCH   5   6
ATOM      6  S   UNL     1      -1.186   3.209  25.443  0.00  0.00    +0.077 S 
ATOM      7  O   UNL     1      -1.938   3.224  25.784  0.00  0.00    -0.152 OA
ATOM      8  O   UNL     1      -0.435   3.194  25.103  0.00  0.00    -0.152 OA
BRANCH   6   9
ATOM      9  C   UNL     1      -1.243   4.016  25.284  0.00  0.00    +0.124 A 
ATOM     10  C   UNL     1      -0.618   4.409  24.917  0.00  0.00    +0.020 A 
ATOM     11  C   UNL     1      -0.675   5.216  24.757  0.00  0.00    +0.001 A 
ATOM     12  C   UNL     1      -1.358   5.631  24.964  0.00  0.00    +0.000 A 
ATOM     13  C   UNL     1      -1.984   5.237  25.330  0.00  0.00    +0.001 A 
ATOM     14  C   UNL     1      -1.926   4.430  25.490  0.00  0.00    +0.020 A 
ENDBRANCH   6   9
ENDBRANCH   5   6
ENDBRANCH   4   5
ENDBRANCH   3   4
BRANCH  17  18
ATOM     18  N   UNL     1      -2.161  -0.827  24.636  0.00  0.00    -0.208 NA
BRANCH  18  19
ATOM     19  C   UNL     1      -2.759  -1.210  25.055  0.00  0.00    +0.134 C 
BRANCH  19  20
ATOM     20  C   UNL     1      -3.226  -1.778  24.681  0.00  0.00    +0.077 A 
ATOM     21  N   UNL     1      -3.896  -1.547  24.257  0.00  0.00    -0.247 NA
ATOM     22  C   UNL     1      -4.363  -2.115  23.883  0.00  0.00    +0.098 A 
ATOM     23  C   UNL     1      -4.161  -2.913  23.933  0.00  0.00    +0.021 A 
ATOM     24  C   UNL     1      -3.491  -3.144  24.357  0.00  0.00    +0.003 A 
ATOM     25  C   UNL     1      -3.024  -2.576  24.731  0.00  0.00    +0.016 A 
ENDBRANCH  19  20
ENDBRANCH  18  19
ENDBRANCH  17  18
TORSDOF 7
ENDMDL
MODEL 4
REMARK VINA RESULT:      -7.7      3.441      4.665
REMARK  Name = 
REMARK  7 active torsions:
REMARK  status: ('A' for Active; 'I' for Inactive)
REMARK    1  A    between atoms: C_3  and  C_4
REMARK    2  A    between atoms: C_4  and  N_5
REMARK    3  A    between atoms: N_5  and  S_6
REMARK    4  A    between atoms: S_6  and  C_9
REMARK    5  A    between atoms: C_17  and  N_18
REMARK    6  A    between atoms: N_18  and  C_19
REMARK    7  A    between atoms: C_19  and  C_20
REMARK                            x       y       z     vdW  Elec       q    Type
REMARK                         _______ _______ _______ _____ _____    ______ ____
ROOT
ATOM      1  O   UNL     1      -0.799   2.090  23.892  0.00  0.00    -0.219 OA
ATOM      2  C   UNL     1      -0.957   1.288  23.999  0.00  0.00    +0.199 C 
ATOM      3  C   UNL     1      -1.666   0.965  24.272  0.00  0.00    +0.166 C 
ATOM     15  O   UNL     1      -1.581   0.146  24.294  0.00  0.00    -0.350 OA
ATOM     16  C   UNL     1      -0.820  -0.039  24.035  0.00  0.00    +0.162 C 
ATOM     17  C   UNL     1      -0.434   0.666  23.853  0.00  0.00    +0.135 C 
ENDROOT
BRANCH   3   4
ATOM      4  C   UNL     1      -2.341   1.390  24.484  0.00  0.00    +0.148 C 
BRANCH   4   5
ATOM      5  N   UNL     1      -3.089   1.062  24.365  0.00  0.00    -0.075 NA
BRANCH   5   6
ATOM      6  S   UNL     1      -3.762   1.469  24.614  0.00  0.00    +0.077 S 
ATOM      7  O   UNL     1      -3.675   1.151  25.371  0.00  0.00    -0.152 OA
ATOM      8  O   UNL     1      -3.850   1.786  23.857  0.00  0.00    -0.152 OA
BRANCH   6   9
ATOM      9  C   UNL     1      -4.435   1.875  24.863  0.00  0.00    +0.124 A 
ATOM     10  C   UNL     1      -5.148   1.472  24.962  0.00  0.00    +0.020 A 
ATOM     11  C   UNL     1      -5.821   1.878  25.211  0.00  0.00    +0.001 A 
ATOM     12  C   UNL     1      -5.782   2.689  25.361  0.00  0.00    +0.000 A 
ATOM     13  C   UNL     1      -5.069   3.092  25.261  0.00  0.00    +0.001 A 
ATOM     14  C   UNL     1      -4.395   2.685  25.012  0.00  0.00    +0.020 A 
ENDBRANCH   6   9
ENDBRANCH   5   6
ENDBRANCH   4   5
ENDBRANCH   3   4
BRANCH  17  18
ATOM     18  N   UNL     1       0.339   0.738  23.574  0.00  0.00    -0.208 NA
BRANCH  18  19
ATOM     19  C   UNL     1       0.731   0.079  23.272  0.00  0.00    +0.134 C 
BRANCH  19  20
ATOM     20  C   UNL     1       1.486   0.160  22.949  0.00  0.00    +0.077 A 
ATOM     21  N   UNL     1       2.054   0.614  23.339  0.00  0.00    -0.247 NA
ATOM     22  C   UNL     1       2.810   0.695  23.016  0.00  0.00    +0.098 A 
ATOM     23  C   UNL     1       2.996   0.322  22.305  0.00  0.00    +0.021 A 
ATOM     24  C   UNL     1       2.428  -0.132  21.915  0.00  0.00    +0.003 A 
ATOM     25  C   UNL     1       1.673  -0.213  22.238  0.00  0.00    +0.016 A 
ENDBRANCH  19  20
ENDBRANCH  18  19
ENDBRANCH  17  18
TORSDOF 7
ENDMDL
MODEL 5
REMARK VINA RESULT:      -6.0     14.745     16.663
REMARK  Name = 
REMARK  7 active torsions:
REMARK  status: ('A' for Active; 'I' for Inactive)
REMARK    1  A    between atoms: C_3  and  C_4
REMARK    2  A    between atoms: C_4  and  N_5
REMARK    3  A    between atoms: N_5  and  S_6
REMARK    4  A    between atoms: S_6  and  C_9
REMARK    5  A    between atoms: C_17  and  N_18
REMARK    6  A    between atoms: N_18  and  C_19
REMARK    7  A    between atoms: C_19  and  C_20
REMARK                            x       y       z     vdW  Elec       q    Type
REMARK                         _______ _______ _______ _____ _____    ______ ____
ROOT
ATOM      1  O   UNL     1      -5.949  -9.824  14.047  0.00  0.00    -0.219 OA
ATOM      2  C   UNL     1      -5.215 -10.187  14.139  0.00  0.00    +0.199 C 
ATOM      3  C   UNL     1      -4.673 -10.346  13.538  0.00  0.00    +0.166 C 
ATOM     15  O   UNL     1      -4.016 -10.713  13.877  0.00  0.00    -0.350 OA
ATOM     16  C   UNL     1      -4.152 -10.781  14.687  0.00  0.00    +0.162 C 
ATOM     17  C   UNL     1      -4.893 -10.457  14.850  0.00  0.00    +0.135 C 
ENDROOT
BRANCH   3   4
ATOM      4  C   UNL     1      -4.770 -10.168  12.738  0.00  0.00    +0.148 C 
BRANCH   4   5
ATOM      5  N   UNL     1      -4.154 -10.304  12.207  0.00  0.00    -0.075 NA
BRANCH   5   6
ATOM      6  S   UNL     1      -4.199 -10.008  11.438  0.00  0.00    +0.077 S 
ATOM      7  O   UNL     1      -3.519  -9.560  11.570  0.00  0.00    -0.152 OA
ATOM      8  O   UNL     1      -4.879 -10.456  11.305  0.00  0.00    -0.152 OA
BRANCH   6   9
ATOM      9  C   UNL     1      -4.244  -9.712  10.670  0.00  0.00    +0.124 A 
ATOM     10  C   UNL     1      -4.533  -8.951  10.536  0.00  0.00    +0.020 A 
ATOM     11  C   UNL     1      -4.578  -8.656   9.768  0.00  0.00    +0.001 A 
ATOM     12  C   UNL     1      -4.333  -9.121   9.131  0.00  0.00    +0.000 A 
ATOM     13  C   UNL     1      -4.043  -9.882   9.265  0.00  0.00    +0.001 A 
ATOM     14  C   UNL     1      -3.999 -10.178  10.034  0.00  0.00    +0.020 A 
ENDBRANCH   6   9
ENDBRANCH   5   6
ENDBRANCH   4   5
ENDBRANCH   3   4
BRANCH  17  18
ATOM     18  N   UNL     1      -5.249 -10.409  15.592  0.00  0.00    -0.208 NA
BRANCH  18  19
ATOM     19  C   UNL     1      -4.812 -10.578  16.271  0.00  0.00    +0.134 C 
BRANCH  19  20
ATOM     20  C   UNL     1      -5.179 -10.575  17.010  0.00  0.00    +0.077 A 
ATOM     21  N   UNL     1      -5.982 -10.395  17.071  0.00  0.00    -0.247 NA
ATOM     22  C   UNL     1      -6.349 -10.391  17.810  0.00  0.00    +0.098 A 
ATOM     23  C   UNL     1      -5.913 -10.569  18.487  0.00  0.00    +0.021 A 
ATOM     24  C   UNL     1      -5.111 -10.749  18.427  0.00  0.00    +0.003 A 
ATOM     25  C   UNL     1      -4.743 -10.752  17.688  0.00  0.00    +0.016 A 
ENDBRANCH  19  20
ENDBRANCH  18  19
ENDBRANCH  17  18
TORSDOF 7
ENDMDL
