MODEL 1
REMARK VINA RESULT:      -9.1      0.000      0.000
REMARK  Name = 
REMARK  7 active torsions:
REMARK  status: ('A' for Active; 'I' for Inactive)
REMARK    1  A    between atoms: O_2  and  C_3
REMARK    2  A    between atoms: C_3  and  C_5
REMARK    3  A    between atoms: C_5  and  N_7
REMARK    4  A    between atoms: C_8  and  C_10
REMARK    5  A    between atoms: N_18  and  C_19
REMARK    6  A    between atoms: C_25  and  C_27
REMARK    7  A    between atoms: C_30  and  N_33
REMARK                            x       y       z     vdW  Elec       q    Type
REMARK                         _______ _______ _______ _____ _____    ______ ____
ROOT
ATOM     10  C   UNL     1      -2.056   0.658  24.830  0.00  0.00    +0.175 C 
ATOM     11  C   UNL     1      -2.043   1.477  24.918  0.00  0.00    +0.123 C 
ATOM     12  N   UNL     1      -2.750   1.896  25.001  0.00  0.00    -0.272 N 
ATOM     13  C   UNL     1      -3.470   1.493  24.995  0.00  0.00    +0.115 C 
ATOM     14  C   UNL     1      -3.483   0.672  24.907  0.00  0.00    +0.117 C 
ATOM     15  N   UNL     1      -2.776   0.255  24.825  0.00  0.00    -0.253 N 
ATOM     16  C   UNL     1      -2.790  -0.566  24.737  0.00  0.00    +0.324 C 
ATOM     17  O   UNL     1      -2.083  -0.983  24.655  0.00  0.00    -0.251 OA
ATOM     18  N   UNL     1      -3.509  -0.968  24.731  0.00  0.00    -0.190 NA
ATOM     25  C   UNL     1      -2.736   2.715  25.088  0.00  0.00    +0.249 C 
ATOM     26  O   UNL     1      -2.015   3.118  25.094  0.00  0.00    -0.270 OA
ENDROOT
BRANCH  18  19
ATOM     19  C   UNL     1      -3.523  -1.788  24.643  0.00  0.00    +0.097 C 
ATOM     20  C   UNL     1      -3.355  -2.275  25.287  0.00  0.00    +0.022 C 
ATOM     21  C   UNL     1      -3.370  -3.095  25.198  0.00  0.00    +0.002 C 
ATOM     22  C   UNL     1      -3.552  -3.428  24.466  0.00  0.00    +0.000 C 
ATOM     23  C   UNL     1      -3.720  -2.941  23.822  0.00  0.00    +0.002 C 
ATOM     24  C   UNL     1      -3.706  -2.121  23.910  0.00  0.00    +0.022 C 
ENDBRANCH  18  19
BRANCH  25  27
ATOM     27  C   UNL     1      -3.443   3.134  25.171  0.00  0.00    +0.054 A 
ATOM     28  C   UNL     1      -3.849   3.394  24.502  0.00  0.00    +0.006 A 
ATOM     29  C   UNL     1      -4.554   3.812  24.585  0.00  0.00    +0.015 A 
ATOM     30  C   UNL     1      -4.855   3.970  25.337  0.00  0.00    +0.048 A 
ATOM     31  C   UNL     1      -4.449   3.709  26.006  0.00  0.00    +0.015 A 
ATOM     32  C   UNL     1      -3.743   3.291  25.923  0.00  0.00    +0.006 A 
BRANCH  30  33
ATOM     33  N   UNL     1      -5.562   4.388  25.420  0.00  0.00    -0.304 N 
ATOM     34  C   UNL     1      -6.245   3.998  25.671  0.00  0.00    +0.112 C 
ATOM     35  C   UNL     1      -5.585   5.195  25.253  0.00  0.00    +0.112 C 
ENDBRANCH  30  33
ENDBRANCH  25  27
BRANCH  10   8
ATOM      7  N   UNL     1      -0.875   0.358  24.085  0.00  0.00    -0.194 NA
ATOM      8  C   UNL     1      -1.350   0.239  24.748  0.00  0.00    +0.262 C 
ATOM      9  O   UNL     1      -1.119  -0.298  25.331  0.00  0.00    -0.271 OA
BRANCH   7   5
ATOM      5  C   UNL     1      -0.168  -0.061  24.003  0.00  0.00    +0.194 C 
ATOM      6  C   UNL     1      -0.043  -0.749  24.441  0.00  0.00    +0.035 C 
BRANCH   5   3
ATOM      3  C   UNL     1       0.413   0.208  23.483  0.00  0.00    +0.337 C 
ATOM      4  O   UNL     1       0.757   0.949  23.597  0.00  0.00    -0.248 OA
BRANCH   3   2
ATOM      1  C   UNL     1       1.346  -0.089  22.443  0.00  0.00    +0.256 C 
ATOM      2  O   UNL     1       0.651  -0.264  22.850  0.00  0.00    -0.443 OA
ENDBRANCH   3   2
ENDBRANCH   5   3
ENDBRANCH   7   5
ENDBRANCH  10   8
TORSDOF 7
ENDMDL
MODEL 2
REMARK VINA RESULT:      -8.5      1.413      5.689
REMARK  Name = 
REMARK  7 active torsions:
REMARK  status: ('A' for Active; 'I' for Inactive)
REMARK    1  A    between atoms: O_2  and  C_3
REMARK    2  A    between atoms: C_3  and  C_5
REMARK    3  A    between atoms: C_5  and  N_7
REMARK    4  A    between atoms: C_8  and  C_10
REMARK    5  A    between atoms: N_18  and  C_19
REMARK    6  A    between atoms: C_25  and  C_27
REMARK    7  A    between atoms: C_30  and  N_33
REMARK                            x       y       z     vdW  Elec       q    Type
REMARK                         _______ _______ _______ _____ _____    ______ ____
ROOT
ATOM     10  C   UNL     1      -1.687   0.230  24.461  0.00  0.00    +0.175 C 
ATOM     11  C   UNL     1      -1.066  -0.290  24.307  0.00  0.00    +0.123 C 
ATOM     12  N   UNL     1      -0.379  -0.017  23.942  0.00  0.00    -0.272 N 
ATOM     13  C   UNL     1      -0.313   0.778  23.730  0.00  0.00    +0.115 C 
ATOM     14  C   UNL     1      -0.935   1.299  23.885  0.00  0.00    +0.117 C 
ATOM     15  N   UNL     1      -1.621   1.024  24.250  0.00  0.00    -0.253 N 
ATOM     16  C   UNL     1      -2.243   1.546  24.404  0.00  0.00    +0.324 C 
ATOM     17  O   UNL     1      -2.929   1.271  24.770  0.00  0.00    -0.251 OA
ATOM     18  N   UNL     1      -2.177   2.339  24.193  0.00  0.00    -0.190 NA
ATOM     25  C   UNL     1       0.242  -0.537  23.787  0.00  0.00    +0.249 C 
ATOM     26  O   UNL     1       0.176  -1.333  23.999  0.00  0.00    -0.270 OA
ENDROOT
BRANCH  18  19
ATOM     19  C   UNL     1      -2.798   2.860  24.347  0.00  0.00    +0.097 C 
ATOM     20  C   UNL     1      -2.788   3.324  25.030  0.00  0.00    +0.022 C 
ATOM     21  C   UNL     1      -3.410   3.845  25.183  0.00  0.00    +0.002 C 
ATOM     22  C   UNL     1      -4.040   3.902  24.654  0.00  0.00    +0.000 C 
ATOM     23  C   UNL     1      -4.049   3.439  23.972  0.00  0.00    +0.002 C 
ATOM     24  C   UNL     1      -3.429   2.918  23.818  0.00  0.00    +0.022 C 
ENDBRANCH  18  19
BRANCH  25  27
ATOM     27  C   UNL     1       0.929  -0.263  23.422  0.00  0.00    +0.054 A 
ATOM     28  C   UNL     1       1.478   0.176  23.851  0.00  0.00    +0.006 A 
ATOM     29  C   UNL     1       2.165   0.449  23.485  0.00  0.00    +0.015 A 
ATOM     30  C   UNL     1       2.302   0.282  22.689  0.00  0.00    +0.048 A 
ATOM     31  C   UNL     1       1.753  -0.157  22.259  0.00  0.00    +0.015 A 
ATOM     32  C   UNL     1       1.066  -0.430  22.625  0.00  0.00    +0.006 A 
BRANCH  30  33
ATOM     33  N   UNL     1       2.990   0.556  22.323  0.00  0.00    -0.304 N 
ATOM     34  C   UNL     1       3.479   1.094  22.713  0.00  0.00    +0.112 C 
ATOM     35  C   UNL     1       3.187   0.291  21.568  0.00  0.00    +0.112 C 
ENDBRANCH  30  33
ENDBRANCH  25  27
BRANCH  10   8
ATOM      7  N   UNL     1      -2.847  -0.605  24.451  0.00  0.00    -0.194 NA
ATOM      8  C   UNL     1      -2.374  -0.044  24.827  0.00  0.00    +0.262 C 
ATOM      9  O   UNL     1      -2.589   0.245  25.571  0.00  0.00    -0.271 OA
BRANCH   7   5
ATOM      5  C   UNL     1      -3.535  -0.878  24.816  0.00  0.00    +0.194 C 
ATOM      6  C   UNL     1      -3.688  -0.683  25.604  0.00  0.00    +0.035 C 
BRANCH   5   3
ATOM      3  C   UNL     1      -4.068  -1.346  24.396  0.00  0.00    +0.337 C 
ATOM      4  O   UNL     1      -4.716  -0.999  24.023  0.00  0.00    -0.248 OA
BRANCH   3   2
ATOM      1  C   UNL     1      -4.352  -2.602  23.777  0.00  0.00    +0.256 C 
ATOM      2  O   UNL     1      -3.953  -2.162  24.349  0.00  0.00    -0.443 OA
ENDBRANCH   3   2
ENDBRANCH   5   3
ENDBRANCH   7   5
ENDBRANCH  10   8
TORSDOF 7
ENDMDL
MODEL 3
REMARK VINA RESULT:      -7.7      2.095      5.933
REMARK  Name = 
REMARK  7 active torsions:
REMARK  status: ('A' for Active; 'I' for Inactive)
REMARK    1  A    between atoms: O_2  and  C_3
REMARK    2  A    between atoms: C_3  and  C_5
REMARK    3  A    between atoms: C_5  and  N_7
REMARK    4  A    between atoms: C_8  and  C_10
REMARK    5  A    between atoms: N_18  and  C_19
REMARK    6  A    between atoms: C_25  and  C_27
REMARK    7  A    between atoms: C_30  and  N_33
REMARK                            x       y       z     vdW  Elec       q    Type
REMARK                         _______ _______ _______ _____ _____    ______ ____
ROOT
ATOM     10  C   UNL     1      -3.768   1.995  24.501  0.00  0.00    +0.175 C 
ATOM     11  C   UNL     1      -4.235   1.316  24.469  0.00  0.00    +0.123 C 
ATOM     12  N   UNL     1      -3.885   0.571  24.513  0.00  0.00    -0.272 N 
ATOM     13  C   UNL     1      -3.066   0.505  24.587  0.00  0.00    +0.115 C 
ATOM     14  C   UNL     1      -2.598   1.184  24.619  0.00  0.00    +0.117 C 
ATOM     15  N   UNL     1      -2.949   1.929  24.575  0.00  0.00    -0.253 N 
ATOM     16  C   UNL     1      -2.481   2.608  24.607  0.00  0.00    +0.324 C 
ATOM     17  O   UNL     1      -2.833   3.353  24.563  0.00  0.00    -0.251 OA
ATOM     18  N   UNL     1      -1.663   2.542  24.682  0.00  0.00    -0.190 NA
ATOM     25  C   UNL     1      -4.351  -0.108  24.481  0.00  0.00    +0.249 C 
ATOM     26  O   UNL     1      -5.171  -0.042  24.406  0.00  0.00    -0.270 OA
ENDROOT
BRANCH  18  19
ATOM     19  C   UNL     1      -1.196   3.221  24.713  0.00  0.00    +0.097 C 
ATOM     20  C   UNL     1      -0.768   3.459  24.049  0.00  0.00    +0.022 C 
ATOM     21  C   UNL     1      -0.301   4.138  24.081  0.00  0.00    +0.002 C 
ATOM     22  C   UNL     1      -0.260   4.578  24.777  0.00  0.00    +0.000 C 
ATOM     23  C   UNL     1      -0.687   4.340  25.442  0.00  0.00    +0.002 C 
ATOM     24  C   UNL     1      -1.155   3.661  25.410  0.00  0.00    +0.022 C 
ENDBRANCH  18  19
BRANCH  25  27
ATOM     27  C   UNL     1      -4.001  -0.854  24.524  0.00  0.00    +0.054 A 
ATOM     28  C   UNL     1      -3.743  -1.147  25.250  0.00  0.00    +0.006 A 
ATOM     29  C   UNL     1      -3.392  -1.892  25.293  0.00  0.00    +0.015 A 
ATOM     30  C   UNL     1      -3.300  -2.344  24.609  0.00  0.00    +0.048 A 
ATOM     31  C   UNL     1      -3.557  -2.051  23.882  0.00  0.00    +0.015 A 
ATOM     32  C   UNL     1      -3.908  -1.305  23.841  0.00  0.00    +0.006 A 
BRANCH  30  33
ATOM     33  N   UNL     1      -2.949  -3.090  24.652  0.00  0.00    -0.304 N 
ATOM     34  C   UNL     1      -3.417  -3.761  24.760  0.00  0.00    +0.112 C 
ATOM     35  C   UNL     1      -2.131  -3.165  24.586  0.00  0.00    +0.112 C 
ENDBRANCH  30  33
ENDBRANCH  25  27
BRANCH  10   8
ATOM      7  N   UNL     1      -4.587   3.013  25.079  0.00  0.00    -0.194 NA
ATOM      8  C   UNL     1      -4.119   2.740  24.457  0.00  0.00    +0.262 C 
ATOM      9  O   UNL     1      -4.001   3.214  23.791  0.00  0.00    -0.271 OA
BRANCH   7   5
ATOM      5  C   UNL     1      -4.938   3.759  25.035  0.00  0.00    +0.194 C 
ATOM      6  C   UNL     1      -4.725   4.281  24.432  0.00  0.00    +0.035 C 
BRANCH   5   3
ATOM      3  C   UNL     1      -5.501   3.983  25.594  0.00  0.00    +0.337 C 
ATOM      4  O   UNL     1      -5.870   3.412  26.060  0.00  0.00    -0.248 OA
BRANCH   3   2
ATOM      1  C   UNL     1      -6.477   4.998  25.839  0.00  0.00    +0.256 C 
ATOM      2  O   UNL     1      -5.697   4.780  25.687  0.00  0.00    -0.443 OA
ENDBRANCH   3   2
ENDBRANCH   5   3
ENDBRANCH   7   5
ENDBRANCH  10   8
TORSDOF 7
ENDMDL
MODEL 4
REMARK VINA RESULT:      -6.6      1.642      3.810
REMARK  Name = 
REMARK  7 active torsions:
REMARK  status: ('A' for Active; 'I' for Inactive)
REMARK    1  A    between atoms: O_2  and  C_3
REMARK    2  A    between atoms: C_3  and  C_5
REMARK    3  A    between atoms: C_5  and  N_7
REMARK    4  A    between atoms: C_8  and  C_10
REMARK    5  A    between atoms: N_18  and  C_19
REMARK    6  A    between atoms: C_25  and  C_27
REMARK    7  A    between atoms: C_30  and  N_33
REMARK                            x       y       z     vdW  Elec       q    Type
REMARK                         _______ _______ _______ _____ _____    ______ ____
ROOT
ATOM     10  C   UNL     1      -0.802   0.266  24.626  0.00  0.00    +0.175 C 
ATOM     11  C   UNL     1      -1.351   0.693  25.069  0.00  0.00    +0.123 C 
ATOM     12  N   UNL     1      -1.376   1.516  25.015  0.00  0.00    -0.272 N 
ATOM     13  C   UNL     1      -0.851   1.912  24.517  0.00  0.00    +0.115 C 
ATOM     14  C   UNL     1      -0.301   1.485  24.073  0.00  0.00    +0.117 C 
ATOM     15  N   UNL     1      -0.277   0.663  24.128  0.00  0.00    -0.253 N 
ATOM     16  C   UNL     1       0.273   0.236  23.684  0.00  0.00    +0.324 C 
ATOM     17  O   UNL     1       0.297  -0.587  23.739  0.00  0.00    -0.251 OA
ATOM     18  N   UNL     1       0.797   0.631  23.187  0.00  0.00    -0.190 NA
ATOM     25  C   UNL     1      -1.924   1.943  25.458  0.00  0.00    +0.249 C 
ATOM     26  O   UNL     1      -2.450   1.546  25.957  0.00  0.00    -0.270 OA
ENDROOT
BRANCH  18  19
ATOM     19  C   UNL     1       1.347   0.205  22.743  0.00  0.00    +0.097 C 
ATOM     20  C   UNL     1       1.105  -0.201  22.067  0.00  0.00    +0.022 C 
ATOM     21  C   UNL     1       1.656  -0.627  21.624  0.00  0.00    +0.002 C 
ATOM     22  C   UNL     1       2.447  -0.647  21.856  0.00  0.00    +0.000 C 
ATOM     23  C   UNL     1       2.688  -0.241  22.532  0.00  0.00    +0.002 C 
ATOM     24  C   UNL     1       2.139   0.185  22.976  0.00  0.00    +0.022 C 
ENDBRANCH  18  19
BRANCH  25  27
ATOM     27  C   UNL     1      -1.949   2.766  25.404  0.00  0.00    +0.054 A 
ATOM     28  C   UNL     1      -2.526   3.132  24.944  0.00  0.00    +0.006 A 
ATOM     29  C   UNL     1      -2.551   3.954  24.890  0.00  0.00    +0.015 A 
ATOM     30  C   UNL     1      -1.997   4.411  25.297  0.00  0.00    +0.048 A 
ATOM     31  C   UNL     1      -1.419   4.045  25.759  0.00  0.00    +0.015 A 
ATOM     32  C   UNL     1      -1.396   3.222  25.812  0.00  0.00    +0.006 A 
BRANCH  30  33
ATOM     33  N   UNL     1      -2.021   5.234  25.244  0.00  0.00    -0.304 N 
ATOM     34  C   UNL     1      -1.357   5.651  24.984  0.00  0.00    +0.112 C 
ATOM     35  C   UNL     1      -2.708   5.641  25.450  0.00  0.00    +0.112 C 
ENDBRANCH  30  33
ENDBRANCH  25  27
BRANCH  10   8
ATOM      7  N   UNL     1      -1.465  -0.998  24.575  0.00  0.00    -0.194 NA
ATOM      8  C   UNL     1      -0.777  -0.557  24.680  0.00  0.00    +0.262 C 
ATOM      9  O   UNL     1      -0.062  -0.938  24.840  0.00  0.00    -0.271 OA
BRANCH   7   5
ATOM      5  C   UNL     1      -1.440  -1.821  24.629  0.00  0.00    +0.194 C 
ATOM      6  C   UNL     1      -0.788  -2.193  24.974  0.00  0.00    +0.035 C 
BRANCH   5   3
ATOM      3  C   UNL     1      -2.066  -2.273  24.340  0.00  0.00    +0.337 C 
ATOM      4  O   UNL     1      -1.915  -2.933  23.868  0.00  0.00    -0.248 OA
BRANCH   3   2
ATOM      1  C   UNL     1      -3.458  -2.594  24.366  0.00  0.00    +0.256 C 
ATOM      2  O   UNL     1      -2.844  -2.066  24.521  0.00  0.00    -0.443 OA
ENDBRANCH   3   2
ENDBRANCH   5   3
ENDBRANCH   7   5
ENDBRANCH  10   8
TORSDOF 7
ENDMDL
MODEL 5
REMARK VINA RESULT:      -6.6      1.476      5.087
REMARK  Name = 
REMARK  7 active torsions:
REMARK  status: ('A' for Active; 'I' for Inactive)
REMARK    1  A    between atoms: O_2  and  C_3
REMARK    2  A    between atoms: C_3  and  C_5
REMARK    3  A    between atoms: C_5  and  N_7
REMARK    4  A    between atoms: C_8  and  C_10
REMARK    5  A    between atoms: N_18  and  C_19
REMARK    6  A    between atoms: C_25  and  C_27
REMARK    7  A    between atoms: C_30  and  N_33
REMARK                            x       y       z     vdW  Elec       q    Type
REMARK                         _______ _______ _______ _____ _____    ______ ____
ROOT
ATOM     10  C   UNL     1      -2.106   1.600  25.346  0.00  0.00    +0.175 C 
ATOM     11  C   UNL     1      -1.753   0.856  25.331  0.00  0.00    +0.123 C 
ATOM     12  N   UNL     1      -2.198   0.191  25.127  0.00  0.00    -0.272 N 
ATOM     13  C   UNL     1      -2.997   0.273  24.939  0.00  0.00    +0.115 C 
ATOM     14  C   UNL     1      -3.351   1.019  24.954  0.00  0.00    +0.117 C 
ATOM     15  N   UNL     1      -2.905   1.682  25.158  0.00  0.00    -0.253 N 
ATOM     16  C   UNL     1      -3.259   2.428  25.173  0.00  0.00    +0.324 C 
ATOM     17  O   UNL     1      -2.813   3.091  25.376  0.00  0.00    -0.251 OA
ATOM     18  N   UNL     1      -4.057   2.509  24.984  0.00  0.00    -0.190 NA
ATOM     25  C   UNL     1      -1.845  -0.554  25.112  0.00  0.00    +0.249 C 
ATOM     26  O   UNL     1      -1.045  -0.635  25.301  0.00  0.00    -0.270 OA
ENDROOT
BRANCH  18  19
ATOM     19  C   UNL     1      -4.411   3.254  24.999  0.00  0.00    +0.097 C 
ATOM     20  C   UNL     1      -4.238   3.805  24.411  0.00  0.00    +0.022 C 
ATOM     21  C   UNL     1      -4.593   4.550  24.427  0.00  0.00    +0.002 C 
ATOM     22  C   UNL     1      -5.120   4.744  25.031  0.00  0.00    +0.000 C 
ATOM     23  C   UNL     1      -5.293   4.192  25.619  0.00  0.00    +0.002 C 
ATOM     24  C   UNL     1      -4.939   3.447  25.604  0.00  0.00    +0.022 C 
ENDBRANCH  18  19
BRANCH  25  27
ATOM     27  C   UNL     1      -2.290  -1.218  24.909  0.00  0.00    +0.054 A 
ATOM     28  C   UNL     1      -2.201  -1.563  24.165  0.00  0.00    +0.006 A 
ATOM     29  C   UNL     1      -2.646  -2.227  23.962  0.00  0.00    +0.015 A 
ATOM     30  C   UNL     1      -3.181  -2.546  24.503  0.00  0.00    +0.048 A 
ATOM     31  C   UNL     1      -3.271  -2.201  25.247  0.00  0.00    +0.015 A 
ATOM     32  C   UNL     1      -2.825  -1.537  25.450  0.00  0.00    +0.006 A 
BRANCH  30  33
ATOM     33  N   UNL     1      -3.626  -3.210  24.300  0.00  0.00    -0.304 N 
ATOM     34  C   UNL     1      -4.263  -3.137  23.780  0.00  0.00    +0.112 C 
ATOM     35  C   UNL     1      -3.436  -3.947  24.617  0.00  0.00    +0.112 C 
ENDBRANCH  30  33
ENDBRANCH  25  27
BRANCH  10   8
ATOM      7  N   UNL     1      -1.083   2.548  25.035  0.00  0.00    -0.194 NA
ATOM      8  C   UNL     1      -1.661   2.265  25.550  0.00  0.00    +0.262 C 
ATOM      9  O   UNL     1      -1.795   2.646  26.270  0.00  0.00    -0.271 OA
BRANCH   7   5
ATOM      5  C   UNL     1      -0.638   3.213  25.238  0.00  0.00    +0.194 C 
ATOM      6  C   UNL     1      -0.348   3.295  26.008  0.00  0.00    +0.035 C 
BRANCH   5   3
ATOM      3  C   UNL     1      -0.483   3.794  24.675  0.00  0.00    +0.337 C 
ATOM      4  O   UNL     1      -0.219   3.580  23.923  0.00  0.00    -0.248 OA
BRANCH   3   2
ATOM      1  C   UNL     1      -0.512   5.167  24.278  0.00  0.00    +0.256 C 
ATOM      2  O   UNL     1      -0.590   4.591  24.863  0.00  0.00    -0.443 OA
ENDBRANCH   3   2
ENDBRANCH   5   3
ENDBRANCH   7   5
ENDBRANCH  10   8
TORSDOF 7
ENDMDL
