MODEL 1
REMARK VINA RESULT:     -11.6      0.000      0.000
REMARK  Name = 
REMARK  7 active torsions:
REMARK  status: ('A' for Active; 'I' for Inactive)
REMARK    1  A    between atoms: N_2  and  C_3
REMARK    2  A    between atoms: N_2  and  C_24
REMARK    3  A    between atoms: C_3  and  C_4
REMARK    4  A    between atoms: C_11  and  C_12
REMARK    5  A    between atoms: C_12  and  N_13
REMARK    6  A    between atoms: N_13  and  S_14
REMARK    7  A    between atoms: S_14  and  C_17
REMARK                            x       y       z     vdW  Elec       q    Type
REMARK                         _______ _______ _______ _____ _____    ______ ____
ROOT
ATOM      4  C   UNL     1      -3.360   3.070  25.032  0.00  0.00    +0.036 C 
ATOM      5  C   UNL     1      -2.955   2.477  25.332  0.00  0.00    +0.074 C 
ATOM      6  N   UNL     1      -3.692   2.427  24.964  0.00  0.00    -0.272 NA
ATOM      7  C   UNL     1      -3.960   3.398  24.674  0.00  0.00    +0.072 C 
ATOM      8  C   UNL     1      -4.382   3.811  24.393  0.00  0.00    +0.017 C 
ATOM      9  C   UNL     1      -4.083   3.013  24.672  0.00  0.00    +0.006 C 
ATOM     10  C   UNL     1      -4.608   2.328  24.512  0.00  0.00    +0.018 C 
ATOM     11  C   UNL     1      -4.243   1.719  24.794  0.00  0.00    +0.077 C 
ENDROOT
BRANCH   4   3
ATOM      3  C   UNL     1      -3.024   3.823  25.085  0.00  0.00    +0.092 C 
BRANCH   3   2
ATOM      1  C   UNL     1      -2.257   3.566  26.263  0.00  0.00    +0.112 C 
ATOM      2  N   UNL     1      -2.341   3.938  25.531  0.00  0.00    -0.306 N 
BRANCH   2  24
ATOM     24  C   UNL     1      -1.740   4.426  25.247  0.00  0.00    +0.048 A 
ATOM     25  C   UNL     1      -1.025   4.099  24.996  0.00  0.00    +0.015 A 
ATOM     26  C   UNL     1      -0.424   4.587  24.712  0.00  0.00    +0.001 A 
ATOM     27  C   UNL     1      -0.537   5.403  24.677  0.00  0.00    +0.000 A 
ATOM     28  C   UNL     1      -1.252   5.731  24.927  0.00  0.00    +0.001 A 
ATOM     29  C   UNL     1      -1.853   5.243  25.212  0.00  0.00    +0.015 A 
ENDBRANCH   2  24
ENDBRANCH   3   2
ENDBRANCH   4   3
BRANCH  11  12
ATOM     12  C   UNL     1      -4.308   0.903  24.889  0.00  0.00    +0.131 C 
BRANCH  12  13
ATOM     13  N   UNL     1      -4.324   0.410  24.228  0.00  0.00    -0.076 NA
BRANCH  13  14
ATOM     14  S   UNL     1      -4.135  -0.389  24.306  0.00  0.00    +0.077 S 
ATOM     15  O   UNL     1      -3.604  -0.326  23.679  0.00  0.00    -0.152 OA
ATOM     16  O   UNL     1      -4.667  -0.453  24.934  0.00  0.00    -0.152 OA
BRANCH  14  17
ATOM     17  C   UNL     1      -3.946  -1.189  24.384  0.00  0.00    +0.124 A 
ATOM     18  C   UNL     1      -4.280  -1.743  23.873  0.00  0.00    +0.021 A 
ATOM     19  C   UNL     1      -4.092  -2.543  23.952  0.00  0.00    +0.013 A 
ATOM     20  C   UNL     1      -3.570  -2.788  24.541  0.00  0.00    +0.058 A 
ATOM     21 CL   UNL     1      -3.381  -3.586  24.620  0.00  0.00    -0.082 Cl
ATOM     22  C   UNL     1      -3.236  -2.233  25.053  0.00  0.00    +0.013 A 
ATOM     23  C   UNL     1      -3.424  -1.434  24.974  0.00  0.00    +0.021 A 
ENDBRANCH  14  17
ENDBRANCH  13  14
ENDBRANCH  12  13
ENDBRANCH  11  12
TORSDOF 7
ENDMDL
MODEL 2
REMARK VINA RESULT:     -11.4      2.907      6.216
REMARK  Name = 
REMARK  7 active torsions:
REMARK  status: ('A' for Active; 'I' for Inactive)
REMARK    1  A    between atoms: N_2  and  C_3
REMARK    2  A    between atoms: N_2  and  C_24
REMARK    3  A    between atoms: C_3  and  C_4
REMARK    4  A    between atoms: C_11  and  C_12
REMARK    5  A    between atoms: C_12  and  N_13
REMARK    6  A    between atoms: N_13  and  S_14
REMARK    7  A    between atoms: S_14  and  C_17
REMARK                            x       y       z     vdW  Elec       q    Type
REMARK                         _______ _______ _______ _____ _____    ______ ____
ROOT
ATOM      4  C   UNL     1      -1.805  -0.531  25.180  0.00  0.00    +0.036 C 
ATOM      5  C   UNL     1      -2.273   0.035  25.437  0.00  0.00    +0.074 C 
ATOM      6  N   UNL     1      -1.464   0.101  25.291  0.00  0.00    -0.272 NA
ATOM      7  C   UNL     1      -1.131  -0.835  24.956  0.00  0.00    +0.072 C 
ATOM      8  C   UNL     1      -0.651  -1.225  24.746  0.00  0.00    +0.017 C 
ATOM      9  C   UNL     1      -1.011  -0.458  25.039  0.00  0.00    +0.006 C 
ATOM     10  C   UNL     1      -0.459   0.220  25.120  0.00  0.00    +0.018 C 
ATOM     11  C   UNL     1      -0.884   0.802  25.373  0.00  0.00    +0.077 C 
ENDROOT
BRANCH   4   3
ATOM      3  C   UNL     1      -2.146  -1.270  25.038  0.00  0.00    +0.092 C 
BRANCH   3   2
ATOM      1  C   UNL     1      -3.266  -1.056  25.899  0.00  0.00    +0.112 C 
ATOM      2  N   UNL     1      -2.938  -1.400  25.224  0.00  0.00    -0.306 N 
BRANCH   2  24
ATOM     24  C   UNL     1      -3.404  -1.873  24.735  0.00  0.00    +0.048 A 
ATOM     25  C   UNL     1      -3.953  -1.527  24.226  0.00  0.00    +0.015 A 
ATOM     26  C   UNL     1      -4.419  -2.001  23.737  0.00  0.00    +0.001 A 
ATOM     27  C   UNL     1      -4.336  -2.822  23.756  0.00  0.00    +0.000 A 
ATOM     28  C   UNL     1      -3.787  -3.168  24.266  0.00  0.00    +0.001 A 
ATOM     29  C   UNL     1      -3.321  -2.694  24.754  0.00  0.00    +0.015 A 
ENDBRANCH   2  24
ENDBRANCH   3   2
ENDBRANCH   4   3
BRANCH  11  12
ATOM     12  C   UNL     1      -0.843   1.595  25.592  0.00  0.00    +0.131 C 
BRANCH  12  13
ATOM     13  N   UNL     1      -0.469   2.141  25.099  0.00  0.00    -0.076 NA
BRANCH  13  14
ATOM     14  S   UNL     1      -0.712   2.929  25.097  0.00  0.00    +0.077 S 
ATOM     15  O   UNL     1      -0.567   2.977  25.907  0.00  0.00    -0.152 OA
ATOM     16  O   UNL     1      -0.858   2.881  24.286  0.00  0.00    -0.152 OA
BRANCH  14  17
ATOM     17  C   UNL     1      -0.956   3.717  25.094  0.00  0.00    +0.124 A 
ATOM     18  C   UNL     1      -0.467   4.299  24.773  0.00  0.00    +0.021 A 
ATOM     19  C   UNL     1      -0.710   5.087  24.771  0.00  0.00    +0.013 A 
ATOM     20  C   UNL     1      -1.443   5.294  25.089  0.00  0.00    +0.058 A 
ATOM     21 CL   UNL     1      -1.687   6.082  25.086  0.00  0.00    -0.082 Cl
ATOM     22  C   UNL     1      -1.932   4.713  25.410  0.00  0.00    +0.013 A 
ATOM     23  C   UNL     1      -1.688   3.924  25.412  0.00  0.00    +0.021 A 
ENDBRANCH  14  17
ENDBRANCH  13  14
ENDBRANCH  12  13
ENDBRANCH  11  12
TORSDOF 7
ENDMDL
MODEL 3
REMARK VINA RESULT:     -11.1      2.433      5.734
REMARK  Name = 
REMARK  7 active torsions:
REMARK  status: ('A' for Active; 'I' for Inactive)
REMARK    1  A    between atoms: N_2  and  C_3
REMARK    2  A    between atoms: N_2  and  C_24
REMARK    3  A    between atoms: C_3  and  C_4
REMARK    4  A    between atoms: C_11  and  C_12
REMARK    5  A    between atoms: C_12  and  N_13
REMARK    6  A    between atoms: N_13  and  S_14
REMARK    7  A    between atoms: S_14  and  C_17
REMARK                            x       y       z     vdW  Elec       q    Type
REMARK                         _______ _______ _______ _____ _____    ______ ____
ROOT
ATOM      4  C   UNL     1      -4.244   0.672  24.648  0.00  0.00    +0.036 C 
ATOM      5  C   UNL     1      -3.613   0.967  24.302  0.00  0.00    +0.074 C 
ATOM      6  N   UNL     1      -4.177   1.391  24.730  0.00  0.00    -0.272 NA
ATOM      7  C   UNL     1      -4.894   0.704  25.064  0.00  0.00    +0.072 C 
ATOM      8  C   UNL     1      -5.446   0.570  25.388  0.00  0.00    +0.017 C 
ATOM      9  C   UNL     1      -4.793   1.095  25.067  0.00  0.00    +0.006 C 
ATOM     10  C   UNL     1      -4.858   1.950  25.255  0.00  0.00    +0.018 C 
ATOM     11  C   UNL     1      -4.251   2.279  24.929  0.00  0.00    +0.077 C 
ENDROOT
BRANCH   4   3
ATOM      3  C   UNL     1      -4.365  -0.143  24.584  0.00  0.00    +0.092 C 
BRANCH   3   2
ATOM      1  C   UNL     1      -3.377  -0.247  23.558  0.00  0.00    +0.112 C 
ATOM      2  N   UNL     1      -3.850  -0.601  24.133  0.00  0.00    -0.306 N 
BRANCH   2  24
ATOM     24  C   UNL     1      -3.807  -1.416  24.258  0.00  0.00    +0.048 A 
ATOM     25  C   UNL     1      -3.306  -1.719  24.839  0.00  0.00    +0.015 A 
ATOM     26  C   UNL     1      -3.263  -2.533  24.964  0.00  0.00    +0.001 A 
ATOM     27  C   UNL     1      -3.720  -3.045  24.507  0.00  0.00    +0.000 A 
ATOM     28  C   UNL     1      -4.221  -2.742  23.925  0.00  0.00    +0.001 A 
ATOM     29  C   UNL     1      -4.264  -1.928  23.801  0.00  0.00    +0.015 A 
ENDBRANCH   2  24
ENDBRANCH   3   2
ENDBRANCH   4   3
BRANCH  11  12
ATOM     12  C   UNL     1      -3.880   3.007  24.821  0.00  0.00    +0.131 C 
BRANCH  12  13
ATOM     13  N   UNL     1      -3.492   3.371  25.452  0.00  0.00    -0.076 NA
BRANCH  13  14
ATOM     14  S   UNL     1      -2.821   3.829  25.313  0.00  0.00    +0.077 S 
ATOM     15  O   UNL     1      -3.184   4.162  24.652  0.00  0.00    -0.152 OA
ATOM     16  O   UNL     1      -2.458   3.497  25.975  0.00  0.00    -0.152 OA
BRANCH  14  17
ATOM     17  C   UNL     1      -2.149   4.288  25.175  0.00  0.00    +0.124 A 
ATOM     18  C   UNL     1      -2.198   5.111  25.208  0.00  0.00    +0.021 A 
ATOM     19  C   UNL     1      -1.526   5.570  25.070  0.00  0.00    +0.013 A 
ATOM     20  C   UNL     1      -0.805   5.206  24.899  0.00  0.00    +0.058 A 
ATOM     21 CL   UNL     1      -0.134   5.663  24.761  0.00  0.00    -0.082 Cl
ATOM     22  C   UNL     1      -0.757   4.383  24.866  0.00  0.00    +0.013 A 
ATOM     23  C   UNL     1      -1.429   3.924  25.004  0.00  0.00    +0.021 A 
ENDBRANCH  14  17
ENDBRANCH  13  14
ENDBRANCH  12  13
ENDBRANCH  11  12
TORSDOF 7
ENDMDL
MODEL 4
REMARK VINA RESULT:     -10.5      1.746      2.426
REMARK  Name = 
REMARK  7 active torsions:
REMARK  status: ('A' for Active; 'I' for Inactive)
REMARK    1  A    between atoms: N_2  and  C_3
REMARK    2  A    between atoms: N_2  and  C_24
REMARK    3  A    between atoms: C_3  and  C_4
REMARK    4  A    between atoms: C_11  and  C_12
REMARK    5  A    between atoms: C_12  and  N_13
REMARK    6  A    between atoms: N_13  and  S_14
REMARK    7  A    between atoms: S_14  and  C_17
REMARK                            x       y       z     vdW  Elec       q    Type
REMARK                         _______ _______ _______ _____ _____    ______ ____
ROOT
ATOM      4  C   UNL     1      -0.924   2.055  25.219  0.00  0.00    +0.036 C 
ATOM      5  C   UNL     1      -1.366   1.805  24.629  0.00  0.00    +0.074 C 
ATOM      6  N   UNL     1      -1.039   1.337  25.224  0.00  0.00    -0.272 NA
ATOM      7  C   UNL     1      -0.502   1.975  25.860  0.00  0.00    +0.072 C 
ATOM      8  C   UNL     1      -0.129   2.068  26.388  0.00  0.00    +0.017 C 
ATOM      9  C   UNL     1      -0.607   1.589  25.800  0.00  0.00    +0.006 C 
ATOM     10  C   UNL     1      -0.648   0.725  25.949  0.00  0.00    +0.018 C 
ATOM     11  C   UNL     1      -1.077   0.440  25.386  0.00  0.00    +0.077 C 
ENDROOT
BRANCH   4   3
ATOM      3  C   UNL     1      -0.766   2.865  25.256  0.00  0.00    +0.092 C 
BRANCH   3   2
ATOM      1  C   UNL     1      -1.142   3.079  23.895  0.00  0.00    +0.112 C 
ATOM      2  N   UNL     1      -1.039   3.366  24.662  0.00  0.00    -0.306 N 
BRANCH   2  24
ATOM     24  C   UNL     1      -1.209   4.154  24.833  0.00  0.00    +0.048 A 
ATOM     25  C   UNL     1      -0.641   4.738  24.704  0.00  0.00    +0.015 A 
ATOM     26  C   UNL     1      -0.811   5.526  24.875  0.00  0.00    +0.001 A 
ATOM     27  C   UNL     1      -1.551   5.733  25.177  0.00  0.00    +0.000 A 
ATOM     28  C   UNL     1      -2.120   5.149  25.306  0.00  0.00    +0.001 A 
ATOM     29  C   UNL     1      -1.949   4.361  25.135  0.00  0.00    +0.015 A 
ENDBRANCH   2  24
ENDBRANCH   3   2
ENDBRANCH   4   3
BRANCH  11  12
ATOM     12  C   UNL     1      -1.390  -0.265  25.095  0.00  0.00    +0.131 C 
BRANCH  12  13
ATOM     13  N   UNL     1      -1.955  -0.678  25.532  0.00  0.00    -0.076 NA
BRANCH  13  14
ATOM     14  S   UNL     1      -2.509  -1.152  25.147  0.00  0.00    +0.077 S 
ATOM     15  O   UNL     1      -1.910  -1.482  24.688  0.00  0.00    -0.152 OA
ATOM     16  O   UNL     1      -3.110  -0.821  25.607  0.00  0.00    -0.152 OA
BRANCH  14  17
ATOM     17  C   UNL     1      -3.065  -1.625  24.762  0.00  0.00    +0.124 A 
ATOM     18  C   UNL     1      -3.032  -2.446  24.840  0.00  0.00    +0.021 A 
ATOM     19  C   UNL     1      -3.588  -2.919  24.454  0.00  0.00    +0.013 A 
ATOM     20  C   UNL     1      -4.176  -2.572  23.992  0.00  0.00    +0.058 A 
ATOM     21 CL   UNL     1      -4.731  -3.044  23.607  0.00  0.00    -0.082 Cl
ATOM     22  C   UNL     1      -4.209  -1.751  23.914  0.00  0.00    +0.013 A 
ATOM     23  C   UNL     1      -3.653  -1.278  24.299  0.00  0.00    +0.021 A 
ENDBRANCH  14  17
ENDBRANCH  13  14
ENDBRANCH  12  13
ENDBRANCH  11  12
TORSDOF 7
ENDMDL
MODEL 5
REMARK VINA RESULT:      -9.1      3.594      4.876
REMARK  Name = 
REMARK  7 active torsions:
REMARK  status: ('A' for Active; 'I' for Inactive)
REMARK    1  A    between atoms: N_2  and  C_3
REMARK    2  A    between atoms: N_2  and  C_24
REMARK    3  A    between atoms: C_3  and  C_4
REMARK    4  A    between atoms: C_11  and  C_12
REMARK    5  A    between atoms: C_12  and  N_13
REMARK    6  A    between atoms: N_13  and  S_14
REMARK    7  A    between atoms: S_14  and  C_17
REMARK                            x       y       z     vdW  Elec       q    Type
REMARK                         _______ _______ _______ _____ _____    ______ ____
ROOT
ATOM      4  C   UNL     1      -2.922   1.098  24.393  0.00  0.00    +0.036 C 
ATOM      5  C   UNL     1      -2.526   1.648  24.009  0.00  0.00    +0.074 C 
ATOM      6  N   UNL     1      -2.246   0.899  24.215  0.00  0.00    -0.272 NA
ATOM      7  C   UNL     1      -3.021   0.406  24.721  0.00  0.00    +0.072 C 
ATOM      8  C   UNL     1      -3.252  -0.120  25.030  0.00  0.00    +0.017 C 
ATOM      9  C   UNL     1      -2.640   0.365  24.591  0.00  0.00    +0.006 C 
ATOM     10  C   UNL     1      -1.865  -0.023  24.454  0.00  0.00    +0.018 C 
ATOM     11  C   UNL     1      -1.442   0.488  24.076  0.00  0.00    +0.077 C 
ENDROOT
BRANCH   4   3
ATOM      3  C   UNL     1      -3.696   1.277  24.617  0.00  0.00    +0.092 C 
BRANCH   3   2
ATOM      1  C   UNL     1      -3.752   2.391  23.723  0.00  0.00    +0.112 C 
ATOM      2  N   UNL     1      -4.037   1.992  24.387  0.00  0.00    -0.306 N 
BRANCH   2  24
ATOM     24  C   UNL     1      -4.662   2.309  24.821  0.00  0.00    +0.048 A 
ATOM     25  C   UNL     1      -4.553   2.998  25.261  0.00  0.00    +0.015 A 
ATOM     26  C   UNL     1      -5.178   3.315  25.695  0.00  0.00    +0.001 A 
ATOM     27  C   UNL     1      -5.915   2.943  25.690  0.00  0.00    +0.000 A 
ATOM     28  C   UNL     1      -6.024   2.254  25.250  0.00  0.00    +0.001 A 
ATOM     29  C   UNL     1      -5.399   1.937  24.816  0.00  0.00    +0.015 A 
ENDBRANCH   2  24
ENDBRANCH   3   2
ENDBRANCH   4   3
BRANCH  11  12
ATOM     12  C   UNL     1      -0.698   0.602  23.741  0.00  0.00    +0.131 C 
BRANCH  12  13
ATOM     13  N   UNL     1      -0.092   0.062  23.886  0.00  0.00    -0.076 NA
BRANCH  13  14
ATOM     14  S   UNL     1       0.645   0.164  23.532  0.00  0.00    +0.077 S 
ATOM     15  O   UNL     1       0.580  -0.577  23.178  0.00  0.00    -0.152 OA
ATOM     16  O   UNL     1       0.711   0.907  23.886  0.00  0.00    -0.152 OA
BRANCH  14  17
ATOM     17  C   UNL     1       1.384   0.268  23.178  0.00  0.00    +0.124 A 
ATOM     18  C   UNL     1       1.899   0.846  23.461  0.00  0.00    +0.021 A 
ATOM     19  C   UNL     1       2.638   0.950  23.107  0.00  0.00    +0.013 A 
ATOM     20  C   UNL     1       2.860   0.475  22.470  0.00  0.00    +0.058 A 
ATOM     21 CL   UNL     1       3.597   0.579  22.116  0.00  0.00    -0.082 Cl
ATOM     22  C   UNL     1       2.344  -0.103  22.187  0.00  0.00    +0.013 A 
ATOM     23  C   UNL     1       1.606  -0.206  22.541  0.00  0.00    +0.021 A 
ENDBRANCH  14  17
ENDBRANCH  13  14
ENDBRANCH  12  13
ENDBRANCH  11  12
TORSDOF 7
ENDMDL
