MODEL 1
REMARK VINA RESULT:     -10.7      0.000      0.000
REMARK  Name = 
REMARK  3 active torsions:
REMARK  status: ('A' for Active; 'I' for Inactive)
REMARK    1  A    between atoms: C_3  and  C_4
REMARK    2  A    between atoms: N_6  and  C_7
REMARK    3  A    between atoms: C_13  and  C_14
REMARK                            x       y       z     vdW  Elec       q    Type
REMARK                         _______ _______ _______ _____ _____    ______ ____
ROOT
ATOM      7  C   UNL     1      -3.871   0.947  24.672  0.00  0.00    +0.133 C 
ATOM      8  C   UNL     1      -4.323   1.623  24.812  0.00  0.00    +0.202 C 
ATOM      9  O   UNL     1      -4.102   2.399  24.640  0.00  0.00    -0.219 OA
ATOM     10  C   UNL     1      -5.035   1.386  25.154  0.00  0.00    +0.184 C 
ATOM     11  O   UNL     1      -5.651   1.883  25.385  0.00  0.00    -0.220 OA
ATOM     12  C   UNL     1      -5.022   0.564  25.226  0.00  0.00    +0.042 C 
ATOM     13  C   UNL     1      -4.303   0.293  24.928  0.00  0.00    +0.049 C 
ENDROOT
BRANCH  13  14
ATOM     14  C   UNL     1      -4.058  -0.494  24.891  0.00  0.00    -0.002 A 
ATOM     15  C   UNL     1      -4.121  -0.913  24.184  0.00  0.00    -0.001 A 
ATOM     16  C   UNL     1      -3.876  -1.700  24.148  0.00  0.00    +0.020 A 
ATOM     17  C   UNL     1      -3.569  -2.069  24.819  0.00  0.00    +0.099 A 
ATOM     18  N   UNL     1      -3.506  -1.649  25.527  0.00  0.00    -0.243 NA
ATOM     19  C   UNL     1      -3.750  -0.862  25.563  0.00  0.00    +0.095 A 
ENDBRANCH  13  14
BRANCH   7   6
ATOM      4  C   UNL     1      -2.542   1.467  24.582  0.00  0.00    +0.269 C 
ATOM      5  O   UNL     1      -2.720   2.022  25.166  0.00  0.00    -0.268 OA
ATOM      6  N   UNL     1      -3.117   0.929  24.335  0.00  0.00    -0.200 NA
BRANCH   4   3
ATOM      1  C   UNL     1      -2.142   1.842  22.873  0.00  0.00    +0.076 C 
ATOM      2  C   UNL     1      -1.605   1.621  23.460  0.00  0.00    +0.159 A 
ATOM      3  C   UNL     1      -1.789   1.449  24.245  0.00  0.00    +0.105 A 
ATOM     20  C   UNL     1      -1.088   1.256  24.635  0.00  0.00    +0.105 A 
ATOM     21  C   UNL     1      -1.017   1.047  25.430  0.00  0.00    +0.056 C 
ATOM     22  N   UNL     1      -0.471   1.309  24.090  0.00  0.00    -0.082 NA
ATOM     23  O   UNL     1      -0.790   1.535  23.364  0.00  0.00    -0.358 OA
ENDBRANCH   4   3
ENDBRANCH   7   6
TORSDOF 3
ENDMDL
MODEL 2
REMARK VINA RESULT:     -10.7      1.512      3.197
REMARK  Name = 
REMARK  3 active torsions:
REMARK  status: ('A' for Active; 'I' for Inactive)
REMARK    1  A    between atoms: C_3  and  C_4
REMARK    2  A    between atoms: N_6  and  C_7
REMARK    3  A    between atoms: C_13  and  C_14
REMARK                            x       y       z     vdW  Elec       q    Type
REMARK                         _______ _______ _______ _____ _____    ______ ____
ROOT
ATOM      7  C   UNL     1      -3.438   1.670  24.024  0.00  0.00    +0.133 C 
ATOM      8  C   UNL     1      -3.190   2.162  23.410  0.00  0.00    +0.202 C 
ATOM      9  O   UNL     1      -3.331   2.973  23.350  0.00  0.00    -0.219 OA
ATOM     10  C   UNL     1      -2.775   1.701  22.866  0.00  0.00    +0.184 C 
ATOM     11  O   UNL     1      -2.429   1.968  22.167  0.00  0.00    -0.220 OA
ATOM     12  C   UNL     1      -2.768   0.924  23.145  0.00  0.00    +0.042 C 
ATOM     13  C   UNL     1      -3.178   0.905  23.860  0.00  0.00    +0.049 C 
ENDROOT
BRANCH  13  14
ATOM     14  C   UNL     1      -3.304   0.239  24.330  0.00  0.00    -0.002 A 
ATOM     15  C   UNL     1      -3.867  -0.321  24.107  0.00  0.00    -0.001 A 
ATOM     16  C   UNL     1      -3.993  -0.988  24.576  0.00  0.00    +0.020 A 
ATOM     17  C   UNL     1      -3.558  -1.094  25.268  0.00  0.00    +0.099 A 
ATOM     18  N   UNL     1      -2.995  -0.533  25.492  0.00  0.00    -0.243 NA
ATOM     19  C   UNL     1      -2.868   0.133  25.022  0.00  0.00    +0.095 A 
ENDBRANCH  13  14
BRANCH   7   6
ATOM      4  C   UNL     1      -4.508   2.423  24.601  0.00  0.00    +0.269 C 
ATOM      5  O   UNL     1      -4.710   2.709  23.854  0.00  0.00    -0.268 OA
ATOM      6  N   UNL     1      -3.872   1.904  24.686  0.00  0.00    -0.200 NA
BRANCH   4   3
ATOM      1  C   UNL     1      -3.967   3.578  25.863  0.00  0.00    +0.076 C 
ATOM      2  C   UNL     1      -4.693   3.187  25.843  0.00  0.00    +0.159 A 
ATOM      3  C   UNL     1      -4.942   2.656  25.264  0.00  0.00    +0.105 A 
ATOM     20  C   UNL     1      -5.699   2.399  25.462  0.00  0.00    +0.105 A 
ATOM     21  C   UNL     1      -6.158   1.863  25.032  0.00  0.00    +0.056 C 
ATOM     22  N   UNL     1      -5.919   2.771  26.164  0.00  0.00    -0.082 NA
ATOM     23  O   UNL     1      -5.298   3.258  26.400  0.00  0.00    -0.358 OA
ENDBRANCH   4   3
ENDBRANCH   7   6
TORSDOF 3
ENDMDL
MODEL 3
REMARK VINA RESULT:     -10.4      1.439      3.042
REMARK  Name = 
REMARK  3 active torsions:
REMARK  status: ('A' for Active; 'I' for Inactive)
REMARK    1  A    between atoms: C_3  and  C_4
REMARK    2  A    between atoms: N_6  and  C_7
REMARK    3  A    between atoms: C_13  and  C_14
REMARK                            x       y       z     vdW  Elec       q    Type
REMARK                         _______ _______ _______ _____ _____    ______ ____
ROOT
ATOM      7  C   UNL     1      -4.143   0.974  24.528  0.00  0.00    +0.133 C 
ATOM      8  C   UNL     1      -4.883   1.087  24.876  0.00  0.00    +0.202 C 
ATOM      9  O   UNL     1      -5.386   0.494  25.149  0.00  0.00    -0.219 OA
ATOM     10  C   UNL     1      -5.030   1.898  24.901  0.00  0.00    +0.184 C 
ATOM     11  O   UNL     1      -5.707   2.259  25.204  0.00  0.00    -0.220 OA
ATOM     12  C   UNL     1      -4.382   2.286  24.569  0.00  0.00    +0.042 C 
ATOM     13  C   UNL     1      -3.833   1.715  24.339  0.00  0.00    +0.049 C 
ENDROOT
BRANCH  13  14
ATOM     14  C   UNL     1      -3.103   1.859  23.983  0.00  0.00    -0.002 A 
ATOM     15  C   UNL     1      -3.014   1.753  23.170  0.00  0.00    -0.001 A 
ATOM     16  C   UNL     1      -2.284   1.897  22.813  0.00  0.00    +0.020 A 
ATOM     17  C   UNL     1      -1.644   2.147  23.269  0.00  0.00    +0.099 A 
ATOM     18  N   UNL     1      -1.734   2.254  24.083  0.00  0.00    -0.243 NA
ATOM     19  C   UNL     1      -2.464   2.110  24.440  0.00  0.00    +0.095 A 
ENDBRANCH  13  14
BRANCH   7   6
ATOM      4  C   UNL     1      -3.804  -0.341  24.972  0.00  0.00    +0.269 C 
ATOM      5  O   UNL     1      -4.197  -0.203  25.684  0.00  0.00    -0.268 OA
ATOM      6  N   UNL     1      -3.776   0.247  24.394  0.00  0.00    -0.200 NA
BRANCH   4   3
ATOM      1  C   UNL     1      -4.354  -1.603  23.819  0.00  0.00    +0.076 C 
ATOM      2  C   UNL     1      -3.690  -1.648  24.308  0.00  0.00    +0.159 A 
ATOM      3  C   UNL     1      -3.437  -1.069  24.837  0.00  0.00    +0.105 A 
ATOM     20  C   UNL     1      -2.755  -1.344  25.209  0.00  0.00    +0.105 A 
ATOM     21  C   UNL     1      -2.317  -0.940  25.781  0.00  0.00    +0.056 C 
ATOM     22  N   UNL     1      -2.585  -2.093  24.909  0.00  0.00    -0.082 NA
ATOM     23  O   UNL     1      -3.163  -2.282  24.352  0.00  0.00    -0.358 OA
ENDBRANCH   4   3
ENDBRANCH   7   6
TORSDOF 3
ENDMDL
MODEL 4
REMARK VINA RESULT:     -10.1      1.708      2.681
REMARK  Name = 
REMARK  3 active torsions:
REMARK  status: ('A' for Active; 'I' for Inactive)
REMARK    1  A    between atoms: C_3  and  C_4
REMARK    2  A    between atoms: N_6  and  C_7
REMARK    3  A    between atoms: C_13  and  C_14
REMARK                            x       y       z     vdW  Elec       q    Type
REMARK                         _______ _______ _______ _____ _____    ______ ____
ROOT
ATOM      7  C   UNL     1      -2.652   0.653  24.755  0.00  0.00    +0.133 C 
ATOM      8  C   UNL     1      -2.720  -0.134  24.993  0.00  0.00    +0.202 C 
ATOM      9  O   UNL     1      -2.098  -0.665  25.100  0.00  0.00    -0.219 OA
ATOM     10  C   UNL     1      -3.521  -0.296  25.106  0.00  0.00    +0.184 C 
ATOM     11  O   UNL     1      -3.841  -1.018  25.346  0.00  0.00    -0.220 OA
ATOM     12  C   UNL     1      -3.947   0.391  24.937  0.00  0.00    +0.042 C 
ATOM     13  C   UNL     1      -3.409   0.977  24.720  0.00  0.00    +0.049 C 
ENDROOT
BRANCH  13  14
ATOM     14  C   UNL     1      -3.596   1.752  24.506  0.00  0.00    -0.002 A 
ATOM     15  C   UNL     1      -3.580   1.975  23.713  0.00  0.00    -0.001 A 
ATOM     16  C   UNL     1      -3.767   2.749  23.498  0.00  0.00    +0.020 A 
ATOM     17  C   UNL     1      -3.970   3.301  24.078  0.00  0.00    +0.099 A 
ATOM     18  N   UNL     1      -3.986   3.076  24.872  0.00  0.00    -0.243 NA
ATOM     19  C   UNL     1      -3.799   2.302  25.086  0.00  0.00    +0.095 A 
ENDBRANCH  13  14
BRANCH   7   6
ATOM      4  C   UNL     1      -1.294   0.962  25.078  0.00  0.00    +0.269 C 
ATOM      5  O   UNL     1      -1.345   0.484  25.748  0.00  0.00    -0.268 OA
ATOM      6  N   UNL     1      -1.947   1.046  24.581  0.00  0.00    -0.200 NA
BRANCH   4   3
ATOM      1  C   UNL     1      -0.220   0.634  23.678  0.00  0.00    +0.076 C 
ATOM      2  C   UNL     1      -0.096   1.204  24.261  0.00  0.00    +0.159 A 
ATOM      3  C   UNL     1      -0.590   1.355  24.904  0.00  0.00    +0.105 A 
ATOM     20  C   UNL     1      -0.256   1.968  25.343  0.00  0.00    +0.105 A 
ATOM     21  C   UNL     1      -0.568   2.296  26.033  0.00  0.00    +0.056 C 
ATOM     22  N   UNL     1       0.444   2.197  24.971  0.00  0.00    -0.082 NA
ATOM     23  O   UNL     1       0.543   1.725  24.302  0.00  0.00    -0.358 OA
ENDBRANCH   4   3
ENDBRANCH   7   6
TORSDOF 3
ENDMDL
MODEL 5
REMARK VINA RESULT:     -10.0      1.550      3.352
REMARK  Name = 
REMARK  3 active torsions:
REMARK  status: ('A' for Active; 'I' for Inactive)
REMARK    1  A    between atoms: C_3  and  C_4
REMARK    2  A    between atoms: N_6  and  C_7
REMARK    3  A    between atoms: C_13  and  C_14
REMARK                            x       y       z     vdW  Elec       q    Type
REMARK                         _______ _______ _______ _____ _____    ______ ____
ROOT
ATOM      7  C   UNL     1      -3.138   1.675  24.006  0.00  0.00    +0.133 C 
ATOM      8  C   UNL     1      -2.712   1.668  23.299  0.00  0.00    +0.202 C 
ATOM      9  O   UNL     1      -2.126   1.127  23.090  0.00  0.00    -0.219 OA
ATOM     10  C   UNL     1      -2.976   2.299  22.838  0.00  0.00    +0.184 C 
ATOM     11  O   UNL     1      -2.701   2.500  22.087  0.00  0.00    -0.220 OA
ATOM     12  C   UNL     1      -3.564   2.695  23.261  0.00  0.00    +0.042 C 
ATOM     13  C   UNL     1      -3.664   2.309  23.982  0.00  0.00    +0.049 C 
ENDROOT
BRANCH  13  14
ATOM     14  C   UNL     1      -4.197   2.520  24.576  0.00  0.00    -0.002 A 
ATOM     15  C   UNL     1      -4.984   2.278  24.528  0.00  0.00    -0.001 A 
ATOM     16  C   UNL     1      -5.516   2.489  25.122  0.00  0.00    +0.020 A 
ATOM     17  C   UNL     1      -5.262   2.941  25.763  0.00  0.00    +0.099 A 
ATOM     18  N   UNL     1      -4.474   3.183  25.811  0.00  0.00    -0.243 NA
ATOM     19  C   UNL     1      -3.942   2.972  25.217  0.00  0.00    +0.095 A 
ENDBRANCH  13  14
BRANCH   7   6
ATOM      4  C   UNL     1      -2.987   0.332  24.472  0.00  0.00    +0.269 C 
ATOM      5  O   UNL     1      -3.009   0.059  23.694  0.00  0.00    -0.268 OA
ATOM      6  N   UNL     1      -3.051   1.139  24.628  0.00  0.00    -0.200 NA
BRANCH   4   3
ATOM      1  C   UNL     1      -1.560   0.190  25.551  0.00  0.00    +0.076 C 
ATOM      2  C   UNL     1      -2.245  -0.268  25.590  0.00  0.00    +0.159 A 
ATOM      3  C   UNL     1      -2.900  -0.204  25.094  0.00  0.00    +0.105 A 
ATOM     20  C   UNL     1      -3.454  -0.767  25.329  0.00  0.00    +0.105 A 
ATOM     21  C   UNL     1      -4.193  -0.896  24.983  0.00  0.00    +0.056 C 
ATOM     22  N   UNL     1      -3.141  -1.181  25.970  0.00  0.00    -0.082 NA
ATOM     23  O   UNL     1      -2.393  -0.873  26.132  0.00  0.00    -0.358 OA
ENDBRANCH   4   3
ENDBRANCH   7   6
TORSDOF 3
ENDMDL
MODEL 6
REMARK VINA RESULT:      -9.9      1.870      3.073
REMARK  Name = 
REMARK  3 active torsions:
REMARK  status: ('A' for Active; 'I' for Inactive)
REMARK    1  A    between atoms: C_3  and  C_4
REMARK    2  A    between atoms: N_6  and  C_7
REMARK    3  A    between atoms: C_13  and  C_14
REMARK                            x       y       z     vdW  Elec       q    Type
REMARK                         _______ _______ _______ _____ _____    ______ ____
ROOT
ATOM      7  C   UNL     1      -3.430  -0.963  24.555  0.00  0.00    +0.133 C 
ATOM      8  C   UNL     1      -4.028  -1.449  24.259  0.00  0.00    +0.202 C 
ATOM      9  O   UNL     1      -4.777  -1.204  24.015  0.00  0.00    -0.219 OA
ATOM     10  C   UNL     1      -3.744  -2.224  24.250  0.00  0.00    +0.184 C 
ATOM     11  O   UNL     1      -4.160  -2.889  23.995  0.00  0.00    -0.220 OA
ATOM     12  C   UNL     1      -2.972  -2.216  24.540  0.00  0.00    +0.042 C 
ATOM     13  C   UNL     1      -2.778  -1.437  24.728  0.00  0.00    +0.049 C 
ENDROOT
BRANCH  13  14
ATOM     14  C   UNL     1      -2.058  -1.177  25.036  0.00  0.00    -0.002 A 
ATOM     15  C   UNL     1      -2.006  -0.949  25.826  0.00  0.00    -0.001 A 
ATOM     16  C   UNL     1      -1.286  -0.689  26.134  0.00  0.00    +0.020 A 
ATOM     17  C   UNL     1      -0.618  -0.657  25.651  0.00  0.00    +0.099 A 
ATOM     18  N   UNL     1      -0.670  -0.886  24.860  0.00  0.00    -0.243 NA
ATOM     19  C   UNL     1      -1.390  -1.146  24.552  0.00  0.00    +0.095 A 
ENDBRANCH  13  14
BRANCH   7   6
ATOM      4  C   UNL     1      -3.761   0.332  24.048  0.00  0.00    +0.269 C 
ATOM      5  O   UNL     1      -3.997  -0.007  23.334  0.00  0.00    -0.268 OA
ATOM      6  N   UNL     1      -3.478  -0.146  24.658  0.00  0.00    -0.200 NA
BRANCH   4   3
ATOM      1  C   UNL     1      -4.844   1.188  25.195  0.00  0.00    +0.076 C 
ATOM      2  C   UNL     1      -4.306   1.542  24.679  0.00  0.00    +0.159 A 
ATOM      3  C   UNL     1      -3.808   1.149  24.152  0.00  0.00    +0.105 A 
ATOM     20  C   UNL     1      -3.366   1.716  23.748  0.00  0.00    +0.105 A 
ATOM     21  C   UNL     1      -2.799   1.565  23.168  0.00  0.00    +0.056 C 
ATOM     22  N   UNL     1      -3.591   2.460  24.025  0.00  0.00    -0.082 NA
ATOM     23  O   UNL     1      -4.172   2.353  24.600  0.00  0.00    -0.358 OA
ENDBRANCH   4   3
ENDBRANCH   7   6
TORSDOF 3
ENDMDL
MODEL 7
REMARK VINA RESULT:      -9.8      2.149      2.820
REMARK  Name = 
REMARK  3 active torsions:
REMARK  status: ('A' for Active; 'I' for Inactive)
REMARK    1  A    between atoms: C_3  and  C_4
REMARK    2  A    between atoms: N_6  and  C_7
REMARK    3  A    between atoms: C_13  and  C_14
REMARK                            x       y       z     vdW  Elec       q    Type
REMARK                         _______ _______ _______ _____ _____    ______ ____
ROOT
ATOM      7  C   UNL     1      -3.650   3.167  25.139  0.00  0.00    +0.133 C 
ATOM      8  C   UNL     1      -4.176   3.565  25.634  0.00  0.00    +0.202 C 
ATOM      9  O   UNL     1      -4.011   4.246  26.070  0.00  0.00    -0.219 OA
ATOM     10  C   UNL     1      -4.896   3.163  25.616  0.00  0.00    +0.184 C 
ATOM     11  O   UNL     1      -5.578   3.371  26.031  0.00  0.00    -0.220 OA
ATOM     12  C   UNL     1      -4.815   2.516  25.110  0.00  0.00    +0.042 C 
ATOM     13  C   UNL     1      -4.045   2.519  24.815  0.00  0.00    +0.049 C 
ENDROOT
BRANCH  13  14
ATOM     14  C   UNL     1      -3.725   1.970  24.289  0.00  0.00    -0.002 A 
ATOM     15  C   UNL     1      -3.593   1.193  24.533  0.00  0.00    -0.001 A 
ATOM     16  C   UNL     1      -3.273   0.644  24.007  0.00  0.00    +0.020 A 
ATOM     17  C   UNL     1      -3.085   0.871  23.236  0.00  0.00    +0.099 A 
ATOM     18  N   UNL     1      -3.218   1.649  22.992  0.00  0.00    -0.243 NA
ATOM     19  C   UNL     1      -3.538   2.198  23.518  0.00  0.00    +0.095 A 
ENDBRANCH  13  14
BRANCH   7   6
ATOM      4  C   UNL     1      -2.380   3.614  25.617  0.00  0.00    +0.269 C 
ATOM      5  O   UNL     1      -2.676   3.635  26.386  0.00  0.00    -0.268 OA
ATOM      6  N   UNL     1      -2.866   3.380  24.993  0.00  0.00    -0.200 NA
BRANCH   4   3
ATOM      1  C   UNL     1      -0.930   2.628  26.002  0.00  0.00    +0.076 C 
ATOM      2  C   UNL     1      -0.930   3.374  25.648  0.00  0.00    +0.159 A 
ATOM      3  C   UNL     1      -1.596   3.827  25.471  0.00  0.00    +0.105 A 
ATOM     20  C   UNL     1      -1.341   4.529  25.123  0.00  0.00    +0.105 A 
ATOM     21  C   UNL     1      -1.825   5.144  24.859  0.00  0.00    +0.056 C 
ATOM     22  N   UNL     1      -0.517   4.511  25.085  0.00  0.00    -0.082 NA
ATOM     23  O   UNL     1      -0.262   3.797  25.409  0.00  0.00    -0.358 OA
ENDBRANCH   4   3
ENDBRANCH   7   6
TORSDOF 3
ENDMDL
MODEL 8
REMARK VINA RESULT:      -9.6      1.491      3.015
REMARK  Name = 
REMARK  3 active torsions:
REMARK  status: ('A' for Active; 'I' for Inactive)
REMARK    1  A    between atoms: C_3  and  C_4
REMARK    2  A    between atoms: N_6  and  C_7
REMARK    3  A    between atoms: C_13  and  C_14
REMARK                            x       y       z     vdW  Elec       q    Type
REMARK                         _______ _______ _______ _____ _____    ______ ____
ROOT
ATOM      7  C   UNL     1      -1.323   0.276  24.575  0.00  0.00    +0.133 C 
ATOM      8  C   UNL     1      -0.556   0.287  24.271  0.00  0.00    +0.202 C 
ATOM      9  O   UNL     1      -0.107   0.960  24.111  0.00  0.00    -0.219 OA
ATOM     10  C   UNL     1      -0.317  -0.494  24.157  0.00  0.00    +0.184 C 
ATOM     11  O   UNL     1       0.413  -0.740  23.862  0.00  0.00    -0.220 OA
ATOM     12  C   UNL     1      -0.936  -0.987  24.390  0.00  0.00    +0.042 C 
ATOM     13  C   UNL     1      -1.558  -0.511  24.648  0.00  0.00    +0.049 C 
ENDROOT
BRANCH  13  14
ATOM     14  C   UNL     1      -2.287  -0.775  24.931  0.00  0.00    -0.002 A 
ATOM     15  C   UNL     1      -2.859  -1.047  24.403  0.00  0.00    -0.001 A 
ATOM     16  C   UNL     1      -3.587  -1.311  24.685  0.00  0.00    +0.020 A 
ATOM     17  C   UNL     1      -3.744  -1.304  25.495  0.00  0.00    +0.099 A 
ATOM     18  N   UNL     1      -3.171  -1.031  26.023  0.00  0.00    -0.243 NA
ATOM     19  C   UNL     1      -2.442  -0.767  25.741  0.00  0.00    +0.095 A 
ENDBRANCH  13  14
BRANCH   7   6
ATOM      4  C   UNL     1      -1.796   1.588  24.264  0.00  0.00    +0.269 C 
ATOM      5  O   UNL     1      -1.365   1.578  23.561  0.00  0.00    -0.268 OA
ATOM      6  N   UNL     1      -1.775   0.938  24.771  0.00  0.00    -0.200 NA
BRANCH   4   3
ATOM      1  C   UNL     1      -1.477   2.722  25.619  0.00  0.00    +0.076 C 
ATOM      2  C   UNL     1      -2.102   2.771  25.083  0.00  0.00    +0.159 A 
ATOM      3  C   UNL     1      -2.249   2.250  24.460  0.00  0.00    +0.105 A 
ATOM     20  C   UNL     1      -2.927   2.507  24.068  0.00  0.00    +0.105 A 
ATOM     21  C   UNL     1      -3.273   2.147  23.411  0.00  0.00    +0.056 C 
ATOM     22  N   UNL     1      -3.200   3.186  24.449  0.00  0.00    -0.082 NA
ATOM     23  O   UNL     1      -2.690   3.350  25.075  0.00  0.00    -0.358 OA
ENDBRANCH   4   3
ENDBRANCH   7   6
TORSDOF 3
ENDMDL
