MODEL 1
REMARK VINA RESULT:     -11.5      0.000      0.000
REMARK  Name = 
REMARK  8 active torsions:
REMARK  status: ('A' for Active; 'I' for Inactive)
REMARK    1  A    between atoms: O_2  and  C_3
REMARK    2  A    between atoms: C_6  and  C_9
REMARK    3  A    between atoms: C_18  and  C_20
REMARK    4  A    between atoms: C_28  and  C_29
REMARK    5  A    between atoms: C_29  and  C_30
REMARK    6  A    between atoms: N_32  and  C_33
REMARK    7  A    between atoms: C_33  and  C_34
REMARK    8  A    between atoms: C_34  and  N_35
REMARK                            x       y       z     vdW  Elec       q    Type
REMARK                         _______ _______ _______ _____ _____    ______ ____
ROOT
ATOM      9  C   UNL     1      -0.495   1.228  23.902  0.00  0.00    +0.271 C 
ATOM     10  O   UNL     1      -0.502   1.989  24.219  0.00  0.00    -0.268 OA
ATOM     11  N   UNL     1      -1.197   0.799  23.845  0.00  0.00    -0.151 NA
ATOM     12  C   UNL     1      -1.906   1.130  24.105  0.00  0.00    +0.185 A 
ATOM     13  N   UNL     1      -2.647   0.770  24.084  0.00  0.00    -0.227 NA
ATOM     14  C   UNL     1      -3.197   1.298  24.398  0.00  0.00    +0.063 A 
ATOM     15  C   UNL     1      -2.796   1.985  24.614  0.00  0.00    +0.023 A 
ATOM     16  C   UNL     1      -3.209   2.617  24.947  0.00  0.00    +0.034 C 
ATOM     17  C   UNL     1      -4.025   2.560  25.064  0.00  0.00    +0.010 C 
ATOM     18  C   UNL     1      -4.438   3.192  25.398  0.00  0.00    +0.059 C 
ATOM     19  C   UNL     1      -3.675   3.505  25.396  0.00  0.00    +0.005 C 
ATOM     22  C   UNL     1      -5.252   3.136  25.515  0.00  0.00    +0.154 C 
ATOM     23  O   UNL     1      -5.666   3.768  25.848  0.00  0.00    -0.223 OA
ATOM     24  C   UNL     1      -5.654   2.448  25.299  0.00  0.00    +0.033 C 
ATOM     25  C   UNL     1      -5.240   1.817  24.966  0.00  0.00    +0.003 C 
ATOM     26  C   UNL     1      -4.426   1.873  24.848  0.00  0.00    +0.006 C 
ATOM     27  C   UNL     1      -4.827   1.186  24.633  0.00  0.00    +0.000 C 
ATOM     28  C   UNL     1      -4.013   1.242  24.516  0.00  0.00    +0.050 C 
ATOM     38  S   UNL     1      -1.998   1.882  24.433  0.00  0.00    -0.054 S 
ENDROOT
BRANCH   9   6
ATOM      3  C   UNL     1       1.632   0.232  23.121  0.00  0.00    +0.139 A 
ATOM      4  C   UNL     1       1.631   0.976  23.478  0.00  0.00    +0.037 A 
ATOM      5  C   UNL     1       0.922   1.307  23.738  0.00  0.00    +0.008 A 
ATOM      6  C   UNL     1       0.214   0.896  23.642  0.00  0.00    +0.056 A 
ATOM      7  C   UNL     1       0.215   0.152  23.286  0.00  0.00    +0.008 A 
ATOM      8  C   UNL     1       0.923  -0.181  23.025  0.00  0.00    +0.037 A 
BRANCH   3   2
ATOM      1  C   UNL     1       2.862   0.345  22.403  0.00  0.00    +0.252 C 
ATOM      2  O   UNL     1       2.340  -0.101  22.861  0.00  0.00    -0.471 OA
ENDBRANCH   3   2
ENDBRANCH   9   6
BRANCH  18  20
ATOM     20  C   UNL     1      -4.585   3.932  25.730  0.00  0.00    +0.184 C 
ATOM     21  O   UNL     1      -3.967   4.369  26.057  0.00  0.00    -0.220 OA
ENDBRANCH  18  20
BRANCH  28  29
ATOM     29  C   UNL     1      -4.414   0.554  24.299  0.00  0.00    +0.093 C 
BRANCH  29  30
ATOM     30  C   UNL     1      -4.242  -0.159  24.675  0.00  0.00    +0.242 C 
ATOM     31  O   UNL     1      -4.198  -0.191  25.500  0.00  0.00    -0.273 OA
ATOM     32  N   UNL     1      -4.115  -0.842  24.229  0.00  0.00    -0.204 NA
BRANCH  32  33
ATOM     33  C   UNL     1      -3.943  -1.555  24.605  0.00  0.00    +0.132 C 
BRANCH  33  34
ATOM     34  C   UNL     1      -3.739  -2.219  24.159  0.00  0.00    +0.096 C 
BRANCH  34  35
ATOM     35  N   UNL     1      -3.216  -2.777  24.466  0.00  0.00    -0.269 NA
ATOM     36  C   UNL     1      -3.486  -3.347  24.998  0.00  0.00    +0.090 C 
ATOM     37  C   UNL     1      -2.422  -2.767  24.240  0.00  0.00    +0.090 C 
ENDBRANCH  34  35
ENDBRANCH  33  34
ENDBRANCH  32  33
ENDBRANCH  29  30
ENDBRANCH  28  29
TORSDOF 8
ENDMDL
MODEL 2
REMARK VINA RESULT:     -11.1      2.153      4.538
REMARK  Name = 
REMARK  8 active torsions:
REMARK  status: ('A' for Active; 'I' for Inactive)
REMARK    1  A    between atoms: O_2  and  C_3
REMARK    2  A    between atoms: C_6  and  C_9
REMARK    3  A    between atoms: C_18  and  C_20
REMARK    4  A    between atoms: C_28  and  C_29
REMARK    5  A    between atoms: C_29  and  C_30
REMARK    6  A    between atoms: N_32  and  C_33
REMARK    7  A    between atoms: C_33  and  C_34
REMARK    8  A    between atoms: C_34  and  N_35
REMARK                            x       y       z     vdW  Elec       q    Type
REMARK                         _______ _______ _______ _____ _____    ______ ____
ROOT
ATOM      9  C   UNL     1      -1.312   2.322  24.708  0.00  0.00    +0.271 C 
ATOM     10  O   UNL     1      -0.733   1.738  24.767  0.00  0.00    -0.268 OA
ATOM     11  N   UNL     1      -2.103   2.110  24.610  0.00  0.00    -0.151 NA
ATOM     12  C   UNL     1      -2.315   1.314  24.570  0.00  0.00    +0.185 A 
ATOM     13  N   UNL     1      -3.079   1.019  24.474  0.00  0.00    -0.227 NA
ATOM     14  C   UNL     1      -3.035   0.195  24.465  0.00  0.00    +0.063 A 
ATOM     15  C   UNL     1      -2.245  -0.019  24.555  0.00  0.00    +0.023 A 
ATOM     16  C   UNL     1      -2.032  -0.816  24.567  0.00  0.00    +0.034 C 
ATOM     17  C   UNL     1      -2.612  -1.399  24.487  0.00  0.00    +0.010 C 
ATOM     18  C   UNL     1      -2.398  -2.196  24.498  0.00  0.00    +0.059 C 
ATOM     19  C   UNL     1      -1.656  -1.848  24.593  0.00  0.00    +0.005 C 
ATOM     22  C   UNL     1      -2.977  -2.778  24.419  0.00  0.00    +0.154 C 
ATOM     23  O   UNL     1      -2.765  -3.576  24.430  0.00  0.00    -0.223 OA
ATOM     24  C   UNL     1      -3.769  -2.564  24.328  0.00  0.00    +0.033 C 
ATOM     25  C   UNL     1      -3.981  -1.767  24.317  0.00  0.00    +0.003 C 
ATOM     26  C   UNL     1      -3.402  -1.184  24.396  0.00  0.00    +0.006 C 
ATOM     27  C   UNL     1      -4.193  -0.969  24.306  0.00  0.00    +0.000 C 
ATOM     28  C   UNL     1      -3.615  -0.388  24.385  0.00  0.00    +0.050 C 
ATOM     38  S   UNL     1      -1.799   0.672  24.621  0.00  0.00    -0.054 S 
ENDROOT
BRANCH   9   6
ATOM      3  C   UNL     1      -0.677   4.712  24.827  0.00  0.00    +0.139 A 
ATOM      4  C   UNL     1      -0.267   4.201  24.326  0.00  0.00    +0.037 A 
ATOM      5  C   UNL     1      -0.479   3.404  24.287  0.00  0.00    +0.008 A 
ATOM      6  C   UNL     1      -1.100   3.119  24.748  0.00  0.00    +0.056 A 
ATOM      7  C   UNL     1      -1.510   3.630  25.249  0.00  0.00    +0.008 A 
ATOM      8  C   UNL     1      -1.299   4.427  25.289  0.00  0.00    +0.037 A 
BRANCH   3   2
ATOM      1  C   UNL     1      -1.049   6.091  24.849  0.00  0.00    +0.252 C 
ATOM      2  O   UNL     1      -0.466   5.508  24.868  0.00  0.00    -0.471 OA
ENDBRANCH   3   2
ENDBRANCH   9   6
BRANCH  18  20
ATOM     20  C   UNL     1      -1.928  -2.872  24.543  0.00  0.00    +0.184 C 
ATOM     21  O   UNL     1      -1.139  -2.811  24.776  0.00  0.00    -0.220 OA
ENDBRANCH  18  20
BRANCH  28  29
ATOM     29  C   UNL     1      -4.406  -0.172  24.294  0.00  0.00    +0.093 C 
BRANCH  29  30
ATOM     30  C   UNL     1      -4.786   0.263  24.882  0.00  0.00    +0.242 C 
ATOM     31  O   UNL     1      -4.743   0.018  25.670  0.00  0.00    -0.273 OA
ATOM     32  N   UNL     1      -5.208   0.944  24.685  0.00  0.00    -0.204 NA
BRANCH  32  33
ATOM     33  C   UNL     1      -5.588   1.379  25.273  0.00  0.00    +0.132 C 
BRANCH  33  34
ATOM     34  C   UNL     1      -5.907   2.120  25.099  0.00  0.00    +0.096 C 
BRANCH  34  35
ATOM     35  N   UNL     1      -5.885   2.722  25.661  0.00  0.00    -0.269 NA
ATOM     36  C   UNL     1      -5.470   3.418  25.505  0.00  0.00    +0.090 C 
ATOM     37  C   UNL     1      -6.278   2.629  26.381  0.00  0.00    +0.090 C 
ENDBRANCH  34  35
ENDBRANCH  33  34
ENDBRANCH  32  33
ENDBRANCH  29  30
ENDBRANCH  28  29
TORSDOF 8
ENDMDL
MODEL 3
REMARK VINA RESULT:     -10.8      1.628      4.528
REMARK  Name = 
REMARK  8 active torsions:
REMARK  status: ('A' for Active; 'I' for Inactive)
REMARK    1  A    between atoms: O_2  and  C_3
REMARK    2  A    between atoms: C_6  and  C_9
REMARK    3  A    between atoms: C_18  and  C_20
REMARK    4  A    between atoms: C_28  and  C_29
REMARK    5  A    between atoms: C_29  and  C_30
REMARK    6  A    between atoms: N_32  and  C_33
REMARK    7  A    between atoms: C_33  and  C_34
REMARK    8  A    between atoms: C_34  and  N_35
REMARK                            x       y       z     vdW  Elec       q    Type
REMARK                         _______ _______ _______ _____ _____    ______ ____
ROOT
ATOM      9  C   UNL     1      -3.257  -0.193  24.685  0.00  0.00    +0.271 C 
ATOM     10  O   UNL     1      -3.826   0.396  24.789  0.00  0.00    -0.268 OA
ATOM     11  N   UNL     1      -2.457   0.005  24.675  0.00  0.00    -0.151 NA
ATOM     12  C   UNL     1      -2.224   0.791  24.769  0.00  0.00    +0.185 A 
ATOM     13  N   UNL     1      -1.449   1.071  24.771  0.00  0.00    -0.227 NA
ATOM     14  C   UNL     1      -1.473   1.888  24.880  0.00  0.00    +0.063 A 
ATOM     15  C   UNL     1      -2.263   2.113  24.946  0.00  0.00    +0.023 A 
ATOM     16  C   UNL     1      -2.457   2.906  25.060  0.00  0.00    +0.034 C 
ATOM     17  C   UNL     1      -1.860   3.475  25.109  0.00  0.00    +0.010 C 
ATOM     18  C   UNL     1      -2.055   4.269  25.223  0.00  0.00    +0.059 C 
ATOM     19  C   UNL     1      -2.810   3.936  25.213  0.00  0.00    +0.005 C 
ATOM     22  C   UNL     1      -1.459   4.837  25.271  0.00  0.00    +0.154 C 
ATOM     23  O   UNL     1      -1.653   5.631  25.386  0.00  0.00    -0.223 OA
ATOM     24  C   UNL     1      -0.667   4.611  25.205  0.00  0.00    +0.033 C 
ATOM     25  C   UNL     1      -0.474   3.818  25.091  0.00  0.00    +0.003 C 
ATOM     26  C   UNL     1      -1.070   3.250  25.043  0.00  0.00    +0.006 C 
ATOM     27  C   UNL     1      -0.280   3.024  24.977  0.00  0.00    +0.000 C 
ATOM     28  C   UNL     1      -0.875   2.457  24.929  0.00  0.00    +0.050 C 
ATOM     38  S   UNL     1      -2.727   1.435  24.877  0.00  0.00    -0.054 S 
ENDROOT
BRANCH   9   6
ATOM      3  C   UNL     1      -3.956  -2.550  24.403  0.00  0.00    +0.139 A 
ATOM      4  C   UNL     1      -3.467  -2.338  25.032  0.00  0.00    +0.037 A 
ATOM      5  C   UNL     1      -3.234  -1.552  25.126  0.00  0.00    +0.008 A 
ATOM      6  C   UNL     1      -3.490  -0.979  24.591  0.00  0.00    +0.056 A 
ATOM      7  C   UNL     1      -3.979  -1.191  23.962  0.00  0.00    +0.008 A 
ATOM      8  C   UNL     1      -4.212  -1.977  23.867  0.00  0.00    +0.037 A 
BRANCH   3   2
ATOM      1  C   UNL     1      -3.713  -3.860  23.885  0.00  0.00    +0.252 C 
ATOM      2  O   UNL     1      -4.189  -3.336  24.308  0.00  0.00    -0.471 OA
ENDBRANCH   3   2
ENDBRANCH   9   6
BRANCH  18  20
ATOM     20  C   UNL     1      -2.512   4.946  25.334  0.00  0.00    +0.184 C 
ATOM     21  O   UNL     1      -3.287   4.882  25.610  0.00  0.00    -0.220 OA
ENDBRANCH  18  20
BRANCH  28  29
ATOM     29  C   UNL     1      -0.085   2.230  24.863  0.00  0.00    +0.093 C 
BRANCH  29  30
ATOM     30  C   UNL     1       0.204   1.941  24.146  0.00  0.00    +0.242 C 
ATOM     31  O   UNL     1      -0.065   2.261  23.434  0.00  0.00    -0.273 OA
ATOM     32  N   UNL     1       0.760   1.332  24.141  0.00  0.00    -0.204 NA
BRANCH  32  33
ATOM     33  C   UNL     1       1.049   1.043  23.425  0.00  0.00    +0.132 C 
BRANCH  33  34
ATOM     34  C   UNL     1       1.485   0.342  23.407  0.00  0.00    +0.096 C 
BRANCH  34  35
ATOM     35  N   UNL     1       1.892   0.126  22.724  0.00  0.00    -0.269 NA
ATOM     36  C   UNL     1       1.512  -0.311  22.137  0.00  0.00    +0.090 C 
ATOM     37  C   UNL     1       2.682   0.348  22.627  0.00  0.00    +0.090 C 
ENDBRANCH  34  35
ENDBRANCH  33  34
ENDBRANCH  32  33
ENDBRANCH  29  30
ENDBRANCH  28  29
TORSDOF 8
ENDMDL
MODEL 4
REMARK VINA RESULT:     -10.6      1.948      5.032
REMARK  Name = 
REMARK  8 active torsions:
REMARK  status: ('A' for Active; 'I' for Inactive)
REMARK    1  A    between atoms: O_2  and  C_3
REMARK    2  A    between atoms: C_6  and  C_9
REMARK    3  A    between atoms: C_18  and  C_20
REMARK    4  A    between atoms: C_28  and  C_29
REMARK    5  A    between atoms: C_29  and  C_30
REMARK    6  A    between atoms: N_32  and  C_33
REMARK    7  A    between atoms: C_33  and  C_34
REMARK    8  A    between atoms: C_34  and  N_35
REMARK                            x       y       z     vdW  Elec       q    Type
REMARK                         _______ _______ _______ _____ _____    ______ ____
ROOT
ATOM      9  C   UNL     1      -2.249   2.519  24.997  0.00  0.00    +0.271 C 
ATOM     10  O   UNL     1      -3.029   2.251  25.011  0.00  0.00    -0.268 OA
ATOM     11  N   UNL     1      -1.630   1.983  24.900  0.00  0.00    -0.151 NA
ATOM     12  C   UNL     1      -1.790   1.178  24.817  0.00  0.00    +0.185 A 
ATOM     13  N   UNL     1      -1.232   0.580  24.716  0.00  0.00    -0.227 NA
ATOM     14  C   UNL     1      -1.634  -0.137  24.656  0.00  0.00    +0.063 A 
ATOM     15  C   UNL     1      -2.441   0.017  24.720  0.00  0.00    +0.023 A 
ATOM     16  C   UNL     1      -2.984  -0.602  24.680  0.00  0.00    +0.034 C 
ATOM     17  C   UNL     1      -2.719  -1.378  24.576  0.00  0.00    +0.010 C 
ATOM     18  C   UNL     1      -3.262  -1.997  24.536  0.00  0.00    +0.059 C 
ATOM     19  C   UNL     1      -3.778  -1.362  24.639  0.00  0.00    +0.005 C 
ATOM     22  C   UNL     1      -2.997  -2.771  24.431  0.00  0.00    +0.154 C 
ATOM     23  O   UNL     1      -3.541  -3.392  24.391  0.00  0.00    -0.223 OA
ATOM     24  C   UNL     1      -2.189  -2.926  24.367  0.00  0.00    +0.033 C 
ATOM     25  C   UNL     1      -1.646  -2.306  24.407  0.00  0.00    +0.003 C 
ATOM     26  C   UNL     1      -1.911  -1.532  24.512  0.00  0.00    +0.006 C 
ATOM     27  C   UNL     1      -1.104  -1.686  24.447  0.00  0.00    +0.000 C 
ATOM     28  C   UNL     1      -1.369  -0.913  24.552  0.00  0.00    +0.050 C 
ATOM     38  S   UNL     1      -2.538   0.830  24.820  0.00  0.00    -0.054 S 
ENDROOT
BRANCH   9   6
ATOM      3  C   UNL     1      -1.768   4.935  25.247  0.00  0.00    +0.139 A 
ATOM      4  C   UNL     1      -2.457   4.616  25.570  0.00  0.00    +0.037 A 
ATOM      5  C   UNL     1      -2.617   3.811  25.486  0.00  0.00    +0.008 A 
ATOM      6  C   UNL     1      -2.089   3.325  25.081  0.00  0.00    +0.056 A 
ATOM      7  C   UNL     1      -1.400   3.643  24.758  0.00  0.00    +0.008 A 
ATOM      8  C   UNL     1      -1.239   4.448  24.841  0.00  0.00    +0.037 A 
BRANCH   3   2
ATOM      1  C   UNL     1      -0.994   6.084  24.899  0.00  0.00    +0.252 C 
ATOM      2  O   UNL     1      -1.607   5.739  25.330  0.00  0.00    -0.471 OA
ENDBRANCH   3   2
ENDBRANCH   9   6
BRANCH  18  20
ATOM     20  C   UNL     1      -3.984  -2.396  24.531  0.00  0.00    +0.184 C 
ATOM     21  O   UNL     1      -4.644  -2.052  24.174  0.00  0.00    -0.220 OA
ENDBRANCH  18  20
BRANCH  28  29
ATOM     29  C   UNL     1      -0.560  -1.066  24.488  0.00  0.00    +0.093 C 
BRANCH  29  30
ATOM     30  C   UNL     1      -0.148  -0.835  23.812  0.00  0.00    +0.242 C 
ATOM     31  O   UNL     1      -0.508  -0.890  23.070  0.00  0.00    -0.273 OA
ATOM     32  N   UNL     1       0.623  -0.549  23.876  0.00  0.00    -0.204 NA
BRANCH  32  33
ATOM     33  C   UNL     1       1.035  -0.318  23.200  0.00  0.00    +0.132 C 
BRANCH  33  34
ATOM     34  C   UNL     1       1.757   0.076  23.271  0.00  0.00    +0.096 C 
BRANCH  34  35
ATOM     35  N   UNL     1       2.271   0.113  22.628  0.00  0.00    -0.269 NA
ATOM     36  C   UNL     1       3.017   0.455  22.715  0.00  0.00    +0.090 C 
ATOM     37  C   UNL     1       2.040  -0.191  21.896  0.00  0.00    +0.090 C 
ENDBRANCH  34  35
ENDBRANCH  33  34
ENDBRANCH  32  33
ENDBRANCH  29  30
ENDBRANCH  28  29
TORSDOF 8
ENDMDL
MODEL 5
REMARK VINA RESULT:     -10.4      2.149      4.373
REMARK  Name = 
REMARK  8 active torsions:
REMARK  status: ('A' for Active; 'I' for Inactive)
REMARK    1  A    between atoms: O_2  and  C_3
REMARK    2  A    between atoms: C_6  and  C_9
REMARK    3  A    between atoms: C_18  and  C_20
REMARK    4  A    between atoms: C_28  and  C_29
REMARK    5  A    between atoms: C_29  and  C_30
REMARK    6  A    between atoms: N_32  and  C_33
REMARK    7  A    between atoms: C_33  and  C_34
REMARK    8  A    between atoms: C_34  and  N_35
REMARK                            x       y       z     vdW  Elec       q    Type
REMARK                         _______ _______ _______ _____ _____    ______ ____
ROOT
ATOM      9  C   UNL     1      -2.537  -0.114  24.571  0.00  0.00    +0.271 C 
ATOM     10  O   UNL     1      -1.803   0.060  24.235  0.00  0.00    -0.268 OA
ATOM     11  N   UNL     1      -2.978   0.483  24.929  0.00  0.00    -0.151 NA
ATOM     12  C   UNL     1      -2.686   1.255  24.952  0.00  0.00    +0.185 A 
ATOM     13  N   UNL     1      -3.063   1.906  25.289  0.00  0.00    -0.227 NA
ATOM     14  C   UNL     1      -2.576   2.564  25.187  0.00  0.00    +0.063 A 
ATOM     15  C   UNL     1      -1.899   2.320  24.786  0.00  0.00    +0.023 A 
ATOM     16  C   UNL     1      -1.308   2.865  24.605  0.00  0.00    +0.034 C 
ATOM     17  C   UNL     1      -1.394   3.656  24.825  0.00  0.00    +0.010 C 
ATOM     18  C   UNL     1      -0.802   4.202  24.644  0.00  0.00    +0.059 C 
ATOM     19  C   UNL     1      -0.470   3.519  24.322  0.00  0.00    +0.005 C 
ATOM     22  C   UNL     1      -0.889   4.992  24.864  0.00  0.00    +0.154 C 
ATOM     23  O   UNL     1      -0.297   5.538  24.682  0.00  0.00    -0.223 OA
ATOM     24  C   UNL     1      -1.567   5.237  25.265  0.00  0.00    +0.033 C 
ATOM     25  C   UNL     1      -2.159   4.691  25.446  0.00  0.00    +0.003 C 
ATOM     26  C   UNL     1      -2.072   3.901  25.226  0.00  0.00    +0.006 C 
ATOM     27  C   UNL     1      -2.750   4.145  25.627  0.00  0.00    +0.000 C 
ATOM     28  C   UNL     1      -2.663   3.355  25.407  0.00  0.00    +0.050 C 
ATOM     38  S   UNL     1      -1.967   1.510  24.641  0.00  0.00    -0.054 S 
ENDROOT
BRANCH   9   6
ATOM      3  C   UNL     1      -3.408  -2.430  24.503  0.00  0.00    +0.139 A 
ATOM      4  C   UNL     1      -3.863  -1.809  24.205  0.00  0.00    +0.037 A 
ATOM      5  C   UNL     1      -3.572  -1.037  24.228  0.00  0.00    +0.008 A 
ATOM      6  C   UNL     1      -2.828  -0.886  24.548  0.00  0.00    +0.056 A 
ATOM      7  C   UNL     1      -2.373  -1.506  24.847  0.00  0.00    +0.008 A 
ATOM      8  C   UNL     1      -2.663  -2.278  24.825  0.00  0.00    +0.037 A 
BRANCH   3   2
ATOM      1  C   UNL     1      -4.115  -3.467  23.821  0.00  0.00    +0.252 C 
ATOM      2  O   UNL     1      -3.698  -3.202  24.481  0.00  0.00    -0.471 OA
ENDBRANCH   3   2
ENDBRANCH   9   6
BRANCH  18  20
ATOM     20  C   UNL     1      -0.096   4.510  24.351  0.00  0.00    +0.184 C 
ATOM     21  O   UNL     1       0.294   4.132  23.730  0.00  0.00    -0.220 OA
ENDBRANCH  18  20
BRANCH  28  29
ATOM     29  C   UNL     1      -3.342   3.599  25.808  0.00  0.00    +0.093 C 
BRANCH  29  30
ATOM     30  C   UNL     1      -4.079   3.543  25.444  0.00  0.00    +0.242 C 
ATOM     31  O   UNL     1      -4.191   3.853  24.687  0.00  0.00    -0.273 OA
ATOM     32  N   UNL     1      -4.707   3.177  25.836  0.00  0.00    -0.204 NA
BRANCH  32  33
ATOM     33  C   UNL     1      -5.444   3.121  25.472  0.00  0.00    +0.132 C 
BRANCH  33  34
ATOM     34  C   UNL     1      -6.087   2.813  25.887  0.00  0.00    +0.096 C 
BRANCH  34  35
ATOM     35  N   UNL     1      -6.381   2.066  25.699  0.00  0.00    -0.269 NA
ATOM     36  C   UNL     1      -6.457   1.491  26.286  0.00  0.00    +0.090 C 
ATOM     37  C   UNL     1      -6.600   1.893  24.921  0.00  0.00    +0.090 C 
ENDBRANCH  34  35
ENDBRANCH  33  34
ENDBRANCH  32  33
ENDBRANCH  29  30
ENDBRANCH  28  29
TORSDOF 8
ENDMDL
MODEL 6
REMARK VINA RESULT:      -9.9      1.779      5.889
REMARK  Name = 
REMARK  8 active torsions:
REMARK  status: ('A' for Active; 'I' for Inactive)
REMARK    1  A    between atoms: O_2  and  C_3
REMARK    2  A    between atoms: C_6  and  C_9
REMARK    3  A    between atoms: C_18  and  C_20
REMARK    4  A    between atoms: C_28  and  C_29
REMARK    5  A    between atoms: C_29  and  C_30
REMARK    6  A    between atoms: N_32  and  C_33
REMARK    7  A    between atoms: C_33  and  C_34
REMARK    8  A    between atoms: C_34  and  N_35
REMARK                            x       y       z     vdW  Elec       q    Type
REMARK                         _______ _______ _______ _____ _____    ______ ____
ROOT
ATOM      9  C   UNL     1      -4.816   1.745  25.191  0.00  0.00    +0.271 C 
ATOM     10  O   UNL     1      -5.278   1.117  24.921  0.00  0.00    -0.268 OA
ATOM     11  N   UNL     1      -4.008   1.639  25.313  0.00  0.00    -0.151 NA
ATOM     12  C   UNL     1      -3.660   0.906  25.166  0.00  0.00    +0.185 A 
ATOM     13  N   UNL     1      -2.863   0.719  25.262  0.00  0.00    -0.227 NA
ATOM     14  C   UNL     1      -2.759  -0.072  25.052  0.00  0.00    +0.063 A 
ATOM     15  C   UNL     1      -3.492  -0.374  24.826  0.00  0.00    +0.023 A 
ATOM     16  C   UNL     1      -3.559  -1.160  24.585  0.00  0.00    +0.034 C 
ATOM     17  C   UNL     1      -2.890  -1.645  24.570  0.00  0.00    +0.010 C 
ATOM     18  C   UNL     1      -2.957  -2.431  24.329  0.00  0.00    +0.059 C 
ATOM     19  C   UNL     1      -3.742  -2.191  24.251  0.00  0.00    +0.005 C 
ATOM     22  C   UNL     1      -2.290  -2.916  24.315  0.00  0.00    +0.154 C 
ATOM     23  O   UNL     1      -2.356  -3.703  24.074  0.00  0.00    -0.223 OA
ATOM     24  C   UNL     1      -1.555  -2.614  24.541  0.00  0.00    +0.033 C 
ATOM     25  C   UNL     1      -1.490  -1.828  24.782  0.00  0.00    +0.003 C 
ATOM     26  C   UNL     1      -2.157  -1.343  24.797  0.00  0.00    +0.006 C 
ATOM     27  C   UNL     1      -1.424  -1.041  25.023  0.00  0.00    +0.000 C 
ATOM     28  C   UNL     1      -2.091  -0.557  25.037  0.00  0.00    +0.050 C 
ATOM     38  S   UNL     1      -4.049   0.231  24.896  0.00  0.00    -0.054 S 
ENDROOT
BRANCH   9   6
ATOM      3  C   UNL     1      -5.861   3.945  25.633  0.00  0.00    +0.139 A 
ATOM      4  C   UNL     1      -5.128   3.905  25.257  0.00  0.00    +0.037 A 
ATOM      5  C   UNL     1      -4.780   3.171  25.110  0.00  0.00    +0.008 A 
ATOM      6  C   UNL     1      -5.164   2.479  25.338  0.00  0.00    +0.056 A 
ATOM      7  C   UNL     1      -5.897   2.519  25.715  0.00  0.00    +0.008 A 
ATOM      8  C   UNL     1      -6.246   3.252  25.862  0.00  0.00    +0.037 A 
BRANCH   3   2
ATOM      1  C   UNL     1      -6.065   5.314  25.276  0.00  0.00    +0.252 C 
ATOM      2  O   UNL     1      -6.210   4.678  25.781  0.00  0.00    -0.471 OA
ENDBRANCH   3   2
ENDBRANCH   9   6
BRANCH  18  20
ATOM     20  C   UNL     1      -3.296  -3.133  24.061  0.00  0.00    +0.184 C 
ATOM     21  O   UNL     1      -4.114  -3.189  23.970  0.00  0.00    -0.220 OA
ENDBRANCH  18  20
BRANCH  28  29
ATOM     29  C   UNL     1      -1.357  -0.255  25.264  0.00  0.00    +0.093 C 
BRANCH  29  30
ATOM     30  C   UNL     1      -1.011   0.355  24.831  0.00  0.00    +0.242 C 
ATOM     31  O   UNL     1      -0.980   0.311  24.007  0.00  0.00    -0.273 OA
ATOM     32  N   UNL     1      -0.694   1.010  25.221  0.00  0.00    -0.204 NA
BRANCH  32  33
ATOM     33  C   UNL     1      -0.347   1.620  24.788  0.00  0.00    +0.132 C 
BRANCH  33  34
ATOM     34  C   UNL     1      -0.025   2.272  25.178  0.00  0.00    +0.096 C 
BRANCH  34  35
ATOM     35  N   UNL     1      -0.222   3.036  24.938  0.00  0.00    -0.269 NA
ATOM     36  C   UNL     1       0.020   3.313  24.200  0.00  0.00    +0.090 C 
ATOM     37  C   UNL     1      -0.663   3.524  25.438  0.00  0.00    +0.090 C 
ENDBRANCH  34  35
ENDBRANCH  33  34
ENDBRANCH  32  33
ENDBRANCH  29  30
ENDBRANCH  28  29
TORSDOF 8
ENDMDL
MODEL 7
REMARK VINA RESULT:      -9.8      1.942      4.051
REMARK  Name = 
REMARK  8 active torsions:
REMARK  status: ('A' for Active; 'I' for Inactive)
REMARK    1  A    between atoms: O_2  and  C_3
REMARK    2  A    between atoms: C_6  and  C_9
REMARK    3  A    between atoms: C_18  and  C_20
REMARK    4  A    between atoms: C_28  and  C_29
REMARK    5  A    between atoms: C_29  and  C_30
REMARK    6  A    between atoms: N_32  and  C_33
REMARK    7  A    between atoms: C_33  and  C_34
REMARK    8  A    between atoms: C_34  and  N_35
REMARK                            x       y       z     vdW  Elec       q    Type
REMARK                         _______ _______ _______ _____ _____    ______ ____
ROOT
ATOM      9  C   UNL     1       1.040  -0.007  23.354  0.00  0.00    +0.271 C 
ATOM     10  O   UNL     1       0.899  -0.789  23.574  0.00  0.00    -0.268 OA
ATOM     11  N   UNL     1       0.438   0.552  23.412  0.00  0.00    -0.151 NA
ATOM     12  C   UNL     1      -0.307   0.330  23.690  0.00  0.00    +0.185 A 
ATOM     13  N   UNL     1      -0.960   0.826  23.777  0.00  0.00    -0.227 NA
ATOM     14  C   UNL     1      -1.585   0.374  24.070  0.00  0.00    +0.063 A 
ATOM     15  C   UNL     1      -1.319  -0.400  24.163  0.00  0.00    +0.023 A 
ATOM     16  C   UNL     1      -1.829  -0.980  24.450  0.00  0.00    +0.034 C 
ATOM     17  C   UNL     1      -2.608  -0.786  24.644  0.00  0.00    +0.010 C 
ATOM     18  C   UNL     1      -3.119  -1.367  24.932  0.00  0.00    +0.059 C 
ATOM     19  C   UNL     1      -2.436  -1.817  24.825  0.00  0.00    +0.005 C 
ATOM     22  C   UNL     1      -3.897  -1.172  25.125  0.00  0.00    +0.154 C 
ATOM     23  O   UNL     1      -4.409  -1.753  25.413  0.00  0.00    -0.223 OA
ATOM     24  C   UNL     1      -4.164  -0.396  25.032  0.00  0.00    +0.033 C 
ATOM     25  C   UNL     1      -3.653   0.183  24.745  0.00  0.00    +0.003 C 
ATOM     26  C   UNL     1      -2.875  -0.011  24.551  0.00  0.00    +0.006 C 
ATOM     27  C   UNL     1      -3.141   0.763  24.457  0.00  0.00    +0.000 C 
ATOM     28  C   UNL     1      -2.364   0.569  24.264  0.00  0.00    +0.050 C 
ATOM     38  S   UNL     1      -0.528  -0.427  23.928  0.00  0.00    -0.054 S 
ENDROOT
BRANCH   9   6
ATOM      3  C   UNL     1       3.274   0.659  22.520  0.00  0.00    +0.139 A 
ATOM      4  C   UNL     1       2.943   1.048  23.168  0.00  0.00    +0.037 A 
ATOM      5  C   UNL     1       2.198   0.826  23.446  0.00  0.00    +0.008 A 
ATOM      6  C   UNL     1       1.785   0.215  23.076  0.00  0.00    +0.056 A 
ATOM      7  C   UNL     1       2.116  -0.174  22.429  0.00  0.00    +0.008 A 
ATOM      8  C   UNL     1       2.860   0.048  22.150  0.00  0.00    +0.037 A 
BRANCH   3   2
ATOM      1  C   UNL     1       4.692   0.713  22.687  0.00  0.00    +0.252 C 
ATOM      2  O   UNL     1       4.018   0.880  22.242  0.00  0.00    -0.471 OA
ENDBRANCH   3   2
ENDBRANCH   9   6
BRANCH  18  20
ATOM     20  C   UNL     1      -3.392  -2.103  25.181  0.00  0.00    +0.184 C 
ATOM     21  O   UNL     1      -3.012  -2.792  24.933  0.00  0.00    -0.220 OA
ENDBRANCH  18  20
BRANCH  28  29
ATOM     29  C   UNL     1      -2.630   1.344  24.170  0.00  0.00    +0.093 C 
BRANCH  29  30
ATOM     30  C   UNL     1      -2.344   1.942  24.661  0.00  0.00    +0.242 C 
ATOM     31  O   UNL     1      -2.109   1.765  25.433  0.00  0.00    -0.273 OA
ATOM     32  N   UNL     1      -2.291   2.716  24.382  0.00  0.00    -0.204 NA
BRANCH  32  33
ATOM     33  C   UNL     1      -2.005   3.314  24.872  0.00  0.00    +0.132 C 
BRANCH  33  34
ATOM     34  C   UNL     1      -1.967   4.091  24.598  0.00  0.00    +0.096 C 
BRANCH  34  35
ATOM     35  N   UNL     1      -1.666   4.686  25.083  0.00  0.00    -0.269 NA
ATOM     36  C   UNL     1      -2.137   5.015  25.675  0.00  0.00    +0.090 C 
ATOM     37  C   UNL     1      -0.891   4.952  24.977  0.00  0.00    +0.090 C 
ENDBRANCH  34  35
ENDBRANCH  33  34
ENDBRANCH  32  33
ENDBRANCH  29  30
ENDBRANCH  28  29
TORSDOF 8
ENDMDL
MODEL 8
REMARK VINA RESULT:      -8.4      1.644      3.931
REMARK  Name = 
REMARK  8 active torsions:
REMARK  status: ('A' for Active; 'I' for Inactive)
REMARK    1  A    between atoms: O_2  and  C_3
REMARK    2  A    between atoms: C_6  and  C_9
REMARK    3  A    between atoms: C_18  and  C_20
REMARK    4  A    between atoms: C_28  and  C_29
REMARK    5  A    between atoms: C_29  and  C_30
REMARK    6  A    between atoms: N_32  and  C_33
REMARK    7  A    between atoms: C_33  and  C_34
REMARK    8  A    between atoms: C_34  and  N_35
REMARK                            x       y       z     vdW  Elec       q    Type
REMARK                         _______ _______ _______ _____ _____    ______ ____
ROOT
ATOM      9  C   UNL     1      -3.823  -0.802  24.593  0.00  0.00    +0.271 C 
ATOM     10  O   UNL     1      -4.550  -0.703  24.971  0.00  0.00    -0.268 OA
ATOM     11  N   UNL     1      -3.380  -0.142  24.372  0.00  0.00    -0.151 NA
ATOM     12  C   UNL     1      -3.664   0.617  24.528  0.00  0.00    +0.185 A 
ATOM     13  N   UNL     1      -3.284   1.324  24.341  0.00  0.00    -0.227 NA
ATOM     14  C   UNL     1      -3.763   1.946  24.596  0.00  0.00    +0.063 A 
ATOM     15  C   UNL     1      -4.438   1.623  24.942  0.00  0.00    +0.023 A 
ATOM     16  C   UNL     1      -5.021   2.117  25.250  0.00  0.00    +0.034 C 
ATOM     17  C   UNL     1      -4.929   2.937  25.212  0.00  0.00    +0.010 C 
ATOM     18  C   UNL     1      -5.513   3.432  25.521  0.00  0.00    +0.059 C 
ATOM     19  C   UNL     1      -5.848   2.697  25.685  0.00  0.00    +0.005 C 
ATOM     22  C   UNL     1      -5.420   4.251  25.483  0.00  0.00    +0.154 C 
ATOM     23  O   UNL     1      -6.004   4.747  25.791  0.00  0.00    -0.223 OA
ATOM     24  C   UNL     1      -4.744   4.575  25.137  0.00  0.00    +0.033 C 
ATOM     25  C   UNL     1      -4.162   4.080  24.829  0.00  0.00    +0.003 C 
ATOM     26  C   UNL     1      -4.254   3.261  24.867  0.00  0.00    +0.006 C 
ATOM     27  C   UNL     1      -3.579   3.584  24.521  0.00  0.00    +0.000 C 
ATOM     28  C   UNL     1      -3.671   2.766  24.559  0.00  0.00    +0.050 C 
ATOM     38  S   UNL     1      -4.376   0.801  24.900  0.00  0.00    -0.054 S 
ENDROOT
BRANCH   9   6
ATOM      3  C   UNL     1      -2.975  -3.079  24.125  0.00  0.00    +0.139 A 
ATOM      4  C   UNL     1      -2.505  -2.541  24.536  0.00  0.00    +0.037 A 
ATOM      5  C   UNL     1      -2.788  -1.782  24.692  0.00  0.00    +0.008 A 
ATOM      6  C   UNL     1      -3.540  -1.561  24.437  0.00  0.00    +0.056 A 
ATOM      7  C   UNL     1      -4.010  -2.099  24.026  0.00  0.00    +0.008 A 
ATOM      8  C   UNL     1      -3.729  -2.859  23.869  0.00  0.00    +0.037 A 
BRANCH   3   2
ATOM      1  C   UNL     1      -2.115  -3.954  23.390  0.00  0.00    +0.252 C 
ATOM      2  O   UNL     1      -2.693  -3.838  23.968  0.00  0.00    -0.471 OA
ENDBRANCH   3   2
ENDBRANCH   9   6
BRANCH  18  20
ATOM     20  C   UNL     1      -6.212   3.672  25.886  0.00  0.00    +0.184 C 
ATOM     21  O   UNL     1      -6.588   3.173  26.425  0.00  0.00    -0.220 OA
ENDBRANCH  18  20
BRANCH  28  29
ATOM     29  C   UNL     1      -2.995   3.089  24.213  0.00  0.00    +0.093 C 
BRANCH  29  30
ATOM     30  C   UNL     1      -2.266   3.025  24.592  0.00  0.00    +0.242 C 
ATOM     31  O   UNL     1      -2.207   3.174  25.402  0.00  0.00    -0.273 OA
ATOM     32  N   UNL     1      -1.594   2.812  24.163  0.00  0.00    -0.204 NA
BRANCH  32  33
ATOM     33  C   UNL     1      -0.865   2.747  24.542  0.00  0.00    +0.132 C 
BRANCH  33  34
ATOM     34  C   UNL     1      -0.190   2.549  24.110  0.00  0.00    +0.096 C 
BRANCH  34  35
ATOM     35  N   UNL     1       0.360   2.021  24.423  0.00  0.00    -0.269 NA
ATOM     36  C   UNL     1       0.738   1.478  23.930  0.00  0.00    +0.090 C 
ATOM     37  C   UNL     1       0.534   2.036  25.230  0.00  0.00    +0.090 C 
ENDBRANCH  34  35
ENDBRANCH  33  34
ENDBRANCH  32  33
ENDBRANCH  29  30
ENDBRANCH  28  29
TORSDOF 8
ENDMDL
MODEL 9
REMARK VINA RESULT:      -7.8      1.756      3.662
REMARK  Name = 
REMARK  8 active torsions:
REMARK  status: ('A' for Active; 'I' for Inactive)
REMARK    1  A    between atoms: O_2  and  C_3
REMARK    2  A    between atoms: C_6  and  C_9
REMARK    3  A    between atoms: C_18  and  C_20
REMARK    4  A    between atoms: C_28  and  C_29
REMARK    5  A    between atoms: C_29  and  C_30
REMARK    6  A    between atoms: N_32  and  C_33
REMARK    7  A    between atoms: C_33  and  C_34
REMARK    8  A    between atoms: C_34  and  N_35
REMARK                            x       y       z     vdW  Elec       q    Type
REMARK                         _______ _______ _______ _____ _____    ______ ____
ROOT
ATOM      9  C   UNL     1      -1.350   0.529  24.001  0.00  0.00    +0.271 C 
ATOM     10  O   UNL     1      -1.987   0.044  23.805  0.00  0.00    -0.268 OA
ATOM     11  N   UNL     1      -1.480   1.241  24.396  0.00  0.00    -0.151 NA
ATOM     12  C   UNL     1      -2.248   1.469  24.595  0.00  0.00    +0.185 A 
ATOM     13  N   UNL     1      -2.462   2.161  24.988  0.00  0.00    -0.227 NA
ATOM     14  C   UNL     1      -3.283   2.163  25.071  0.00  0.00    +0.063 A 
ATOM     15  C   UNL     1      -3.576   1.473  24.730  0.00  0.00    +0.023 A 
ATOM     16  C   UNL     1      -4.386   1.324  24.731  0.00  0.00    +0.034 C 
ATOM     17  C   UNL     1      -4.906   1.867  25.074  0.00  0.00    +0.010 C 
ATOM     18  C   UNL     1      -5.717   1.717  25.075  0.00  0.00    +0.059 C 
ATOM     19  C   UNL     1      -5.448   1.042  24.686  0.00  0.00    +0.005 C 
ATOM     22  C   UNL     1      -6.236   2.260  25.418  0.00  0.00    +0.154 C 
ATOM     23  O   UNL     1      -7.048   2.111  25.419  0.00  0.00    -0.223 OA
ATOM     24  C   UNL     1      -5.942   2.952  25.760  0.00  0.00    +0.033 C 
ATOM     25  C   UNL     1      -5.131   3.100  25.759  0.00  0.00    +0.003 C 
ATOM     26  C   UNL     1      -4.613   2.557  25.416  0.00  0.00    +0.006 C 
ATOM     27  C   UNL     1      -4.320   3.248  25.757  0.00  0.00    +0.000 C 
ATOM     28  C   UNL     1      -3.802   2.706  25.415  0.00  0.00    +0.050 C 
ATOM     38  S   UNL     1      -2.936   1.043  24.436  0.00  0.00    -0.054 S 
ENDROOT
BRANCH   9   6
ATOM      3  C   UNL     1       0.953  -0.154  23.404  0.00  0.00    +0.139 A 
ATOM      4  C   UNL     1       0.421  -0.711  23.698  0.00  0.00    +0.037 A 
ATOM      5  C   UNL     1      -0.347  -0.483  23.897  0.00  0.00    +0.008 A 
ATOM      6  C   UNL     1      -0.582   0.301  23.803  0.00  0.00    +0.056 A 
ATOM      7  C   UNL     1      -0.050   0.859  23.509  0.00  0.00    +0.008 A 
ATOM      8  C   UNL     1       0.718   0.632  23.310  0.00  0.00    +0.037 A 
BRANCH   3   2
ATOM      1  C   UNL     1       2.067  -0.101  22.510  0.00  0.00    +0.252 C 
ATOM      2  O   UNL     1       1.721  -0.380  23.205  0.00  0.00    -0.471 OA
ENDBRANCH   3   2
ENDBRANCH   9   6
BRANCH  18  20
ATOM     20  C   UNL     1      -6.435   1.334  24.941  0.00  0.00    +0.184 C 
ATOM     21  O   UNL     1      -6.457   0.646  24.486  0.00  0.00    -0.220 OA
ENDBRANCH  18  20
BRANCH  28  29
ATOM     29  C   UNL     1      -3.508   3.398  25.756  0.00  0.00    +0.093 C 
BRANCH  29  30
ATOM     30  C   UNL     1      -3.108   3.950  25.293  0.00  0.00    +0.242 C 
ATOM     31  O   UNL     1      -3.421   4.182  24.565  0.00  0.00    -0.273 OA
ATOM     32  N   UNL     1      -2.394   4.270  25.556  0.00  0.00    -0.204 NA
BRANCH  32  33
ATOM     33  C   UNL     1      -1.994   4.822  25.093  0.00  0.00    +0.132 C 
BRANCH  33  34
ATOM     34  C   UNL     1      -1.248   5.092  25.322  0.00  0.00    +0.096 C 
BRANCH  34  35
ATOM     35  N   UNL     1      -0.654   5.193  24.760  0.00  0.00    -0.269 NA
ATOM     36  C   UNL     1      -0.589   5.907  24.352  0.00  0.00    +0.090 C 
ATOM     37  C   UNL     1      -0.124   4.579  24.604  0.00  0.00    +0.090 C 
ENDBRANCH  34  35
ENDBRANCH  33  34
ENDBRANCH  32  33
ENDBRANCH  29  30
ENDBRANCH  28  29
TORSDOF 8
ENDMDL
