MODEL 1
REMARK VINA RESULT:     -12.3      0.000      0.000
REMARK  Name = 
REMARK  4 active torsions:
REMARK  status: ('A' for Active; 'I' for Inactive)
REMARK    1  A    between atoms: C_2  and  C_4
REMARK    2  A    between atoms: C_6  and  C_7
REMARK    3  A    between atoms: C_7  and  C_8
REMARK    4  A    between atoms: C_21  and  C_22
REMARK                            x       y       z     vdW  Elec       q    Type
REMARK                         _______ _______ _______ _____ _____    ______ ____
ROOT
ATOM      4  C   UNL     1      -3.366   2.223  24.005  0.00  0.00    +0.006 C 
ATOM      5  C   UNL     1      -3.823   1.546  24.120  0.00  0.00    +0.005 C 
ATOM      6  C   UNL     1      -4.462   1.564  24.641  0.00  0.00    +0.026 C 
ATOM     18  C   UNL     1      -4.645   2.259  25.047  0.00  0.00    -0.048 C 
ATOM     19  C   UNL     1      -5.285   2.277  25.568  0.00  0.00    +0.026 C 
ATOM     20  C   UNL     1      -4.188   2.936  24.931  0.00  0.00    -0.033 C 
ATOM     21  C   UNL     1      -3.548   2.918  24.410  0.00  0.00    +0.040 C 
ENDROOT
BRANCH   4   2
ATOM      1  C   UNL     1      -2.850   2.309  22.675  0.00  0.00    +0.000 C 
ATOM      2  C   UNL     1      -2.727   2.205  23.484  0.00  0.00    +0.000 C 
ATOM      3  C   UNL     1      -1.963   2.084  23.772  0.00  0.00    +0.000 C 
ENDBRANCH   4   2
BRANCH  21  22
ATOM     22  C   UNL     1      -3.092   3.595  24.295  0.00  0.00    +0.114 C 
ATOM     23  N   UNL     1      -3.210   4.259  24.770  0.00  0.00    -0.131 NA
ENDBRANCH  21  22
BRANCH   6   7
ATOM      7  C   UNL     1      -4.919   0.887  24.758  0.00  0.00    +0.070 C 
BRANCH   7   8
ATOM      8  C   UNL     1      -4.557   0.148  24.812  0.00  0.00    +0.139 A 
ATOM      9  N   UNL     1      -4.134  -0.139  25.459  0.00  0.00    -0.229 NA
ATOM     10  C   UNL     1      -3.870  -0.898  25.276  0.00  0.00    +0.100 A 
ATOM     11  C   UNL     1      -4.129  -1.081  24.514  0.00  0.00    +0.100 A 
ATOM     12  N   UNL     1      -4.554  -0.435  24.227  0.00  0.00    -0.229 NA
ATOM     13  C   UNL     1      -3.944  -1.813  24.181  0.00  0.00    +0.016 A 
ATOM     14  C   UNL     1      -3.501  -2.361  24.608  0.00  0.00    -0.020 A 
ATOM     15  C   UNL     1      -3.317  -3.092  24.274  0.00  0.00    +0.031 C 
ATOM     16  C   UNL     1      -3.242  -2.178  25.369  0.00  0.00    -0.003 A 
ATOM     17  C   UNL     1      -3.426  -1.447  25.704  0.00  0.00    +0.020 A 
ENDBRANCH   7   8
ENDBRANCH   6   7
TORSDOF 4
ENDMDL
MODEL 2
REMARK VINA RESULT:     -12.0      0.932      2.016
REMARK  Name = 
REMARK  4 active torsions:
REMARK  status: ('A' for Active; 'I' for Inactive)
REMARK    1  A    between atoms: C_2  and  C_4
REMARK    2  A    between atoms: C_6  and  C_7
REMARK    3  A    between atoms: C_7  and  C_8
REMARK    4  A    between atoms: C_21  and  C_22
REMARK                            x       y       z     vdW  Elec       q    Type
REMARK                         _______ _______ _______ _____ _____    ______ ____
ROOT
ATOM      4  C   UNL     1      -5.209   2.134  25.051  0.00  0.00    +0.006 C 
ATOM      5  C   UNL     1      -4.718   1.611  24.643  0.00  0.00    +0.005 C 
ATOM      6  C   UNL     1      -3.975   1.860  24.386  0.00  0.00    +0.026 C 
ATOM     18  C   UNL     1      -3.722   2.631  24.537  0.00  0.00    -0.048 C 
ATOM     19  C   UNL     1      -2.978   2.880  24.280  0.00  0.00    +0.026 C 
ATOM     20  C   UNL     1      -4.213   3.153  24.945  0.00  0.00    -0.033 C 
ATOM     21  C   UNL     1      -4.957   2.905  25.202  0.00  0.00    +0.040 C 
ENDROOT
BRANCH   4   2
ATOM      1  C   UNL     1      -6.586   1.865  24.780  0.00  0.00    +0.000 C 
ATOM      2  C   UNL     1      -5.953   1.886  25.308  0.00  0.00    +0.000 C 
ATOM      3  C   UNL     1      -6.063   1.658  26.094  0.00  0.00    +0.000 C 
ENDBRANCH   4   2
BRANCH  21  22
ATOM     22  C   UNL     1      -5.448   3.427  25.611  0.00  0.00    +0.114 C 
ATOM     23  N   UNL     1      -5.215   4.211  25.722  0.00  0.00    -0.131 NA
ENDBRANCH  21  22
BRANCH   6   7
ATOM      7  C   UNL     1      -3.483   1.338  23.978  0.00  0.00    +0.070 C 
BRANCH   7   8
ATOM      8  C   UNL     1      -3.457   0.542  24.192  0.00  0.00    +0.139 A 
ATOM      9  N   UNL     1      -3.075   0.230  24.853  0.00  0.00    -0.229 NA
ATOM     10  C   UNL     1      -3.190  -0.586  24.852  0.00  0.00    +0.100 A 
ATOM     11  C   UNL     1      -3.644  -0.779  24.191  0.00  0.00    +0.100 A 
ATOM     12  N   UNL     1      -3.809  -0.082  23.783  0.00  0.00    -0.229 NA
ATOM     13  C   UNL     1      -3.848  -1.566  24.046  0.00  0.00    +0.016 A 
ATOM     14  C   UNL     1      -3.599  -2.159  24.562  0.00  0.00    -0.020 A 
ATOM     15  C   UNL     1      -3.803  -2.944  24.417  0.00  0.00    +0.031 C 
ATOM     16  C   UNL     1      -3.145  -1.966  25.223  0.00  0.00    -0.003 A 
ATOM     17  C   UNL     1      -2.941  -1.180  25.369  0.00  0.00    +0.020 A 
ENDBRANCH   7   8
ENDBRANCH   6   7
TORSDOF 4
ENDMDL
MODEL 3
REMARK VINA RESULT:     -11.7      1.406      4.278
REMARK  Name = 
REMARK  4 active torsions:
REMARK  status: ('A' for Active; 'I' for Inactive)
REMARK    1  A    between atoms: C_2  and  C_4
REMARK    2  A    between atoms: C_6  and  C_7
REMARK    3  A    between atoms: C_7  and  C_8
REMARK    4  A    between atoms: C_21  and  C_22
REMARK                            x       y       z     vdW  Elec       q    Type
REMARK                         _______ _______ _______ _____ _____    ______ ____
ROOT
ATOM      4  C   UNL     1      -2.337  -0.926  25.116  0.00  0.00    +0.006 C 
ATOM      5  C   UNL     1      -3.029  -0.478  25.121  0.00  0.00    +0.005 C 
ATOM      6  C   UNL     1      -3.696  -0.745  24.715  0.00  0.00    +0.026 C 
ATOM     18  C   UNL     1      -3.669  -1.461  24.304  0.00  0.00    -0.048 C 
ATOM     19  C   UNL     1      -4.336  -1.728  23.898  0.00  0.00    +0.026 C 
ATOM     20  C   UNL     1      -2.976  -1.908  24.300  0.00  0.00    -0.033 C 
ATOM     21  C   UNL     1      -2.310  -1.641  24.707  0.00  0.00    +0.040 C 
ENDROOT
BRANCH   4   2
ATOM      1  C   UNL     1      -1.584  -0.821  26.327  0.00  0.00    +0.000 C 
ATOM      2  C   UNL     1      -1.670  -0.659  25.523  0.00  0.00    +0.000 C 
ATOM      3  C   UNL     1      -1.089  -0.228  25.124  0.00  0.00    +0.000 C 
ENDBRANCH   4   2
BRANCH  21  22
ATOM     22  C   UNL     1      -1.617  -2.089  24.702  0.00  0.00    +0.114 C 
ATOM     23  N   UNL     1      -1.582  -2.791  24.271  0.00  0.00    -0.131 NA
ENDBRANCH  21  22
BRANCH   6   7
ATOM      7  C   UNL     1      -4.389  -0.298  24.718  0.00  0.00    +0.070 C 
BRANCH   7   8
ATOM      8  C   UNL     1      -4.349   0.525  24.683  0.00  0.00    +0.139 A 
ATOM      9  N   UNL     1      -4.088   0.972  24.041  0.00  0.00    -0.229 NA
ATOM     10  C   UNL     1      -4.141   1.769  24.246  0.00  0.00    +0.100 A 
ATOM     11  C   UNL     1      -4.436   1.815  25.015  0.00  0.00    +0.100 A 
ATOM     12  N   UNL     1      -4.565   1.047  25.285  0.00  0.00    -0.229 NA
ATOM     13  C   UNL     1      -4.549   2.552  25.368  0.00  0.00    +0.016 A 
ATOM     14  C   UNL     1      -4.368   3.241  24.954  0.00  0.00    -0.020 A 
ATOM     15  C   UNL     1      -4.481   3.977  25.308  0.00  0.00    +0.031 C 
ATOM     16  C   UNL     1      -4.073   3.195  24.185  0.00  0.00    -0.003 A 
ATOM     17  C   UNL     1      -3.959   2.459  23.830  0.00  0.00    +0.020 A 
ENDBRANCH   7   8
ENDBRANCH   6   7
TORSDOF 4
ENDMDL
MODEL 4
REMARK VINA RESULT:     -11.5      1.526      4.404
REMARK  Name = 
REMARK  4 active torsions:
REMARK  status: ('A' for Active; 'I' for Inactive)
REMARK    1  A    between atoms: C_2  and  C_4
REMARK    2  A    between atoms: C_6  and  C_7
REMARK    3  A    between atoms: C_7  and  C_8
REMARK    4  A    between atoms: C_21  and  C_22
REMARK                            x       y       z     vdW  Elec       q    Type
REMARK                         _______ _______ _______ _____ _____    ______ ____
ROOT
ATOM      4  C   UNL     1      -2.517  -0.174  24.979  0.00  0.00    +0.006 C 
ATOM      5  C   UNL     1      -2.674   0.569  24.654  0.00  0.00    +0.005 C 
ATOM      6  C   UNL     1      -3.454   0.814  24.543  0.00  0.00    +0.026 C 
ATOM     18  C   UNL     1      -4.077   0.316  24.757  0.00  0.00    -0.048 C 
ATOM     19  C   UNL     1      -4.857   0.561  24.646  0.00  0.00    +0.026 C 
ATOM     20  C   UNL     1      -3.919  -0.425  25.081  0.00  0.00    -0.033 C 
ATOM     21  C   UNL     1      -3.140  -0.671  25.192  0.00  0.00    +0.040 C 
ENDROOT
BRANCH   4   2
ATOM      1  C   UNL     1      -1.329  -0.788  24.475  0.00  0.00    +0.000 C 
ATOM      2  C   UNL     1      -1.737  -0.419  25.090  0.00  0.00    +0.000 C 
ATOM      3  C   UNL     1      -1.365  -0.295  25.816  0.00  0.00    +0.000 C 
ENDBRANCH   4   2
BRANCH  21  22
ATOM     22  C   UNL     1      -2.983  -1.413  25.517  0.00  0.00    +0.114 C 
ATOM     23  N   UNL     1      -3.594  -1.957  25.616  0.00  0.00    -0.131 NA
ENDBRANCH  21  22
BRANCH   6   7
ATOM      7  C   UNL     1      -3.611   1.556  24.219  0.00  0.00    +0.070 C 
BRANCH   7   8
ATOM      8  C   UNL     1      -3.228   2.225  24.513  0.00  0.00    +0.139 A 
ATOM      9  N   UNL     1      -3.439   2.646  25.190  0.00  0.00    -0.229 NA
ATOM     10  C   UNL     1      -2.909   3.271  25.276  0.00  0.00    +0.100 A 
ATOM     11  C   UNL     1      -2.370   3.236  24.653  0.00  0.00    +0.100 A 
ATOM     12  N   UNL     1      -2.567   2.590  24.181  0.00  0.00    -0.229 NA
ATOM     13  C   UNL     1      -1.768   3.799  24.596  0.00  0.00    +0.016 A 
ATOM     14  C   UNL     1      -1.707   4.395  25.162  0.00  0.00    -0.020 A 
ATOM     15  C   UNL     1      -1.106   4.957  25.105  0.00  0.00    +0.031 C 
ATOM     16  C   UNL     1      -2.246   4.430  25.785  0.00  0.00    -0.003 A 
ATOM     17  C   UNL     1      -2.847   3.868  25.843  0.00  0.00    +0.020 A 
ENDBRANCH   7   8
ENDBRANCH   6   7
TORSDOF 4
ENDMDL
MODEL 5
REMARK VINA RESULT:     -11.4      1.323      2.052
REMARK  Name = 
REMARK  4 active torsions:
REMARK  status: ('A' for Active; 'I' for Inactive)
REMARK    1  A    between atoms: C_2  and  C_4
REMARK    2  A    between atoms: C_6  and  C_7
REMARK    3  A    between atoms: C_7  and  C_8
REMARK    4  A    between atoms: C_21  and  C_22
REMARK                            x       y       z     vdW  Elec       q    Type
REMARK                         _______ _______ _______ _____ _____    ______ ____
ROOT
ATOM      4  C   UNL     1      -2.957   2.646  24.813  0.00  0.00    +0.006 C 
ATOM      5  C   UNL     1      -2.623   1.905  24.668  0.00  0.00    +0.005 C 
ATOM      6  C   UNL     1      -1.875   1.725  24.968  0.00  0.00    +0.026 C 
ATOM     18  C   UNL     1      -1.462   2.285  25.411  0.00  0.00    -0.048 C 
ATOM     19  C   UNL     1      -0.715   2.105  25.711  0.00  0.00    +0.026 C 
ATOM     20  C   UNL     1      -1.797   3.025  25.555  0.00  0.00    -0.033 C 
ATOM     21  C   UNL     1      -2.544   3.206  25.255  0.00  0.00    +0.040 C 
ENDROOT
BRANCH   4   2
ATOM      1  C   UNL     1      -3.784   3.099  23.739  0.00  0.00    +0.000 C 
ATOM      2  C   UNL     1      -3.704   2.826  24.513  0.00  0.00    +0.000 C 
ATOM      3  C   UNL     1      -4.373   2.734  24.989  0.00  0.00    +0.000 C 
ENDBRANCH   4   2
BRANCH  21  22
ATOM     22  C   UNL     1      -2.878   3.946  25.400  0.00  0.00    +0.114 C 
ATOM     23  N   UNL     1      -2.456   4.514  25.822  0.00  0.00    -0.131 NA
ENDBRANCH  21  22
BRANCH   6   7
ATOM      7  C   UNL     1      -1.540   0.985  24.824  0.00  0.00    +0.070 C 
BRANCH   7   8
ATOM      8  C   UNL     1      -2.005   0.305  24.874  0.00  0.00    +0.139 A 
ATOM      9  N   UNL     1      -2.255  -0.062  25.568  0.00  0.00    -0.229 NA
ATOM     10  C   UNL     1      -2.705  -0.721  25.361  0.00  0.00    +0.100 A 
ATOM     11  C   UNL     1      -2.733  -0.762  24.537  0.00  0.00    +0.100 A 
ATOM     12  N   UNL     1      -2.300  -0.128  24.236  0.00  0.00    -0.229 NA
ATOM     13  C   UNL     1      -3.149  -1.372  24.169  0.00  0.00    +0.016 A 
ATOM     14  C   UNL     1      -3.537  -1.940  24.623  0.00  0.00    -0.020 A 
ATOM     15  C   UNL     1      -3.952  -2.549  24.254  0.00  0.00    +0.031 C 
ATOM     16  C   UNL     1      -3.509  -1.899  25.446  0.00  0.00    -0.003 A 
ATOM     17  C   UNL     1      -3.093  -1.290  25.816  0.00  0.00    +0.020 A 
ENDBRANCH   7   8
ENDBRANCH   6   7
TORSDOF 4
ENDMDL
