MODEL 1
REMARK VINA RESULT:      -9.4      0.000      0.000
REMARK  Name = 
REMARK  11 active torsions:
REMARK  status: ('A' for Active; 'I' for Inactive)
REMARK    1  A    between atoms: O_2  and  C_3
REMARK    2  A    between atoms: C_6  and  C_9
REMARK    3  A    between atoms: C_14  and  C_15
REMARK    4  A    between atoms: C_15  and  C_16
REMARK    5  A    between atoms: C_19  and  C_20
REMARK    6  A    between atoms: C_20  and  C_21
REMARK    7  A    between atoms: C_21  and  N_22
REMARK    8  A    between atoms: N_22  and  C_23
REMARK    9  A    between atoms: N_22  and  C_31
REMARK   10  A    between atoms: C_23  and  C_24
REMARK   11  A    between atoms: C_24  and  N_25
REMARK                            x       y       z     vdW  Elec       q    Type
REMARK                         _______ _______ _______ _____ _____    ______ ____
ROOT
ATOM      9  C   UNL     1       0.295  -0.203  23.414  0.00  0.00    +0.249 C 
ATOM     10  O   UNL     1      -0.117  -0.903  23.273  0.00  0.00    -0.270 OA
ATOM     11  N   UNL     1      -0.052   0.397  23.861  0.00  0.00    -0.276 N 
ATOM     12  C   UNL     1       0.360   1.098  24.002  0.00  0.00    +0.094 C 
ATOM     13  C   UNL     1       0.013   1.698  24.450  0.00  0.00    +0.022 C 
ATOM     14  C   UNL     1      -0.746   1.596  24.756  0.00  0.00    +0.015 C 
ATOM     19  C   UNL     1      -1.158   0.896  24.615  0.00  0.00    +0.022 C 
ATOM     37  C   UNL     1      -0.811   0.297  24.168  0.00  0.00    +0.094 C 
ENDROOT
BRANCH   9   6
ATOM      3  C   UNL     1       2.573   0.099  22.494  0.00  0.00    +0.139 A 
ATOM      4  C   UNL     1       2.469  -0.038  23.301  0.00  0.00    +0.037 A 
ATOM      5  C   UNL     1       1.709  -0.138  23.608  0.00  0.00    +0.008 A 
ATOM      6  C   UNL     1       1.055  -0.102  23.107  0.00  0.00    +0.054 A 
ATOM      7  C   UNL     1       1.159   0.035  22.300  0.00  0.00    +0.008 A 
ATOM      8  C   UNL     1       1.918   0.135  21.994  0.00  0.00    +0.037 A 
BRANCH   3   2
ATOM      1  C   UNL     1       3.879   0.671  22.588  0.00  0.00    +0.252 C 
ATOM      2  O   UNL     1       3.332   0.199  22.188  0.00  0.00    -0.471 OA
ENDBRANCH   3   2
ENDBRANCH   9   6
BRANCH  14  15
ATOM     15  C   UNL     1      -1.094   2.197  25.204  0.00  0.00    +0.114 C 
BRANCH  15  16
ATOM     16  C   UNL     1      -0.645   2.849  25.437  0.00  0.00    +0.365 C 
ATOM     17  O   UNL     1      -0.200   2.818  26.131  0.00  0.00    -0.246 OA
ATOM     18  O   UNL     1      -0.642   3.533  24.976  0.00  0.00    -0.246 OA
ENDBRANCH  15  16
ENDBRANCH  14  15
BRANCH  19  20
ATOM     20  C   UNL     1      -1.917   0.796  24.922  0.00  0.00    +0.023 C 
BRANCH  20  21
ATOM     21  C   UNL     1      -2.508   0.453  24.458  0.00  0.00    +0.091 C 
BRANCH  21  22
ATOM     22  N   UNL     1      -3.211   0.198  24.806  0.00  0.00    -0.306 N 
BRANCH  22  31
ATOM     31  C   UNL     1      -3.388  -0.608  24.836  0.00  0.00    +0.048 A 
ATOM     32  C   UNL     1      -3.627  -1.003  24.152  0.00  0.00    +0.015 A 
ATOM     33  C   UNL     1      -3.804  -1.808  24.182  0.00  0.00    +0.001 A 
ATOM     34  C   UNL     1      -3.741  -2.219  24.895  0.00  0.00    +0.000 A 
ATOM     35  C   UNL     1      -3.502  -1.823  25.578  0.00  0.00    +0.001 A 
ATOM     36  C   UNL     1      -3.325  -1.017  25.549  0.00  0.00    +0.015 A 
ENDBRANCH  22  31
BRANCH  22  23
ATOM     23  C   UNL     1      -3.737   0.748  25.124  0.00  0.00    +0.108 C 
BRANCH  23  24
ATOM     24  C   UNL     1      -4.226   1.186  24.627  0.00  0.00    +0.094 C 
BRANCH  24  25
ATOM     25  N   UNL     1      -4.713   1.775  24.939  0.00  0.00    -0.267 NA
ATOM     26  C   UNL     1      -5.422   1.572  25.307  0.00  0.00    +0.105 C 
ATOM     27  C   UNL     1      -5.908   2.161  25.620  0.00  0.00    +0.159 C 
ATOM     28  O   UNL     1      -5.685   2.953  25.563  0.00  0.00    -0.351 OA
ATOM     29  C   UNL     1      -4.974   3.157  25.195  0.00  0.00    +0.159 C 
ATOM     30  C   UNL     1      -4.489   2.567  24.883  0.00  0.00    +0.105 C 
ENDBRANCH  24  25
ENDBRANCH  23  24
ENDBRANCH  22  23
ENDBRANCH  21  22
ENDBRANCH  20  21
ENDBRANCH  19  20
TORSDOF 11
ENDMDL
MODEL 2
REMARK VINA RESULT:      -8.6      1.328      5.580
REMARK  Name = 
REMARK  11 active torsions:
REMARK  status: ('A' for Active; 'I' for Inactive)
REMARK    1  A    between atoms: O_2  and  C_3
REMARK    2  A    between atoms: C_6  and  C_9
REMARK    3  A    between atoms: C_14  and  C_15
REMARK    4  A    between atoms: C_15  and  C_16
REMARK    5  A    between atoms: C_19  and  C_20
REMARK    6  A    between atoms: C_20  and  C_21
REMARK    7  A    between atoms: C_21  and  N_22
REMARK    8  A    between atoms: N_22  and  C_23
REMARK    9  A    between atoms: N_22  and  C_31
REMARK   10  A    between atoms: C_23  and  C_24
REMARK   11  A    between atoms: C_24  and  N_25
REMARK                            x       y       z     vdW  Elec       q    Type
REMARK                         _______ _______ _______ _____ _____    ______ ____
ROOT
ATOM      9  C   UNL     1      -3.537   1.841  24.608  0.00  0.00    +0.249 C 
ATOM     10  O   UNL     1      -3.737   1.241  24.078  0.00  0.00    -0.270 OA
ATOM     11  N   UNL     1      -2.760   1.918  24.870  0.00  0.00    -0.276 N 
ATOM     12  C   UNL     1      -2.560   2.519  25.400  0.00  0.00    +0.094 C 
ATOM     13  C   UNL     1      -1.782   2.596  25.663  0.00  0.00    +0.022 C 
ATOM     14  C   UNL     1      -1.203   2.072  25.396  0.00  0.00    +0.015 C 
ATOM     19  C   UNL     1      -1.402   1.472  24.867  0.00  0.00    +0.022 C 
ATOM     37  C   UNL     1      -2.180   1.395  24.604  0.00  0.00    +0.094 C 
ENDROOT
BRANCH   9   6
ATOM      3  C   UNL     1      -5.275   3.412  25.408  0.00  0.00    +0.139 A 
ATOM      4  C   UNL     1      -4.730   3.655  24.839  0.00  0.00    +0.037 A 
ATOM      5  C   UNL     1      -4.150   3.132  24.572  0.00  0.00    +0.008 A 
ATOM      6  C   UNL     1      -4.117   2.365  24.875  0.00  0.00    +0.054 A 
ATOM      7  C   UNL     1      -4.662   2.122  25.444  0.00  0.00    +0.008 A 
ATOM      8  C   UNL     1      -5.241   2.645  25.710  0.00  0.00    +0.037 A 
BRANCH   3   2
ATOM      1  C   UNL     1      -5.825   4.731  25.452  0.00  0.00    +0.252 C 
ATOM      2  O   UNL     1      -5.854   3.936  25.674  0.00  0.00    -0.471 OA
ENDBRANCH   3   2
ENDBRANCH   9   6
BRANCH  14  15
ATOM     15  C   UNL     1      -0.424   2.149  25.659  0.00  0.00    +0.114 C 
BRANCH  15  16
ATOM     16  C   UNL     1      -0.213   2.786  26.140  0.00  0.00    +0.365 C 
ATOM     17  O   UNL     1      -0.100   3.532  25.810  0.00  0.00    -0.246 OA
ATOM     18  O   UNL     1      -0.115   2.674  26.951  0.00  0.00    -0.246 OA
ENDBRANCH  15  16
ENDBRANCH  14  15
BRANCH  19  20
ATOM     20  C   UNL     1      -0.824   0.949  24.600  0.00  0.00    +0.023 C 
BRANCH  20  21
ATOM     21  C   UNL     1      -1.038   0.286  24.157  0.00  0.00    +0.091 C 
BRANCH  21  22
ATOM     22  N   UNL     1      -0.544  -0.374  24.135  0.00  0.00    -0.306 N 
BRANCH  22  31
ATOM     31  C   UNL     1      -0.816  -1.102  24.413  0.00  0.00    +0.048 A 
ATOM     32  C   UNL     1      -0.463  -1.449  25.074  0.00  0.00    +0.015 A 
ATOM     33  C   UNL     1      -0.735  -2.176  25.352  0.00  0.00    +0.001 A 
ATOM     34  C   UNL     1      -1.359  -2.558  24.969  0.00  0.00    +0.000 A 
ATOM     35  C   UNL     1      -1.711  -2.211  24.309  0.00  0.00    +0.001 A 
ATOM     36  C   UNL     1      -1.439  -1.483  24.031  0.00  0.00    +0.015 A 
ENDBRANCH  22  31
BRANCH  22  23
ATOM     23  C   UNL     1       0.221  -0.307  23.835  0.00  0.00    +0.108 C 
BRANCH  23  24
ATOM     24  C   UNL     1       0.339  -0.074  23.053  0.00  0.00    +0.094 C 
BRANCH  24  25
ATOM     25  N   UNL     1       1.103  -0.039  22.742  0.00  0.00    -0.267 NA
ATOM     26  C   UNL     1       1.703   0.337  23.163  0.00  0.00    +0.105 C 
ATOM     27  C   UNL     1       2.467   0.371  22.853  0.00  0.00    +0.159 C 
ATOM     28  O   UNL     1       2.629   0.029  22.120  0.00  0.00    -0.351 OA
ATOM     29  C   UNL     1       2.028  -0.347  21.697  0.00  0.00    +0.159 C 
ATOM     30  C   UNL     1       1.265  -0.381  22.009  0.00  0.00    +0.105 C 
ENDBRANCH  24  25
ENDBRANCH  23  24
ENDBRANCH  22  23
ENDBRANCH  21  22
ENDBRANCH  20  21
ENDBRANCH  19  20
TORSDOF 11
ENDMDL
MODEL 3
REMARK VINA RESULT:      -8.1      1.008      2.558
REMARK  Name = 
REMARK  11 active torsions:
REMARK  status: ('A' for Active; 'I' for Inactive)
REMARK    1  A    between atoms: O_2  and  C_3
REMARK    2  A    between atoms: C_6  and  C_9
REMARK    3  A    between atoms: C_14  and  C_15
REMARK    4  A    between atoms: C_15  and  C_16
REMARK    5  A    between atoms: C_19  and  C_20
REMARK    6  A    between atoms: C_20  and  C_21
REMARK    7  A    between atoms: C_21  and  N_22
REMARK    8  A    between atoms: N_22  and  C_23
REMARK    9  A    between atoms: N_22  and  C_31
REMARK   10  A    between atoms: C_23  and  C_24
REMARK   11  A    between atoms: C_24  and  N_25
REMARK                            x       y       z     vdW  Elec       q    Type
REMARK                         _______ _______ _______ _____ _____    ______ ____
ROOT
ATOM      9  C   UNL     1       0.104  -0.039  23.455  0.00  0.00    +0.249 C 
ATOM     10  O   UNL     1      -0.348  -0.722  23.360  0.00  0.00    -0.270 OA
ATOM     11  N   UNL     1      -0.213   0.614  23.845  0.00  0.00    -0.276 N 
ATOM     12  C   UNL     1       0.240   1.298  23.941  0.00  0.00    +0.094 C 
ATOM     13  C   UNL     1      -0.077   1.952  24.331  0.00  0.00    +0.022 C 
ATOM     14  C   UNL     1      -0.847   1.922  24.627  0.00  0.00    +0.015 C 
ATOM     19  C   UNL     1      -1.299   1.239  24.532  0.00  0.00    +0.022 C 
ATOM     37  C   UNL     1      -0.982   0.585  24.141  0.00  0.00    +0.094 C 
ENDROOT
BRANCH   9   6
ATOM      3  C   UNL     1       2.414   0.049  22.569  0.00  0.00    +0.139 A 
ATOM      4  C   UNL     1       2.286  -0.004  23.382  0.00  0.00    +0.037 A 
ATOM      5  C   UNL     1       1.515  -0.033  23.678  0.00  0.00    +0.008 A 
ATOM      6  C   UNL     1       0.874  -0.010  23.159  0.00  0.00    +0.054 A 
ATOM      7  C   UNL     1       1.002   0.043  22.346  0.00  0.00    +0.008 A 
ATOM      8  C   UNL     1       1.771   0.072  22.051  0.00  0.00    +0.037 A 
BRANCH   3   2
ATOM      1  C   UNL     1       3.718   0.632  22.571  0.00  0.00    +0.252 C 
ATOM      2  O   UNL     1       3.183   0.078  22.274  0.00  0.00    -0.471 OA
ENDBRANCH   3   2
ENDBRANCH   9   6
BRANCH  14  15
ATOM     15  C   UNL     1      -1.164   2.576  25.018  0.00  0.00    +0.114 C 
BRANCH  15  16
ATOM     16  C   UNL     1      -0.673   3.199  25.245  0.00  0.00    +0.365 C 
ATOM     17  O   UNL     1      -0.245   3.153  25.948  0.00  0.00    -0.246 OA
ATOM     18  O   UNL     1      -0.609   3.869  24.767  0.00  0.00    -0.246 OA
ENDBRANCH  15  16
ENDBRANCH  14  15
BRANCH  19  20
ATOM     20  C   UNL     1      -2.068   1.210  24.827  0.00  0.00    +0.023 C 
BRANCH  20  21
ATOM     21  C   UNL     1      -2.700   1.053  24.320  0.00  0.00    +0.091 C 
BRANCH  21  22
ATOM     22  N   UNL     1      -3.433   0.833  24.628  0.00  0.00    -0.306 N 
BRANCH  22  31
ATOM     31  C   UNL     1      -4.032   1.396  24.710  0.00  0.00    +0.048 A 
ATOM     32  C   UNL     1      -4.424   1.479  25.431  0.00  0.00    +0.015 A 
ATOM     33  C   UNL     1      -5.022   2.041  25.513  0.00  0.00    +0.001 A 
ATOM     34  C   UNL     1      -5.228   2.521  24.873  0.00  0.00    +0.000 A 
ATOM     35  C   UNL     1      -4.836   2.437  24.153  0.00  0.00    +0.001 A 
ATOM     36  C   UNL     1      -4.238   1.875  24.071  0.00  0.00    +0.015 A 
ENDBRANCH  22  31
BRANCH  22  23
ATOM     23  C   UNL     1      -3.569   0.052  24.854  0.00  0.00    +0.108 C 
BRANCH  23  24
ATOM     24  C   UNL     1      -3.803  -0.505  24.293  0.00  0.00    +0.094 C 
BRANCH  24  25
ATOM     25  N   UNL     1      -3.769  -1.311  24.471  0.00  0.00    -0.267 NA
ATOM     26  C   UNL     1      -3.508  -1.559  25.212  0.00  0.00    +0.105 C 
ATOM     27  C   UNL     1      -3.474  -2.364  25.390  0.00  0.00    +0.159 C 
ATOM     28  O   UNL     1      -3.702  -2.921  24.825  0.00  0.00    -0.351 OA
ATOM     29  C   UNL     1      -3.963  -2.672  24.083  0.00  0.00    +0.159 C 
ATOM     30  C   UNL     1      -3.997  -1.867  23.906  0.00  0.00    +0.105 C 
ENDBRANCH  24  25
ENDBRANCH  23  24
ENDBRANCH  22  23
ENDBRANCH  21  22
ENDBRANCH  20  21
ENDBRANCH  19  20
TORSDOF 11
ENDMDL
MODEL 4
REMARK VINA RESULT:      -8.0      2.894      4.965
REMARK  Name = 
REMARK  11 active torsions:
REMARK  status: ('A' for Active; 'I' for Inactive)
REMARK    1  A    between atoms: O_2  and  C_3
REMARK    2  A    between atoms: C_6  and  C_9
REMARK    3  A    between atoms: C_14  and  C_15
REMARK    4  A    between atoms: C_15  and  C_16
REMARK    5  A    between atoms: C_19  and  C_20
REMARK    6  A    between atoms: C_20  and  C_21
REMARK    7  A    between atoms: C_21  and  N_22
REMARK    8  A    between atoms: N_22  and  C_23
REMARK    9  A    between atoms: N_22  and  C_31
REMARK   10  A    between atoms: C_23  and  C_24
REMARK   11  A    between atoms: C_24  and  N_25
REMARK                            x       y       z     vdW  Elec       q    Type
REMARK                         _______ _______ _______ _____ _____    ______ ____
ROOT
ATOM      9  C   UNL     1      -4.004  -0.376  24.846  0.00  0.00    +0.249 C 
ATOM     10  O   UNL     1      -4.415  -0.184  25.535  0.00  0.00    -0.270 OA
ATOM     11  N   UNL     1      -3.742   0.221  24.342  0.00  0.00    -0.276 N 
ATOM     12  C   UNL     1      -3.331   0.028  23.652  0.00  0.00    +0.094 C 
ATOM     13  C   UNL     1      -3.069   0.626  23.148  0.00  0.00    +0.022 C 
ATOM     14  C   UNL     1      -3.217   1.416  23.333  0.00  0.00    +0.015 C 
ATOM     19  C   UNL     1      -3.627   1.609  24.022  0.00  0.00    +0.022 C 
ATOM     37  C   UNL     1      -3.890   1.011  24.526  0.00  0.00    +0.094 C 
ENDROOT
BRANCH   9   6
ATOM      3  C   UNL     1      -3.561  -2.748  24.291  0.00  0.00    +0.139 A 
ATOM      4  C   UNL     1      -4.182  -2.348  23.924  0.00  0.00    +0.037 A 
ATOM      5  C   UNL     1      -4.330  -1.557  24.109  0.00  0.00    +0.008 A 
ATOM      6  C   UNL     1      -3.856  -1.167  24.661  0.00  0.00    +0.054 A 
ATOM      7  C   UNL     1      -3.235  -1.568  25.028  0.00  0.00    +0.008 A 
ATOM      8  C   UNL     1      -3.088  -2.357  24.843  0.00  0.00    +0.037 A 
BRANCH   3   2
ATOM      1  C   UNL     1      -2.685  -3.757  23.783  0.00  0.00    +0.252 C 
ATOM      2  O   UNL     1      -3.413  -3.538  24.106  0.00  0.00    -0.471 OA
ENDBRANCH   3   2
ENDBRANCH   9   6
BRANCH  14  15
ATOM     15  C   UNL     1      -2.955   2.015  22.828  0.00  0.00    +0.114 C 
BRANCH  15  16
ATOM     16  C   UNL     1      -2.338   1.867  22.300  0.00  0.00    +0.365 C 
ATOM     17  O   UNL     1      -2.497   1.763  21.498  0.00  0.00    -0.246 OA
ATOM     18  O   UNL     1      -1.561   1.824  22.575  0.00  0.00    -0.246 OA
ENDBRANCH  15  16
ENDBRANCH  14  15
BRANCH  19  20
ATOM     20  C   UNL     1      -3.775   2.399  24.207  0.00  0.00    +0.023 C 
BRANCH  20  21
ATOM     21  C   UNL     1      -3.786   2.644  24.995  0.00  0.00    +0.091 C 
BRANCH  21  22
ATOM     22  N   UNL     1      -3.931   3.435  25.180  0.00  0.00    -0.306 N 
BRANCH  22  31
ATOM     31  C   UNL     1      -4.686   3.671  25.416  0.00  0.00    +0.048 A 
ATOM     32  C   UNL     1      -5.035   4.336  25.072  0.00  0.00    +0.015 A 
ATOM     33  C   UNL     1      -5.790   4.573  25.308  0.00  0.00    +0.001 A 
ATOM     34  C   UNL     1      -6.195   4.145  25.886  0.00  0.00    +0.000 A 
ATOM     35  C   UNL     1      -5.845   3.481  26.228  0.00  0.00    +0.001 A 
ATOM     36  C   UNL     1      -5.091   3.244  25.993  0.00  0.00    +0.015 A 
ENDBRANCH  22  31
BRANCH  22  23
ATOM     23  C   UNL     1      -3.322   3.988  25.131  0.00  0.00    +0.108 C 
BRANCH  23  24
ATOM     24  C   UNL     1      -2.675   3.936  25.638  0.00  0.00    +0.094 C 
BRANCH  24  25
ATOM     25  N   UNL     1      -1.956   4.284  25.429  0.00  0.00    -0.267 NA
ATOM     26  C   UNL     1      -1.264   3.837  25.434  0.00  0.00    +0.105 C 
ATOM     27  C   UNL     1      -0.545   4.185  25.225  0.00  0.00    +0.159 C 
ATOM     28  O   UNL     1      -0.520   4.982  25.011  0.00  0.00    -0.351 OA
ATOM     29  C   UNL     1      -1.214   5.430  25.006  0.00  0.00    +0.159 C 
ATOM     30  C   UNL     1      -1.931   5.081  25.215  0.00  0.00    +0.105 C 
ENDBRANCH  24  25
ENDBRANCH  23  24
ENDBRANCH  22  23
ENDBRANCH  21  22
ENDBRANCH  20  21
ENDBRANCH  19  20
TORSDOF 11
ENDMDL
MODEL 5
REMARK VINA RESULT:      -8.0      1.790      4.628
REMARK  Name = 
REMARK  11 active torsions:
REMARK  status: ('A' for Active; 'I' for Inactive)
REMARK    1  A    between atoms: O_2  and  C_3
REMARK    2  A    between atoms: C_6  and  C_9
REMARK    3  A    between atoms: C_14  and  C_15
REMARK    4  A    between atoms: C_15  and  C_16
REMARK    5  A    between atoms: C_19  and  C_20
REMARK    6  A    between atoms: C_20  and  C_21
REMARK    7  A    between atoms: C_21  and  N_22
REMARK    8  A    between atoms: N_22  and  C_23
REMARK    9  A    between atoms: N_22  and  C_31
REMARK   10  A    between atoms: C_23  and  C_24
REMARK   11  A    between atoms: C_24  and  N_25
REMARK                            x       y       z     vdW  Elec       q    Type
REMARK                         _______ _______ _______ _____ _____    ______ ____
ROOT
ATOM      9  C   UNL     1      -3.617  -0.236  24.721  0.00  0.00    +0.249 C 
ATOM     10  O   UNL     1      -4.288   0.189  24.944  0.00  0.00    -0.270 OA
ATOM     11  N   UNL     1      -2.923   0.162  24.523  0.00  0.00    -0.276 N 
ATOM     12  C   UNL     1      -2.252  -0.264  24.300  0.00  0.00    +0.094 C 
ATOM     13  C   UNL     1      -1.557   0.135  24.101  0.00  0.00    +0.022 C 
ATOM     14  C   UNL     1      -1.534   0.959  24.126  0.00  0.00    +0.015 C 
ATOM     19  C   UNL     1      -2.204   1.385  24.348  0.00  0.00    +0.022 C 
ATOM     37  C   UNL     1      -2.899   0.986  24.547  0.00  0.00    +0.094 C 
ENDROOT
BRANCH   9   6
ATOM      3  C   UNL     1      -3.689  -2.710  24.648  0.00  0.00    +0.139 A 
ATOM      4  C   UNL     1      -3.949  -2.270  24.001  0.00  0.00    +0.037 A 
ATOM      5  C   UNL     1      -3.925  -1.445  24.025  0.00  0.00    +0.008 A 
ATOM      6  C   UNL     1      -3.641  -1.061  24.697  0.00  0.00    +0.054 A 
ATOM      7  C   UNL     1      -3.380  -1.501  25.345  0.00  0.00    +0.008 A 
ATOM      8  C   UNL     1      -3.404  -2.324  25.320  0.00  0.00    +0.037 A 
BRANCH   3   2
ATOM      1  C   UNL     1      -3.598  -3.929  23.908  0.00  0.00    +0.252 C 
ATOM      2  O   UNL     1      -3.713  -3.534  24.624  0.00  0.00    -0.471 OA
ENDBRANCH   3   2
ENDBRANCH   9   6
BRANCH  14  15
ATOM     15  C   UNL     1      -0.839   1.358  23.927  0.00  0.00    +0.114 C 
BRANCH  15  16
ATOM     16  C   UNL     1      -0.125   0.946  23.883  0.00  0.00    +0.365 C 
ATOM     17  O   UNL     1       0.378   0.922  24.536  0.00  0.00    -0.246 OA
ATOM     18  O   UNL     1       0.084   0.558  23.186  0.00  0.00    -0.246 OA
ENDBRANCH  15  16
ENDBRANCH  14  15
BRANCH  19  20
ATOM     20  C   UNL     1      -2.181   2.208  24.372  0.00  0.00    +0.023 C 
BRANCH  20  21
ATOM     21  C   UNL     1      -2.346   2.606  25.076  0.00  0.00    +0.091 C 
BRANCH  21  22
ATOM     22  N   UNL     1      -2.578   3.398  25.059  0.00  0.00    -0.306 N 
BRANCH  22  31
ATOM     31  C   UNL     1      -2.007   3.995  25.041  0.00  0.00    +0.048 A 
ATOM     32  C   UNL     1      -1.399   4.000  25.599  0.00  0.00    +0.015 A 
ATOM     33  C   UNL     1      -0.829   4.596  25.581  0.00  0.00    +0.001 A 
ATOM     34  C   UNL     1      -0.867   5.186  25.006  0.00  0.00    +0.000 A 
ATOM     35  C   UNL     1      -1.475   5.180  24.449  0.00  0.00    +0.001 A 
ATOM     36  C   UNL     1      -2.045   4.584  24.466  0.00  0.00    +0.015 A 
ENDBRANCH  22  31
BRANCH  22  23
ATOM     23  C   UNL     1      -3.379   3.594  25.060  0.00  0.00    +0.108 C 
BRANCH  23  24
ATOM     24  C   UNL     1      -3.818   3.532  25.755  0.00  0.00    +0.094 C 
BRANCH  24  25
ATOM     25  N   UNL     1      -4.641   3.589  25.731  0.00  0.00    -0.267 NA
ATOM     26  C   UNL     1      -4.999   4.277  25.453  0.00  0.00    +0.105 C 
ATOM     27  C   UNL     1      -5.822   4.334  25.429  0.00  0.00    +0.159 C 
ATOM     28  O   UNL     1      -6.286   3.701  25.683  0.00  0.00    -0.351 OA
ATOM     29  C   UNL     1      -5.927   3.011  25.961  0.00  0.00    +0.159 C 
ATOM     30  C   UNL     1      -5.105   2.956  25.985  0.00  0.00    +0.105 C 
ENDBRANCH  24  25
ENDBRANCH  23  24
ENDBRANCH  22  23
ENDBRANCH  21  22
ENDBRANCH  20  21
ENDBRANCH  19  20
TORSDOF 11
ENDMDL
MODEL 6
REMARK VINA RESULT:      -7.2      1.764      4.766
REMARK  Name = 
REMARK  11 active torsions:
REMARK  status: ('A' for Active; 'I' for Inactive)
REMARK    1  A    between atoms: O_2  and  C_3
REMARK    2  A    between atoms: C_6  and  C_9
REMARK    3  A    between atoms: C_14  and  C_15
REMARK    4  A    between atoms: C_15  and  C_16
REMARK    5  A    between atoms: C_19  and  C_20
REMARK    6  A    between atoms: C_20  and  C_21
REMARK    7  A    between atoms: C_21  and  N_22
REMARK    8  A    between atoms: N_22  and  C_23
REMARK    9  A    between atoms: N_22  and  C_31
REMARK   10  A    between atoms: C_23  and  C_24
REMARK   11  A    between atoms: C_24  and  N_25
REMARK                            x       y       z     vdW  Elec       q    Type
REMARK                         _______ _______ _______ _____ _____    ______ ____
ROOT
ATOM      9  C   UNL     1      -1.956   2.448  25.145  0.00  0.00    +0.249 C 
ATOM     10  O   UNL     1      -1.293   1.958  25.163  0.00  0.00    -0.270 OA
ATOM     11  N   UNL     1      -2.710   2.120  25.090  0.00  0.00    -0.276 N 
ATOM     12  C   UNL     1      -3.374   2.611  25.072  0.00  0.00    +0.094 C 
ATOM     13  C   UNL     1      -4.129   2.282  25.017  0.00  0.00    +0.022 C 
ATOM     14  C   UNL     1      -4.220   1.463  24.980  0.00  0.00    +0.015 C 
ATOM     19  C   UNL     1      -3.557   0.973  24.999  0.00  0.00    +0.022 C 
ATOM     37  C   UNL     1      -2.803   1.301  25.054  0.00  0.00    +0.094 C 
ENDROOT
BRANCH   9   6
ATOM      3  C   UNL     1      -1.680   4.906  25.255  0.00  0.00    +0.139 A 
ATOM      4  C   UNL     1      -1.459   4.496  24.574  0.00  0.00    +0.037 A 
ATOM      5  C   UNL     1      -1.551   3.676  24.537  0.00  0.00    +0.008 A 
ATOM      6  C   UNL     1      -1.864   3.268  25.182  0.00  0.00    +0.054 A 
ATOM      7  C   UNL     1      -2.085   3.678  25.863  0.00  0.00    +0.008 A 
ATOM      8  C   UNL     1      -1.993   4.496  25.899  0.00  0.00    +0.037 A 
BRANCH   3   2
ATOM      1  C   UNL     1      -1.105   6.110  24.743  0.00  0.00    +0.252 C 
ATOM      2  O   UNL     1      -1.588   5.724  25.291  0.00  0.00    -0.471 OA
ENDBRANCH   3   2
ENDBRANCH   9   6
BRANCH  14  15
ATOM     15  C   UNL     1      -4.975   1.134  24.925  0.00  0.00    +0.114 C 
BRANCH  15  16
ATOM     16  C   UNL     1      -5.637   1.585  25.127  0.00  0.00    +0.365 C 
ATOM     17  O   UNL     1      -5.872   1.645  25.914  0.00  0.00    -0.246 OA
ATOM     18  O   UNL     1      -6.063   1.977  24.538  0.00  0.00    -0.246 OA
ENDBRANCH  15  16
ENDBRANCH  14  15
BRANCH  19  20
ATOM     20  C   UNL     1      -3.649   0.154  24.962  0.00  0.00    +0.023 C 
BRANCH  20  21
ATOM     21  C   UNL     1      -3.358  -0.266  24.314  0.00  0.00    +0.091 C 
BRANCH  21  22
ATOM     22  N   UNL     1      -3.087  -1.040  24.410  0.00  0.00    -0.306 N 
BRANCH  22  31
ATOM     31  C   UNL     1      -3.591  -1.675  24.253  0.00  0.00    +0.048 A 
ATOM     32  C   UNL     1      -4.028  -1.691  23.553  0.00  0.00    +0.015 A 
ATOM     33  C   UNL     1      -4.531  -2.325  23.395  0.00  0.00    +0.001 A 
ATOM     34  C   UNL     1      -4.598  -2.944  23.938  0.00  0.00    +0.000 A 
ATOM     35  C   UNL     1      -4.161  -2.927  24.637  0.00  0.00    +0.001 A 
ATOM     36  C   UNL     1      -3.658  -2.292  24.795  0.00  0.00    +0.015 A 
ENDBRANCH  22  31
BRANCH  22  23
ATOM     23  C   UNL     1      -2.315  -1.179  24.663  0.00  0.00    +0.108 C 
BRANCH  23  24
ATOM     24  C   UNL     1      -1.706  -1.245  24.112  0.00  0.00    +0.094 C 
BRANCH  24  25
ATOM     25  N   UNL     1      -0.922  -1.287  24.365  0.00  0.00    -0.267 NA
ATOM     26  C   UNL     1      -0.331  -0.892  23.947  0.00  0.00    +0.105 C 
ATOM     27  C   UNL     1       0.453  -0.933  24.200  0.00  0.00    +0.159 C 
ATOM     28  O   UNL     1       0.646  -1.371  24.873  0.00  0.00    -0.351 OA
ATOM     29  C   UNL     1       0.055  -1.766  25.292  0.00  0.00    +0.159 C 
ATOM     30  C   UNL     1      -0.729  -1.724  25.038  0.00  0.00    +0.105 C 
ENDBRANCH  24  25
ENDBRANCH  23  24
ENDBRANCH  22  23
ENDBRANCH  21  22
ENDBRANCH  20  21
ENDBRANCH  19  20
TORSDOF 11
ENDMDL
MODEL 7
REMARK VINA RESULT:      -7.0      1.579      5.683
REMARK  Name = 
REMARK  11 active torsions:
REMARK  status: ('A' for Active; 'I' for Inactive)
REMARK    1  A    between atoms: O_2  and  C_3
REMARK    2  A    between atoms: C_6  and  C_9
REMARK    3  A    between atoms: C_14  and  C_15
REMARK    4  A    between atoms: C_15  and  C_16
REMARK    5  A    between atoms: C_19  and  C_20
REMARK    6  A    between atoms: C_20  and  C_21
REMARK    7  A    between atoms: C_21  and  N_22
REMARK    8  A    between atoms: N_22  and  C_23
REMARK    9  A    between atoms: N_22  and  C_31
REMARK   10  A    between atoms: C_23  and  C_24
REMARK   11  A    between atoms: C_24  and  N_25
REMARK                            x       y       z     vdW  Elec       q    Type
REMARK                         _______ _______ _______ _____ _____    ______ ____
ROOT
ATOM      9  C   UNL     1      -4.747   1.880  25.385  0.00  0.00    +0.249 C 
ATOM     10  O   UNL     1      -4.834   1.276  25.940  0.00  0.00    -0.270 OA
ATOM     11  N   UNL     1      -4.263   1.770  24.728  0.00  0.00    -0.276 N 
ATOM     12  C   UNL     1      -4.176   2.375  24.173  0.00  0.00    +0.094 C 
ATOM     13  C   UNL     1      -3.692   2.265  23.514  0.00  0.00    +0.022 C 
ATOM     14  C   UNL     1      -3.294   1.549  23.410  0.00  0.00    +0.015 C 
ATOM     19  C   UNL     1      -3.380   0.945  23.964  0.00  0.00    +0.022 C 
ATOM     37  C   UNL     1      -3.865   1.055  24.623  0.00  0.00    +0.094 C 
ENDROOT
BRANCH   9   6
ATOM      3  C   UNL     1      -5.941   4.026  25.699  0.00  0.00    +0.139 A 
ATOM      4  C   UNL     1      -5.129   3.981  25.841  0.00  0.00    +0.037 A 
ATOM      5  C   UNL     1      -4.731   3.265  25.737  0.00  0.00    +0.008 A 
ATOM      6  C   UNL     1      -5.145   2.596  25.490  0.00  0.00    +0.054 A 
ATOM      7  C   UNL     1      -5.956   2.641  25.348  0.00  0.00    +0.008 A 
ATOM      8  C   UNL     1      -6.354   3.356  25.452  0.00  0.00    +0.037 A 
BRANCH   3   2
ATOM      1  C   UNL     1      -6.146   5.393  25.334  0.00  0.00    +0.252 C 
ATOM      2  O   UNL     1      -6.338   4.741  25.804  0.00  0.00    -0.471 OA
ENDBRANCH   3   2
ENDBRANCH   9   6
BRANCH  14  15
ATOM     15  C   UNL     1      -2.809   1.439  22.751  0.00  0.00    +0.114 C 
BRANCH  15  16
ATOM     16  C   UNL     1      -2.519   2.093  22.339  0.00  0.00    +0.365 C 
ATOM     17  O   UNL     1      -1.901   2.538  22.653  0.00  0.00    -0.246 OA
ATOM     18  O   UNL     1      -2.848   2.300  21.611  0.00  0.00    -0.246 OA
ENDBRANCH  15  16
ENDBRANCH  14  15
BRANCH  19  20
ATOM     20  C   UNL     1      -2.983   0.230  23.860  0.00  0.00    +0.023 C 
BRANCH  20  21
ATOM     21  C   UNL     1      -2.685  -0.176  24.513  0.00  0.00    +0.091 C 
BRANCH  21  22
ATOM     22  N   UNL     1      -2.294  -0.895  24.410  0.00  0.00    -0.306 N 
BRANCH  22  31
ATOM     31  C   UNL     1      -2.668  -1.602  24.617  0.00  0.00    +0.048 A 
ATOM     32  C   UNL     1      -2.857  -1.753  25.406  0.00  0.00    +0.015 A 
ATOM     33  C   UNL     1      -3.231  -2.459  25.612  0.00  0.00    +0.001 A 
ATOM     34  C   UNL     1      -3.417  -3.014  25.029  0.00  0.00    +0.000 A 
ATOM     35  C   UNL     1      -3.228  -2.861  24.241  0.00  0.00    +0.001 A 
ATOM     36  C   UNL     1      -2.854  -2.156  24.035  0.00  0.00    +0.015 A 
ENDBRANCH  22  31
BRANCH  22  23
ATOM     23  C   UNL     1      -1.530  -0.909  24.102  0.00  0.00    +0.108 C 
BRANCH  23  24
ATOM     24  C   UNL     1      -0.900  -0.619  24.547  0.00  0.00    +0.094 C 
BRANCH  24  25
ATOM     25  N   UNL     1      -0.234  -0.309  24.169  0.00  0.00    -0.267 NA
ATOM     26  C   UNL     1       0.117  -0.723  23.548  0.00  0.00    +0.105 C 
ATOM     27  C   UNL     1       0.783  -0.413  23.171  0.00  0.00    +0.159 C 
ATOM     28  O   UNL     1       1.096   0.310  23.414  0.00  0.00    -0.351 OA
ATOM     29  C   UNL     1       0.744   0.724  24.036  0.00  0.00    +0.159 C 
ATOM     30  C   UNL     1       0.079   0.414  24.413  0.00  0.00    +0.105 C 
ENDBRANCH  24  25
ENDBRANCH  23  24
ENDBRANCH  22  23
ENDBRANCH  21  22
ENDBRANCH  20  21
ENDBRANCH  19  20
TORSDOF 11
ENDMDL
MODEL 8
REMARK VINA RESULT:      -7.0      1.578      3.267
REMARK  Name = 
REMARK  11 active torsions:
REMARK  status: ('A' for Active; 'I' for Inactive)
REMARK    1  A    between atoms: O_2  and  C_3
REMARK    2  A    between atoms: C_6  and  C_9
REMARK    3  A    between atoms: C_14  and  C_15
REMARK    4  A    between atoms: C_15  and  C_16
REMARK    5  A    between atoms: C_19  and  C_20
REMARK    6  A    between atoms: C_20  and  C_21
REMARK    7  A    between atoms: C_21  and  N_22
REMARK    8  A    between atoms: N_22  and  C_23
REMARK    9  A    between atoms: N_22  and  C_31
REMARK   10  A    between atoms: C_23  and  C_24
REMARK   11  A    between atoms: C_24  and  N_25
REMARK                            x       y       z     vdW  Elec       q    Type
REMARK                         _______ _______ _______ _____ _____    ______ ____
ROOT
ATOM      9  C   UNL     1      -0.908   0.877  24.000  0.00  0.00    +0.249 C 
ATOM     10  O   UNL     1      -0.912   1.699  24.075  0.00  0.00    -0.270 OA
ATOM     11  N   UNL     1      -1.566   0.439  24.233  0.00  0.00    -0.276 N 
ATOM     12  C   UNL     1      -1.561  -0.384  24.158  0.00  0.00    +0.094 C 
ATOM     13  C   UNL     1      -2.220  -0.823  24.391  0.00  0.00    +0.022 C 
ATOM     14  C   UNL     1      -2.882  -0.440  24.700  0.00  0.00    +0.015 C 
ATOM     19  C   UNL     1      -2.886   0.381  24.776  0.00  0.00    +0.022 C 
ATOM     37  C   UNL     1      -2.228   0.820  24.542  0.00  0.00    +0.094 C 
ENDROOT
BRANCH   9   6
ATOM      3  C   UNL     1       1.080  -0.269  23.072  0.00  0.00    +0.139 A 
ATOM      4  C   UNL     1       0.526   0.071  22.564  0.00  0.00    +0.037 A 
ATOM      5  C   UNL     1      -0.138   0.453  22.874  0.00  0.00    +0.008 A 
ATOM      6  C   UNL     1      -0.245   0.495  23.691  0.00  0.00    +0.054 A 
ATOM      7  C   UNL     1       0.309   0.155  24.198  0.00  0.00    +0.008 A 
ATOM      8  C   UNL     1       0.971  -0.227  23.889  0.00  0.00    +0.037 A 
BRANCH   3   2
ATOM      1  C   UNL     1       2.366  -0.208  22.452  0.00  0.00    +0.252 C 
ATOM      2  O   UNL     1       1.742  -0.651  22.763  0.00  0.00    -0.471 OA
ENDBRANCH   3   2
ENDBRANCH   9   6
BRANCH  14  15
ATOM     15  C   UNL     1      -3.541  -0.880  24.934  0.00  0.00    +0.114 C 
BRANCH  15  16
ATOM     16  C   UNL     1      -3.565  -1.692  24.793  0.00  0.00    +0.365 C 
ATOM     17  O   UNL     1      -3.286  -2.219  25.362  0.00  0.00    -0.246 OA
ATOM     18  O   UNL     1      -3.869  -1.977  24.081  0.00  0.00    -0.246 OA
ENDBRANCH  15  16
ENDBRANCH  14  15
BRANCH  19  20
ATOM     20  C   UNL     1      -3.548   0.763  25.085  0.00  0.00    +0.023 C 
BRANCH  20  21
ATOM     21  C   UNL     1      -3.863   1.421  24.699  0.00  0.00    +0.091 C 
BRANCH  21  22
ATOM     22  N   UNL     1      -4.285   1.988  25.125  0.00  0.00    -0.306 N 
BRANCH  22  31
ATOM     31  C   UNL     1      -5.104   1.919  25.205  0.00  0.00    +0.048 A 
ATOM     32  C   UNL     1      -5.442   1.869  25.956  0.00  0.00    +0.015 A 
ATOM     33  C   UNL     1      -6.261   1.800  26.036  0.00  0.00    +0.001 A 
ATOM     34  C   UNL     1      -6.741   1.780  25.364  0.00  0.00    +0.000 A 
ATOM     35  C   UNL     1      -6.402   1.830  24.614  0.00  0.00    +0.001 A 
ATOM     36  C   UNL     1      -5.584   1.899  24.534  0.00  0.00    +0.015 A 
ENDBRANCH  22  31
BRANCH  22  23
ATOM     23  C   UNL     1      -3.890   2.623  25.471  0.00  0.00    +0.108 C 
BRANCH  23  24
ATOM     24  C   UNL     1      -3.741   3.305  25.032  0.00  0.00    +0.094 C 
BRANCH  24  25
ATOM     25  N   UNL     1      -3.173   3.846  25.288  0.00  0.00    -0.267 NA
ATOM     26  C   UNL     1      -3.087   4.004  26.093  0.00  0.00    +0.105 C 
ATOM     27  C   UNL     1      -2.520   4.546  26.349  0.00  0.00    +0.159 C 
ATOM     28  O   UNL     1      -2.037   4.928  25.800  0.00  0.00    -0.351 OA
ATOM     29  C   UNL     1      -2.123   4.770  24.994  0.00  0.00    +0.159 C 
ATOM     30  C   UNL     1      -2.691   4.229  24.739  0.00  0.00    +0.105 C 
ENDBRANCH  24  25
ENDBRANCH  23  24
ENDBRANCH  22  23
ENDBRANCH  21  22
ENDBRANCH  20  21
ENDBRANCH  19  20
TORSDOF 11
ENDMDL
MODEL 9
REMARK VINA RESULT:      -6.9      1.458      3.001
REMARK  Name = 
REMARK  11 active torsions:
REMARK  status: ('A' for Active; 'I' for Inactive)
REMARK    1  A    between atoms: O_2  and  C_3
REMARK    2  A    between atoms: C_6  and  C_9
REMARK    3  A    between atoms: C_14  and  C_15
REMARK    4  A    between atoms: C_15  and  C_16
REMARK    5  A    between atoms: C_19  and  C_20
REMARK    6  A    between atoms: C_20  and  C_21
REMARK    7  A    between atoms: C_21  and  N_22
REMARK    8  A    between atoms: N_22  and  C_23
REMARK    9  A    between atoms: N_22  and  C_31
REMARK   10  A    between atoms: C_23  and  C_24
REMARK   11  A    between atoms: C_24  and  N_25
REMARK                            x       y       z     vdW  Elec       q    Type
REMARK                         _______ _______ _______ _____ _____    ______ ____
ROOT
ATOM      9  C   UNL     1       0.314   1.322  23.556  0.00  0.00    +0.249 C 
ATOM     10  O   UNL     1       0.221   2.107  23.320  0.00  0.00    -0.270 OA
ATOM     11  N   UNL     1      -0.250   0.968  24.041  0.00  0.00    -0.276 N 
ATOM     12  C   UNL     1      -0.156   0.182  24.277  0.00  0.00    +0.094 C 
ATOM     13  C   UNL     1      -0.721  -0.173  24.763  0.00  0.00    +0.022 C 
ATOM     14  C   UNL     1      -1.379   0.258  25.013  0.00  0.00    +0.015 C 
ATOM     19  C   UNL     1      -1.472   1.043  24.778  0.00  0.00    +0.022 C 
ATOM     37  C   UNL     1      -0.907   1.397  24.292  0.00  0.00    +0.094 C 
ENDROOT
BRANCH   9   6
ATOM      3  C   UNL     1       2.288   0.031  22.804  0.00  0.00    +0.139 A 
ATOM      4  C   UNL     1       2.379   0.643  23.349  0.00  0.00    +0.037 A 
ATOM      5  C   UNL     1       1.721   1.074  23.600  0.00  0.00    +0.008 A 
ATOM      6  C   UNL     1       0.972   0.891  23.305  0.00  0.00    +0.054 A 
ATOM      7  C   UNL     1       0.882   0.279  22.759  0.00  0.00    +0.008 A 
ATOM      8  C   UNL     1       1.539  -0.151  22.509  0.00  0.00    +0.037 A 
BRANCH   3   2
ATOM      1  C   UNL     1       3.703  -0.170  22.790  0.00  0.00    +0.252 C 
ATOM      2  O   UNL     1       2.946  -0.399  22.554  0.00  0.00    -0.471 OA
ENDBRANCH   3   2
ENDBRANCH   9   6
BRANCH  14  15
ATOM     15  C   UNL     1      -1.944  -0.097  25.500  0.00  0.00    +0.114 C 
BRANCH  15  16
ATOM     16  C   UNL     1      -1.847  -0.881  25.739  0.00  0.00    +0.365 C 
ATOM     17  O   UNL     1      -2.184  -1.491  25.299  0.00  0.00    -0.246 OA
ATOM     18  O   UNL     1      -1.413  -1.053  26.419  0.00  0.00    -0.246 OA
ENDBRANCH  15  16
ENDBRANCH  14  15
BRANCH  19  20
ATOM     20  C   UNL     1      -2.129   1.473  25.028  0.00  0.00    +0.023 C 
BRANCH  20  21
ATOM     21  C   UNL     1      -2.330   2.178  24.650  0.00  0.00    +0.091 C 
BRANCH  21  22
ATOM     22  N   UNL     1      -2.793   2.740  25.039  0.00  0.00    -0.306 N 
BRANCH  22  31
ATOM     31  C   UNL     1      -2.494   3.498  25.175  0.00  0.00    +0.048 A 
ATOM     32  C   UNL     1      -2.327   3.995  24.538  0.00  0.00    +0.015 A 
ATOM     33  C   UNL     1      -2.029   4.752  24.673  0.00  0.00    +0.001 A 
ATOM     34  C   UNL     1      -1.898   5.012  25.446  0.00  0.00    +0.000 A 
ATOM     35  C   UNL     1      -2.066   4.514  26.082  0.00  0.00    +0.001 A 
ATOM     36  C   UNL     1      -2.364   3.757  25.946  0.00  0.00    +0.015 A 
ENDBRANCH  22  31
BRANCH  22  23
ATOM     23  C   UNL     1      -3.553   2.544  25.292  0.00  0.00    +0.108 C 
BRANCH  23  24
ATOM     24  C   UNL     1      -4.182   2.559  24.760  0.00  0.00    +0.094 C 
BRANCH  24  25
ATOM     25  N   UNL     1      -4.942   2.359  25.012  0.00  0.00    -0.267 NA
ATOM     26  C   UNL     1      -5.372   2.882  25.482  0.00  0.00    +0.105 C 
ATOM     27  C   UNL     1      -6.132   2.681  25.734  0.00  0.00    +0.159 C 
ATOM     28  O   UNL     1      -6.461   1.957  25.515  0.00  0.00    -0.351 OA
ATOM     29  C   UNL     1      -6.030   1.433  25.044  0.00  0.00    +0.159 C 
ATOM     30  C   UNL     1      -5.270   1.635  24.793  0.00  0.00    +0.105 C 
ENDBRANCH  24  25
ENDBRANCH  23  24
ENDBRANCH  22  23
ENDBRANCH  21  22
ENDBRANCH  20  21
ENDBRANCH  19  20
TORSDOF 11
ENDMDL
MODEL 10
REMARK VINA RESULT:      -6.8      1.355      2.187
REMARK  Name = 
REMARK  11 active torsions:
REMARK  status: ('A' for Active; 'I' for Inactive)
REMARK    1  A    between atoms: O_2  and  C_3
REMARK    2  A    between atoms: C_6  and  C_9
REMARK    3  A    between atoms: C_14  and  C_15
REMARK    4  A    between atoms: C_15  and  C_16
REMARK    5  A    between atoms: C_19  and  C_20
REMARK    6  A    between atoms: C_20  and  C_21
REMARK    7  A    between atoms: C_21  and  N_22
REMARK    8  A    between atoms: N_22  and  C_23
REMARK    9  A    between atoms: N_22  and  C_31
REMARK   10  A    between atoms: C_23  and  C_24
REMARK   11  A    between atoms: C_24  and  N_25
REMARK                            x       y       z     vdW  Elec       q    Type
REMARK                         _______ _______ _______ _____ _____    ______ ____
ROOT
ATOM      9  C   UNL     1       0.602   0.818  23.349  0.00  0.00    +0.249 C 
ATOM     10  O   UNL     1       0.226   1.517  23.124  0.00  0.00    -0.270 OA
ATOM     11  N   UNL     1       0.216   0.281  23.840  0.00  0.00    -0.276 N 
ATOM     12  C   UNL     1       0.593  -0.418  24.065  0.00  0.00    +0.094 C 
ATOM     13  C   UNL     1       0.206  -0.956  24.557  0.00  0.00    +0.022 C 
ATOM     14  C   UNL     1      -0.557  -0.794  24.824  0.00  0.00    +0.015 C 
ATOM     19  C   UNL     1      -0.934  -0.096  24.600  0.00  0.00    +0.022 C 
ATOM     37  C   UNL     1      -0.548   0.441  24.108  0.00  0.00    +0.094 C 
ENDROOT
BRANCH   9   6
ATOM      3  C   UNL     1       2.895   0.336  22.547  0.00  0.00    +0.139 A 
ATOM      4  C   UNL     1       2.776   0.881  23.156  0.00  0.00    +0.037 A 
ATOM      5  C   UNL     1       2.012   1.042  23.423  0.00  0.00    +0.008 A 
ATOM      6  C   UNL     1       1.367   0.657  23.082  0.00  0.00    +0.054 A 
ATOM      7  C   UNL     1       1.485   0.112  22.474  0.00  0.00    +0.008 A 
ATOM      8  C   UNL     1       2.249  -0.048  22.207  0.00  0.00    +0.037 A 
BRANCH   3   2
ATOM      1  C   UNL     1       4.310   0.462  22.699  0.00  0.00    +0.252 C 
ATOM      2  O   UNL     1       3.658   0.176  22.281  0.00  0.00    -0.471 OA
ENDBRANCH   3   2
ENDBRANCH   9   6
BRANCH  14  15
ATOM     15  C   UNL     1      -0.945  -1.333  25.316  0.00  0.00    +0.114 C 
BRANCH  15  16
ATOM     16  C   UNL     1      -0.714  -2.125  25.323  0.00  0.00    +0.365 C 
ATOM     17  O   UNL     1      -0.060  -2.360  25.767  0.00  0.00    -0.246 OA
ATOM     18  O   UNL     1      -1.137  -2.681  24.885  0.00  0.00    -0.246 OA
ENDBRANCH  15  16
ENDBRANCH  14  15
BRANCH  19  20
ATOM     20  C   UNL     1      -1.697   0.065  24.866  0.00  0.00    +0.023 C 
BRANCH  20  21
ATOM     21  C   UNL     1      -2.237   0.445  24.371  0.00  0.00    +0.091 C 
BRANCH  21  22
ATOM     22  N   UNL     1      -3.021   0.543  24.610  0.00  0.00    -0.306 N 
BRANCH  22  31
ATOM     31  C   UNL     1      -3.574  -0.053  24.464  0.00  0.00    +0.048 A 
ATOM     32  C   UNL     1      -3.980  -0.401  25.092  0.00  0.00    +0.015 A 
ATOM     33  C   UNL     1      -4.532  -0.996  24.946  0.00  0.00    +0.001 A 
ATOM     34  C   UNL     1      -4.679  -1.242  24.171  0.00  0.00    +0.000 A 
ATOM     35  C   UNL     1      -4.272  -0.893  23.544  0.00  0.00    +0.001 A 
ATOM     36  C   UNL     1      -3.720  -0.298  23.691  0.00  0.00    +0.015 A 
ENDBRANCH  22  31
BRANCH  22  23
ATOM     23  C   UNL     1      -3.252   1.234  24.995  0.00  0.00    +0.108 C 
BRANCH  23  24
ATOM     24  C   UNL     1      -3.205   1.959  24.605  0.00  0.00    +0.094 C 
BRANCH  24  25
ATOM     25  N   UNL     1      -3.422   2.653  24.995  0.00  0.00    -0.267 NA
ATOM     26  C   UNL     1      -2.844   3.135  25.333  0.00  0.00    +0.105 C 
ATOM     27  C   UNL     1      -3.061   3.829  25.723  0.00  0.00    +0.159 C 
ATOM     28  O   UNL     1      -3.857   4.041  25.775  0.00  0.00    -0.351 OA
ATOM     29  C   UNL     1      -4.435   3.558  25.437  0.00  0.00    +0.159 C 
ATOM     30  C   UNL     1      -4.217   2.865  25.048  0.00  0.00    +0.105 C 
ENDBRANCH  24  25
ENDBRANCH  23  24
ENDBRANCH  22  23
ENDBRANCH  21  22
ENDBRANCH  20  21
ENDBRANCH  19  20
TORSDOF 11
ENDMDL
