MODEL 1
REMARK VINA RESULT:     -10.0      0.000      0.000
REMARK  Name = 
REMARK  1 active torsions:
REMARK  status: ('A' for Active; 'I' for Inactive)
REMARK    1  A    between atoms: C_5  and  C_7
REMARK                            x       y       z     vdW  Elec       q    Type
REMARK                         _______ _______ _______ _____ _____    ______ ____
ROOT
ATOM      7  C   UNL     1      -4.284   0.286  24.746  0.00  0.00    +0.140 A 
ATOM      8  N   UNL     1      -3.920  -0.154  25.341  0.00  0.00    -0.229 NA
ATOM      9  C   UNL     1      -3.839  -0.929  25.073  0.00  0.00    +0.102 A 
ATOM     10  C   UNL     1      -4.153  -0.969  24.311  0.00  0.00    +0.100 A 
ATOM     11  N   UNL     1      -4.428  -0.219  24.108  0.00  0.00    -0.229 NA
ATOM     12  C   UNL     1      -4.147  -1.685  23.900  0.00  0.00    +0.023 A 
ATOM     13  C   UNL     1      -3.828  -2.359  24.250  0.00  0.00    +0.031 A 
ATOM     14  C   UNL     1      -3.514  -2.319  25.012  0.00  0.00    +0.142 A 
ATOM     15  F   UNL     1      -3.195  -2.994  25.363  0.00  0.00    -0.204 F 
ATOM     16  C   UNL     1      -3.520  -1.604  25.424  0.00  0.00    +0.050 A 
ENDROOT
BRANCH   7   5
ATOM      1  C   UNL     1      -4.104   3.176  24.529  0.00  0.00    +0.090 C 
ATOM      2  N   UNL     1      -4.389   2.417  24.681  0.00  0.00    -0.271 NA
ATOM      3  C   UNL     1      -5.132   2.231  24.989  0.00  0.00    +0.073 C 
ATOM      4  C   UNL     1      -5.183   1.409  25.050  0.00  0.00    +0.026 C 
ATOM      5  C   UNL     1      -4.472   1.088  24.781  0.00  0.00    +0.076 C 
ATOM      6  C   UNL     1      -3.981   1.711  24.553  0.00  0.00    +0.080 C 
ENDBRANCH   7   5
TORSDOF 1
ENDMDL
MODEL 2
REMARK VINA RESULT:      -9.3      1.827      3.866
REMARK  Name = 
REMARK  1 active torsions:
REMARK  status: ('A' for Active; 'I' for Inactive)
REMARK    1  A    between atoms: C_5  and  C_7
REMARK                            x       y       z     vdW  Elec       q    Type
REMARK                         _______ _______ _______ _____ _____    ______ ____
ROOT
ATOM      7  C   UNL     1      -4.219   0.164  24.615  0.00  0.00    +0.140 A 
ATOM      8  N   UNL     1      -4.821   0.508  25.062  0.00  0.00    -0.229 NA
ATOM      9  C   UNL     1      -4.770   1.326  24.971  0.00  0.00    +0.102 A 
ATOM     10  C   UNL     1      -4.137   1.488  24.468  0.00  0.00    +0.100 A 
ATOM     11  N   UNL     1      -3.796   0.770  24.247  0.00  0.00    -0.229 NA
ATOM     12  C   UNL     1      -3.953   2.269  24.275  0.00  0.00    +0.023 A 
ATOM     13  C   UNL     1      -4.401   2.887  24.586  0.00  0.00    +0.031 A 
ATOM     14  C   UNL     1      -5.034   2.725  25.089  0.00  0.00    +0.142 A 
ATOM     15  F   UNL     1      -5.483   3.343  25.400  0.00  0.00    -0.204 F 
ATOM     16  C   UNL     1      -5.219   1.945  25.283  0.00  0.00    +0.050 A 
ENDROOT
BRANCH   7   5
ATOM      1  C   UNL     1      -3.311  -2.533  25.191  0.00  0.00    +0.090 C 
ATOM      2  N   UNL     1      -3.649  -1.884  24.811  0.00  0.00    -0.271 NA
ATOM      3  C   UNL     1      -4.015  -1.891  24.072  0.00  0.00    +0.073 C 
ATOM      4  C   UNL     1      -4.273  -1.124  23.908  0.00  0.00    +0.026 C 
ATOM      5  C   UNL     1      -4.067  -0.644  24.547  0.00  0.00    +0.076 C 
ATOM      6  C   UNL     1      -3.681  -1.113  25.105  0.00  0.00    +0.080 C 
ENDBRANCH   7   5
TORSDOF 1
ENDMDL
MODEL 3
REMARK VINA RESULT:      -8.8      3.218      4.786
REMARK  Name = 
REMARK  1 active torsions:
REMARK  status: ('A' for Active; 'I' for Inactive)
REMARK    1  A    between atoms: C_5  and  C_7
REMARK                            x       y       z     vdW  Elec       q    Type
REMARK                         _______ _______ _______ _____ _____    ______ ____
ROOT
ATOM      7  C   UNL     1      -3.260   2.968  25.009  0.00  0.00    +0.140 A 
ATOM      8  N   UNL     1      -3.233   3.791  25.037  0.00  0.00    -0.229 NA
ATOM      9  C   UNL     1      -2.441   4.019  25.069  0.00  0.00    +0.102 A 
ATOM     10  C   UNL     1      -1.979   3.335  25.060  0.00  0.00    +0.100 A 
ATOM     11  N   UNL     1      -2.485   2.686  25.023  0.00  0.00    -0.229 NA
ATOM     12  C   UNL     1      -1.156   3.394  25.087  0.00  0.00    +0.023 A 
ATOM     13  C   UNL     1      -0.796   4.134  25.123  0.00  0.00    +0.031 A 
ATOM     14  C   UNL     1      -1.258   4.818  25.131  0.00  0.00    +0.142 A 
ATOM     15  F   UNL     1      -0.898   5.559  25.167  0.00  0.00    -0.204 F 
ATOM     16  C   UNL     1      -2.080   4.761  25.104  0.00  0.00    +0.050 A 
ENDROOT
BRANCH   7   5
ATOM      1  C   UNL     1      -5.995   2.051  25.345  0.00  0.00    +0.090 C 
ATOM      2  N   UNL     1      -5.201   2.085  25.127  0.00  0.00    -0.271 NA
ATOM      3  C   UNL     1      -4.788   1.507  24.707  0.00  0.00    +0.073 C 
ATOM      4  C   UNL     1      -4.011   1.767  24.611  0.00  0.00    +0.026 C 
ATOM      5  C   UNL     1      -3.943   2.506  24.973  0.00  0.00    +0.076 C 
ATOM      6  C   UNL     1      -4.678   2.702  25.291  0.00  0.00    +0.080 C 
ENDBRANCH   7   5
TORSDOF 1
ENDMDL
MODEL 4
REMARK VINA RESULT:      -8.8      0.781      1.044
REMARK  Name = 
REMARK  1 active torsions:
REMARK  status: ('A' for Active; 'I' for Inactive)
REMARK    1  A    between atoms: C_5  and  C_7
REMARK                            x       y       z     vdW  Elec       q    Type
REMARK                         _______ _______ _______ _____ _____    ______ ____
ROOT
ATOM      7  C   UNL     1      -3.817  -0.136  24.578  0.00  0.00    +0.140 A 
ATOM      8  N   UNL     1      -3.061  -0.409  24.762  0.00  0.00    -0.229 NA
ATOM      9  C   UNL     1      -3.058  -1.228  24.673  0.00  0.00    +0.102 A 
ATOM     10  C   UNL     1      -3.812  -1.462  24.434  0.00  0.00    +0.100 A 
ATOM     11  N   UNL     1      -4.281  -0.787  24.375  0.00  0.00    -0.229 NA
ATOM     12  C   UNL     1      -3.973  -2.261  24.301  0.00  0.00    +0.023 A 
ATOM     13  C   UNL     1      -3.381  -2.825  24.407  0.00  0.00    +0.031 A 
ATOM     14  C   UNL     1      -2.627  -2.591  24.646  0.00  0.00    +0.142 A 
ATOM     15  F   UNL     1      -2.034  -3.154  24.752  0.00  0.00    -0.204 F 
ATOM     16  C   UNL     1      -2.464  -1.793  24.780  0.00  0.00    +0.050 A 
ENDROOT
BRANCH   7   5
ATOM      1  C   UNL     1      -5.160   2.322  25.347  0.00  0.00    +0.090 C 
ATOM      2  N   UNL     1      -4.683   1.781  24.947  0.00  0.00    -0.271 NA
ATOM      3  C   UNL     1      -4.214   1.942  24.288  0.00  0.00    +0.073 C 
ATOM      4  C   UNL     1      -3.832   1.244  24.069  0.00  0.00    +0.026 C 
ATOM      5  C   UNL     1      -4.066   0.651  24.594  0.00  0.00    +0.076 C 
ATOM      6  C   UNL     1      -4.591   0.983  25.136  0.00  0.00    +0.080 C 
ENDBRANCH   7   5
TORSDOF 1
ENDMDL
MODEL 5
REMARK VINA RESULT:      -8.7      2.296      2.672
REMARK  Name = 
REMARK  1 active torsions:
REMARK  status: ('A' for Active; 'I' for Inactive)
REMARK    1  A    between atoms: C_5  and  C_7
REMARK                            x       y       z     vdW  Elec       q    Type
REMARK                         _______ _______ _______ _____ _____    ______ ____
ROOT
ATOM      7  C   UNL     1      -2.047  -0.322  24.708  0.00  0.00    +0.140 A 
ATOM      8  N   UNL     1      -1.965  -1.132  24.838  0.00  0.00    -0.229 NA
ATOM      9  C   UNL     1      -2.670  -1.499  24.615  0.00  0.00    +0.102 A 
ATOM     10  C   UNL     1      -3.188  -0.915  24.349  0.00  0.00    +0.100 A 
ATOM     11  N   UNL     1      -2.804  -0.188  24.406  0.00  0.00    -0.229 NA
ATOM     12  C   UNL     1      -3.943  -1.122  24.088  0.00  0.00    +0.023 A 
ATOM     13  C   UNL     1      -4.180  -1.911  24.094  0.00  0.00    +0.031 A 
ATOM     14  C   UNL     1      -3.662  -2.495  24.361  0.00  0.00    +0.142 A 
ATOM     15  F   UNL     1      -3.898  -3.285  24.367  0.00  0.00    -0.204 F 
ATOM     16  C   UNL     1      -2.907  -2.290  24.622  0.00  0.00    +0.050 A 
ENDROOT
BRANCH   7   5
ATOM      1  C   UNL     1       0.079   1.619  24.328  0.00  0.00    +0.090 C 
ATOM      2  N   UNL     1      -0.497   1.146  24.681  0.00  0.00    -0.271 NA
ATOM      3  C   UNL     1      -0.689   1.132  25.483  0.00  0.00    +0.073 C 
ATOM      4  C   UNL     1      -1.293   0.580  25.591  0.00  0.00    +0.026 C 
ATOM      5  C   UNL     1      -1.475   0.253  24.855  0.00  0.00    +0.076 C 
ATOM      6  C   UNL     1      -0.983   0.602  24.293  0.00  0.00    +0.080 C 
ENDBRANCH   7   5
TORSDOF 1
ENDMDL
MODEL 6
REMARK VINA RESULT:      -8.7      2.741      3.882
REMARK  Name = 
REMARK  1 active torsions:
REMARK  status: ('A' for Active; 'I' for Inactive)
REMARK    1  A    between atoms: C_5  and  C_7
REMARK                            x       y       z     vdW  Elec       q    Type
REMARK                         _______ _______ _______ _____ _____    ______ ____
ROOT
ATOM      7  C   UNL     1      -3.206   3.095  25.205  0.00  0.00    +0.140 A 
ATOM      8  N   UNL     1      -3.952   3.359  25.437  0.00  0.00    -0.229 NA
ATOM      9  C   UNL     1      -4.498   2.765  25.263  0.00  0.00    +0.102 A 
ATOM     10  C   UNL     1      -4.089   2.134  24.924  0.00  0.00    +0.100 A 
ATOM     11  N   UNL     1      -3.291   2.337  24.888  0.00  0.00    -0.229 NA
ATOM     12  C   UNL     1      -4.497   1.456  24.691  0.00  0.00    +0.023 A 
ATOM     13  C   UNL     1      -5.313   1.408  24.798  0.00  0.00    +0.031 A 
ATOM     14  C   UNL     1      -5.722   2.039  25.138  0.00  0.00    +0.142 A 
ATOM     15  F   UNL     1      -6.539   1.993  25.245  0.00  0.00    -0.204 F 
ATOM     16  C   UNL     1      -5.315   2.718  25.370  0.00  0.00    +0.050 A 
ENDROOT
BRANCH   7   5
ATOM      1  C   UNL     1      -1.211   5.197  25.027  0.00  0.00    +0.090 C 
ATOM      2  N   UNL     1      -1.582   4.480  25.195  0.00  0.00    -0.271 NA
ATOM      3  C   UNL     1      -1.240   3.837  25.582  0.00  0.00    +0.073 C 
ATOM      4  C   UNL     1      -1.807   3.239  25.633  0.00  0.00    +0.026 C 
ATOM      5  C   UNL     1      -2.499   3.514  25.277  0.00  0.00    +0.076 C 
ATOM      6  C   UNL     1      -2.360   4.280  25.007  0.00  0.00    +0.080 C 
ENDBRANCH   7   5
TORSDOF 1
ENDMDL
MODEL 7
REMARK VINA RESULT:      -8.6      1.124      1.529
REMARK  Name = 
REMARK  1 active torsions:
REMARK  status: ('A' for Active; 'I' for Inactive)
REMARK    1  A    between atoms: C_5  and  C_7
REMARK                            x       y       z     vdW  Elec       q    Type
REMARK                         _______ _______ _______ _____ _____    ______ ____
ROOT
ATOM      7  C   UNL     1      -3.118   0.463  24.206  0.00  0.00    +0.140 A 
ATOM      8  N   UNL     1      -3.745  -0.073  24.196  0.00  0.00    -0.229 NA
ATOM      9  C   UNL     1      -3.445  -0.819  24.376  0.00  0.00    +0.102 A 
ATOM     10  C   UNL     1      -2.632  -0.746  24.497  0.00  0.00    +0.100 A 
ATOM     11  N   UNL     1      -2.430   0.047  24.392  0.00  0.00    -0.229 NA
ATOM     12  C   UNL     1      -2.182  -1.410  24.688  0.00  0.00    +0.023 A 
ATOM     13  C   UNL     1      -2.543  -2.148  24.757  0.00  0.00    +0.031 A 
ATOM     14  C   UNL     1      -3.356  -2.222  24.636  0.00  0.00    +0.142 A 
ATOM     15  F   UNL     1      -3.719  -2.959  24.706  0.00  0.00    -0.204 F 
ATOM     16  C   UNL     1      -3.807  -1.558  24.446  0.00  0.00    +0.050 A 
ENDROOT
BRANCH   7   5
ATOM      1  C   UNL     1      -3.788   3.279  24.441  0.00  0.00    +0.090 C 
ATOM      2  N   UNL     1      -3.477   2.567  24.163  0.00  0.00    -0.271 NA
ATOM      3  C   UNL     1      -3.018   2.470  23.485  0.00  0.00    +0.073 C 
ATOM      4  C   UNL     1      -2.828   1.670  23.418  0.00  0.00    +0.026 C 
ATOM      5  C   UNL     1      -3.169   1.272  24.055  0.00  0.00    +0.076 C 
ATOM      6  C   UNL     1      -3.570   1.827  24.516  0.00  0.00    +0.080 C 
ENDBRANCH   7   5
TORSDOF 1
ENDMDL
MODEL 8
REMARK VINA RESULT:      -8.4      2.819      4.618
REMARK  Name = 
REMARK  1 active torsions:
REMARK  status: ('A' for Active; 'I' for Inactive)
REMARK    1  A    between atoms: C_5  and  C_7
REMARK                            x       y       z     vdW  Elec       q    Type
REMARK                         _______ _______ _______ _____ _____    ______ ____
ROOT
ATOM      7  C   UNL     1      -2.960   2.236  24.893  0.00  0.00    +0.140 A 
ATOM      8  N   UNL     1      -3.181   3.031  24.895  0.00  0.00    -0.229 NA
ATOM      9  C   UNL     1      -2.505   3.482  25.035  0.00  0.00    +0.102 A 
ATOM     10  C   UNL     1      -1.867   2.967  25.119  0.00  0.00    +0.100 A 
ATOM     11  N   UNL     1      -2.147   2.197  25.031  0.00  0.00    -0.229 NA
ATOM     12  C   UNL     1      -1.112   3.267  25.264  0.00  0.00    +0.023 A 
ATOM     13  C   UNL     1      -0.995   4.081  25.326  0.00  0.00    +0.031 A 
ATOM     14  C   UNL     1      -1.634   4.596  25.242  0.00  0.00    +0.142 A 
ATOM     15  F   UNL     1      -1.518   5.411  25.303  0.00  0.00    -0.204 F 
ATOM     16  C   UNL     1      -2.389   4.298  25.096  0.00  0.00    +0.050 A 
ENDROOT
BRANCH   7   5
ATOM      1  C   UNL     1      -3.976  -0.365  24.097  0.00  0.00    +0.090 C 
ATOM      2  N   UNL     1      -3.931   0.397  24.408  0.00  0.00    -0.271 NA
ATOM      3  C   UNL     1      -4.545   0.810  24.772  0.00  0.00    +0.073 C 
ATOM      4  C   UNL     1      -4.256   1.550  24.999  0.00  0.00    +0.026 C 
ATOM      5  C   UNL     1      -3.463   1.593  24.774  0.00  0.00    +0.076 C 
ATOM      6  C   UNL     1      -3.262   0.881  24.409  0.00  0.00    +0.080 C 
ENDBRANCH   7   5
TORSDOF 1
ENDMDL
MODEL 9
REMARK VINA RESULT:      -8.3      3.456      5.267
REMARK  Name = 
REMARK  1 active torsions:
REMARK  status: ('A' for Active; 'I' for Inactive)
REMARK    1  A    between atoms: C_5  and  C_7
REMARK                            x       y       z     vdW  Elec       q    Type
REMARK                         _______ _______ _______ _____ _____    ______ ____
ROOT
ATOM      7  C   UNL     1      -1.570   2.047  25.068  0.00  0.00    +0.140 A 
ATOM      8  N   UNL     1      -0.951   2.539  24.833  0.00  0.00    -0.229 NA
ATOM      9  C   UNL     1      -1.171   3.318  24.988  0.00  0.00    +0.102 A 
ATOM     10  C   UNL     1      -1.926   3.309  25.319  0.00  0.00    +0.100 A 
ATOM     11  N   UNL     1      -2.173   2.524  25.369  0.00  0.00    -0.229 NA
ATOM     12  C   UNL     1      -2.291   4.017  25.533  0.00  0.00    +0.023 A 
ATOM     13  C   UNL     1      -1.902   4.734  25.416  0.00  0.00    +0.031 A 
ATOM     14  C   UNL     1      -1.146   4.743  25.085  0.00  0.00    +0.142 A 
ATOM     15  F   UNL     1      -0.756   5.460  24.967  0.00  0.00    -0.204 F 
ATOM     16  C   UNL     1      -0.780   4.036  24.871  0.00  0.00    +0.050 A 
ENDROOT
BRANCH   7   5
ATOM      1  C   UNL     1      -1.006  -0.763  25.536  0.00  0.00    +0.090 C 
ATOM      2  N   UNL     1      -1.325  -0.068  25.227  0.00  0.00    -0.271 NA
ATOM      3  C   UNL     1      -1.888  -0.017  24.626  0.00  0.00    +0.073 C 
ATOM      4  C   UNL     1      -2.048   0.781  24.493  0.00  0.00    +0.026 C 
ATOM      5  C   UNL     1      -1.584   1.224  25.012  0.00  0.00    +0.076 C 
ATOM      6  C   UNL     1      -1.138   0.700  25.466  0.00  0.00    +0.080 C 
ENDBRANCH   7   5
TORSDOF 1
ENDMDL
MODEL 10
REMARK VINA RESULT:      -8.2      2.834      3.961
REMARK  Name = 
REMARK  1 active torsions:
REMARK  status: ('A' for Active; 'I' for Inactive)
REMARK    1  A    between atoms: C_5  and  C_7
REMARK                            x       y       z     vdW  Elec       q    Type
REMARK                         _______ _______ _______ _____ _____    ______ ____
ROOT
ATOM      7  C   UNL     1      -3.179   1.744  24.580  0.00  0.00    +0.140 A 
ATOM      8  N   UNL     1      -3.349   2.498  24.869  0.00  0.00    -0.229 NA
ATOM      9  C   UNL     1      -4.153   2.527  25.048  0.00  0.00    +0.102 A 
ATOM     10  C   UNL     1      -4.481   1.792  24.870  0.00  0.00    +0.100 A 
ATOM     11  N   UNL     1      -3.880   1.307  24.581  0.00  0.00    -0.229 NA
ATOM     12  C   UNL     1      -5.286   1.658  24.994  0.00  0.00    +0.023 A 
ATOM     13  C   UNL     1      -5.762   2.260  25.296  0.00  0.00    +0.031 A 
ATOM     14  C   UNL     1      -5.434   2.996  25.474  0.00  0.00    +0.142 A 
ATOM     15  F   UNL     1      -5.910   3.598  25.776  0.00  0.00    -0.204 F 
ATOM     16  C   UNL     1      -4.630   3.130  25.350  0.00  0.00    +0.050 A 
ENDROOT
BRANCH   7   5
ATOM      1  C   UNL     1      -0.606   0.399  24.532  0.00  0.00    +0.090 C 
ATOM      2  N   UNL     1      -1.256   0.856  24.312  0.00  0.00    -0.271 NA
ATOM      3  C   UNL     1      -1.346   1.261  23.599  0.00  0.00    +0.073 C 
ATOM      4  C   UNL     1      -2.077   1.643  23.612  0.00  0.00    +0.026 C 
ATOM      5  C   UNL     1      -2.440   1.474  24.334  0.00  0.00    +0.076 C 
ATOM      6  C   UNL     1      -1.933   0.988  24.766  0.00  0.00    +0.080 C 
ENDBRANCH   7   5
TORSDOF 1
ENDMDL
