MODEL 1
REMARK VINA RESULT:     -13.2      0.000      0.000
REMARK  Name = 
REMARK  4 active torsions:
REMARK  status: ('A' for Active; 'I' for Inactive)
REMARK    1  A    between atoms: O_2  and  C_3
REMARK    2  A    between atoms: C_3  and  C_4
REMARK    3  A    between atoms: C_4  and  C_5
REMARK    4  A    between atoms: C_14  and  C_21
REMARK                            x       y       z     vdW  Elec       q    Type
REMARK                         _______ _______ _______ _____ _____    ______ ____
ROOT
ATOM      5  C   UNL     1      -3.241   2.573  24.525  0.00  0.00    +0.228 C 
ATOM      6  O   UNL     1      -3.957   2.260  24.790  0.00  0.00    -0.275 OA
ATOM      7  N   UNL     1      -2.632   2.068  24.287  0.00  0.00    -0.279 N 
ATOM      8  C   UNL     1      -1.885   1.830  24.000  0.00  0.00    +0.095 C 
ATOM      9  C   UNL     1      -2.001   0.849  24.028  0.00  0.00    +0.043 C 
ATOM     10  C   UNL     1      -1.938   0.038  23.991  0.00  0.00    +0.011 C 
ATOM     11  C   UNL     1      -2.419   0.513  24.181  0.00  0.00    +0.058 C 
ATOM     12  C   UNL     1      -2.291   1.459  24.148  0.00  0.00    +0.099 C 
ATOM     13  C   UNL     1      -3.276   0.581  24.506  0.00  0.00    +0.041 A 
ATOM     14  C   UNL     1      -3.911   0.110  24.739  0.00  0.00    +0.012 A 
ATOM     15  C   UNL     1      -4.608   0.461  25.008  0.00  0.00    +0.006 A 
ATOM     16  C   UNL     1      -4.668   1.283  25.044  0.00  0.00    +0.061 A 
ATOM     17  C   UNL     1      -4.032   1.754  24.811  0.00  0.00    +0.261 A 
ATOM     18  O   UNL     1      -4.327   2.514  24.934  0.00  0.00    -0.267 OA
ATOM     19  N   UNL     1      -3.336   1.403  24.542  0.00  0.00    -0.299 N 
ATOM     20  C   UNL     1      -2.895   0.930  24.368  0.00  0.00    +0.110 C 
ENDROOT
BRANCH  14  21
ATOM     21  C   UNL     1      -3.851  -0.712  24.703  0.00  0.00    +0.001 A 
ATOM     22  C   UNL     1      -4.103  -1.115  24.029  0.00  0.00    +0.001 A 
ATOM     23  C   UNL     1      -4.043  -1.937  23.993  0.00  0.00    +0.011 A 
ATOM     24  C   UNL     1      -3.730  -2.357  24.630  0.00  0.00    +0.058 A 
ATOM     25 CL   UNL     1      -3.669  -3.178  24.595  0.00  0.00    -0.082 Cl
ATOM     26  C   UNL     1      -3.478  -1.954  25.305  0.00  0.00    +0.011 A 
ATOM     27  C   UNL     1      -3.538  -1.131  25.341  0.00  0.00    +0.001 A 
ENDBRANCH  14  21
BRANCH   5   4
ATOM      4  C   UNL     1      -3.133   3.390  24.497  0.00  0.00    +0.117 C 
BRANCH   4   3
ATOM      3  C   UNL     1      -2.731   3.774  25.107  0.00  0.00    +0.152 C 
BRANCH   3   2
ATOM      1  C   UNL     1      -1.932   4.911  25.440  0.00  0.00    +0.174 C 
ATOM      2  O   UNL     1      -2.588   4.586  25.061  0.00  0.00    -0.351 OA
ENDBRANCH   3   2
ENDBRANCH   4   3
ENDBRANCH   5   4
TORSDOF 4
ENDMDL
MODEL 2
REMARK VINA RESULT:     -12.2      2.207      4.453
REMARK  Name = 
REMARK  4 active torsions:
REMARK  status: ('A' for Active; 'I' for Inactive)
REMARK    1  A    between atoms: O_2  and  C_3
REMARK    2  A    between atoms: C_3  and  C_4
REMARK    3  A    between atoms: C_4  and  C_5
REMARK    4  A    between atoms: C_14  and  C_21
REMARK                            x       y       z     vdW  Elec       q    Type
REMARK                         _______ _______ _______ _____ _____    ______ ____
ROOT
ATOM      5  C   UNL     1      -3.547   0.092  24.897  0.00  0.00    +0.228 C 
ATOM      6  O   UNL     1      -2.746   0.092  25.098  0.00  0.00    -0.275 OA
ATOM      7  N   UNL     1      -3.929   0.803  24.726  0.00  0.00    -0.279 N 
ATOM      8  C   UNL     1      -4.547   1.325  24.515  0.00  0.00    +0.095 C 
ATOM      9  C   UNL     1      -4.057   2.183  24.546  0.00  0.00    +0.043 C 
ATOM     10  C   UNL     1      -3.804   2.957  24.527  0.00  0.00    +0.011 C 
ATOM     11  C   UNL     1      -3.531   2.324  24.663  0.00  0.00    +0.058 C 
ATOM     12  C   UNL     1      -4.018   1.503  24.629  0.00  0.00    +0.099 C 
ATOM     13  C   UNL     1      -2.743   1.916  24.904  0.00  0.00    +0.041 A 
ATOM     14  C   UNL     1      -1.958   2.093  25.081  0.00  0.00    +0.012 A 
ATOM     15  C   UNL     1      -1.433   1.488  25.277  0.00  0.00    +0.006 A 
ATOM     16  C   UNL     1      -1.693   0.705  25.296  0.00  0.00    +0.061 A 
ATOM     17  C   UNL     1      -2.479   0.528  25.118  0.00  0.00    +0.261 A 
ATOM     18  O   UNL     1      -2.493  -0.293  25.202  0.00  0.00    -0.267 OA
ATOM     19  N   UNL     1      -3.004   1.133  24.922  0.00  0.00    -0.299 N 
ATOM     20  C   UNL     1      -3.240   1.747  24.797  0.00  0.00    +0.110 C 
ENDROOT
BRANCH  14  21
ATOM     21  C   UNL     1      -1.697   2.876  25.063  0.00  0.00    +0.001 A 
ATOM     22  C   UNL     1      -1.810   3.363  25.718  0.00  0.00    +0.001 A 
ATOM     23  C   UNL     1      -1.550   4.146  25.700  0.00  0.00    +0.011 A 
ATOM     24  C   UNL     1      -1.177   4.441  25.026  0.00  0.00    +0.058 A 
ATOM     25 CL   UNL     1      -0.916   5.223  25.008  0.00  0.00    -0.082 Cl
ATOM     26  C   UNL     1      -1.064   3.954  24.371  0.00  0.00    +0.011 A 
ATOM     27  C   UNL     1      -1.324   3.171  24.389  0.00  0.00    +0.001 A 
ENDBRANCH  14  21
BRANCH   5   4
ATOM      4  C   UNL     1      -3.965  -0.618  24.868  0.00  0.00    +0.117 C 
BRANCH   4   3
ATOM      3  C   UNL     1      -3.918  -1.098  24.198  0.00  0.00    +0.152 C 
BRANCH   3   2
ATOM      1  C   UNL     1      -4.198  -2.431  23.767  0.00  0.00    +0.174 C 
ATOM      2  O   UNL     1      -4.453  -1.718  24.096  0.00  0.00    -0.351 OA
ENDBRANCH   3   2
ENDBRANCH   4   3
ENDBRANCH   5   4
TORSDOF 4
ENDMDL
MODEL 3
REMARK VINA RESULT:     -11.4      1.447      2.414
REMARK  Name = 
REMARK  4 active torsions:
REMARK  status: ('A' for Active; 'I' for Inactive)
REMARK    1  A    between atoms: O_2  and  C_3
REMARK    2  A    between atoms: C_3  and  C_4
REMARK    3  A    between atoms: C_4  and  C_5
REMARK    4  A    between atoms: C_14  and  C_21
REMARK                            x       y       z     vdW  Elec       q    Type
REMARK                         _______ _______ _______ _____ _____    ______ ____
ROOT
ATOM      5  C   UNL     1      -4.146   1.992  24.742  0.00  0.00    +0.228 C 
ATOM      6  O   UNL     1      -3.356   2.231  24.723  0.00  0.00    -0.275 OA
ATOM      7  N   UNL     1      -4.333   1.194  24.840  0.00  0.00    -0.279 N 
ATOM      8  C   UNL     1      -4.803   0.508  24.919  0.00  0.00    +0.095 C 
ATOM      9  C   UNL     1      -4.091  -0.171  25.015  0.00  0.00    +0.043 C 
ATOM     10  C   UNL     1      -3.634  -0.839  25.106  0.00  0.00    +0.011 C 
ATOM     11  C   UNL     1      -3.533  -0.150  25.020  0.00  0.00    +0.058 C 
ATOM     12  C   UNL     1      -4.233   0.494  24.929  0.00  0.00    +0.099 C 
ATOM     13  C   UNL     1      -2.866   0.479  24.951  0.00  0.00    +0.041 A 
ATOM     14  C   UNL     1      -2.044   0.543  24.955  0.00  0.00    +0.012 A 
ATOM     15  C   UNL     1      -1.688   1.281  24.867  0.00  0.00    +0.006 A 
ATOM     16  C   UNL     1      -2.154   1.956  24.775  0.00  0.00    +0.061 A 
ATOM     17  C   UNL     1      -2.976   1.892  24.771  0.00  0.00    +0.261 A 
ATOM     18  O   UNL     1      -3.209   2.677  24.669  0.00  0.00    -0.267 OA
ATOM     19  N   UNL     1      -3.332   1.153  24.859  0.00  0.00    -0.299 N 
ATOM     20  C   UNL     1      -3.401   0.493  24.941  0.00  0.00    +0.110 C 
ENDROOT
BRANCH  14  21
ATOM     21  C   UNL     1      -1.578  -0.132  25.047  0.00  0.00    +0.001 A 
ATOM     22  C   UNL     1      -1.323  -0.550  24.383  0.00  0.00    +0.001 A 
ATOM     23  C   UNL     1      -0.857  -1.225  24.475  0.00  0.00    +0.011 A 
ATOM     24  C   UNL     1      -0.646  -1.482  25.230  0.00  0.00    +0.058 A 
ATOM     25 CL   UNL     1      -0.181  -2.156  25.322  0.00  0.00    -0.082 Cl
ATOM     26  C   UNL     1      -0.901  -1.063  25.894  0.00  0.00    +0.011 A 
ATOM     27  C   UNL     1      -1.367  -0.389  25.802  0.00  0.00    +0.001 A 
ENDBRANCH  14  21
BRANCH   5   4
ATOM      4  C   UNL     1      -4.748   2.549  24.663  0.00  0.00    +0.117 C 
BRANCH   4   3
ATOM      3  C   UNL     1      -4.985   2.995  25.315  0.00  0.00    +0.152 C 
BRANCH   3   2
ATOM      1  C   UNL     1      -5.784   4.126  25.671  0.00  0.00    +0.174 C 
ATOM      2  O   UNL     1      -5.710   3.391  25.303  0.00  0.00    -0.351 OA
ENDBRANCH   3   2
ENDBRANCH   4   3
ENDBRANCH   5   4
TORSDOF 4
ENDMDL
