MODEL 1
REMARK VINA RESULT:     -10.4      0.000      0.000
REMARK  Name = 
REMARK  7 active torsions:
REMARK  status: ('A' for Active; 'I' for Inactive)
REMARK    1  A    between atoms: C_2  and  C_4
REMARK    2  A    between atoms: C_6  and  C_7
REMARK    3  A    between atoms: C_7  and  C_8
REMARK    4  A    between atoms: C_11  and  C_13
REMARK    5  A    between atoms: C_16  and  N_19
REMARK    6  A    between atoms: C_25  and  C_26
REMARK    7  A    between atoms: C_26  and  N_27
REMARK                            x       y       z     vdW  Elec       q    Type
REMARK                         _______ _______ _______ _____ _____    ______ ____
ROOT
ATOM      4  C   UNL     1      -3.508   3.688  25.664  0.00  0.00    +0.006 C 
ATOM      5  C   UNL     1      -4.085   3.198  25.337  0.00  0.00    +0.005 C 
ATOM      6  C   UNL     1      -4.028   2.965  24.547  0.00  0.00    +0.027 C 
ATOM     22  C   UNL     1      -3.395   3.222  24.085  0.00  0.00    -0.048 C 
ATOM     23  C   UNL     1      -3.339   2.988  23.296  0.00  0.00    +0.026 C 
ATOM     24  C   UNL     1      -2.818   3.712  24.413  0.00  0.00    -0.034 C 
ATOM     25  C   UNL     1      -2.874   3.945  25.202  0.00  0.00    +0.037 C 
ENDROOT
BRANCH   4   2
ATOM      1  C   UNL     1      -3.190   3.479  27.041  0.00  0.00    +0.000 C 
ATOM      2  C   UNL     1      -3.565   3.921  26.453  0.00  0.00    +0.000 C 
ATOM      3  C   UNL     1      -3.995   4.594  26.655  0.00  0.00    +0.000 C 
ENDBRANCH   4   2
BRANCH   6   7
ATOM      7  C   UNL     1      -4.606   2.474  24.220  0.00  0.00    +0.091 C 
BRANCH   7   8
ATOM      8  C   UNL     1      -4.704   1.707  24.503  0.00  0.00    +0.227 A 
ATOM      9  N   UNL     1      -5.333   1.436  24.962  0.00  0.00    -0.111 NA
ATOM     10  N   UNL     1      -5.208   0.635  25.120  0.00  0.00    -0.107 NA
ATOM     11  C   UNL     1      -4.502   0.412  24.758  0.00  0.00    +0.250 A 
ATOM     12  O   UNL     1      -4.190   1.074  24.376  0.00  0.00    -0.420 OA
BRANCH  11  13
ATOM     13  C   UNL     1      -4.165  -0.341  24.774  0.00  0.00    +0.055 A 
ATOM     14  C   UNL     1      -3.719  -0.580  25.425  0.00  0.00    +0.006 A 
ATOM     15  C   UNL     1      -3.382  -1.333  25.443  0.00  0.00    +0.024 A 
ATOM     16  C   UNL     1      -3.492  -1.847  24.806  0.00  0.00    +0.143 A 
ATOM     17  C   UNL     1      -3.938  -1.610  24.155  0.00  0.00    +0.024 A 
ATOM     18  C   UNL     1      -4.275  -0.856  24.139  0.00  0.00    +0.006 A 
BRANCH  16  19
ATOM     19  N   UNL     1      -3.155  -2.601  24.823  0.00  0.00    +0.058 N 
ATOM     20  O   UNL     1      -2.349  -2.695  24.679  0.00  0.00    -0.126 OA
ATOM     21  O   UNL     1      -3.626  -3.259  24.984  0.00  0.00    -0.126 OA
ENDBRANCH  16  19
ENDBRANCH  11  13
ENDBRANCH   7   8
ENDBRANCH   6   7
BRANCH  25  26
ATOM     26  C   UNL     1      -2.298   4.435  25.529  0.00  0.00    +0.077 C 
BRANCH  26  27
ATOM     27  N   UNL     1      -1.552   4.487  25.178  0.00  0.00    -0.268 NA
ATOM     28  C   UNL     1      -1.331   5.177  24.781  0.00  0.00    +0.105 C 
ATOM     29  C   UNL     1      -0.587   5.229  24.430  0.00  0.00    +0.159 C 
ATOM     30  O   UNL     1      -0.063   4.592  24.475  0.00  0.00    -0.351 OA
ATOM     31  C   UNL     1      -0.285   3.904  24.871  0.00  0.00    +0.159 C 
ATOM     32  C   UNL     1      -1.030   3.851  25.222  0.00  0.00    +0.105 C 
ENDBRANCH  26  27
ENDBRANCH  25  26
TORSDOF 7
ENDMDL
MODEL 2
REMARK VINA RESULT:      -9.7      3.015      4.677
REMARK  Name = 
REMARK  7 active torsions:
REMARK  status: ('A' for Active; 'I' for Inactive)
REMARK    1  A    between atoms: C_2  and  C_4
REMARK    2  A    between atoms: C_6  and  C_7
REMARK    3  A    between atoms: C_7  and  C_8
REMARK    4  A    between atoms: C_11  and  C_13
REMARK    5  A    between atoms: C_16  and  N_19
REMARK    6  A    between atoms: C_25  and  C_26
REMARK    7  A    between atoms: C_26  and  N_27
REMARK                            x       y       z     vdW  Elec       q    Type
REMARK                         _______ _______ _______ _____ _____    ______ ____
ROOT
ATOM      4  C   UNL     1      -3.359   1.593  23.970  0.00  0.00    +0.006 C 
ATOM      5  C   UNL     1      -2.861   0.937  24.002  0.00  0.00    +0.005 C 
ATOM      6  C   UNL     1      -3.071   0.282  24.459  0.00  0.00    +0.027 C 
ATOM     22  C   UNL     1      -3.779   0.285  24.883  0.00  0.00    -0.048 C 
ATOM     23  C   UNL     1      -3.988  -0.369  25.339  0.00  0.00    +0.026 C 
ATOM     24  C   UNL     1      -4.276   0.942  24.850  0.00  0.00    -0.034 C 
ATOM     25  C   UNL     1      -4.067   1.596  24.393  0.00  0.00    +0.037 C 
ENDROOT
BRANCH   4   2
ATOM      1  C   UNL     1      -2.699   2.854  23.845  0.00  0.00    +0.000 C 
ATOM      2  C   UNL     1      -3.149   2.247  23.513  0.00  0.00    +0.000 C 
ATOM      3  C   UNL     1      -3.388   2.295  22.726  0.00  0.00    +0.000 C 
ENDBRANCH   4   2
BRANCH   6   7
ATOM      7  C   UNL     1      -2.572  -0.374  24.492  0.00  0.00    +0.091 C 
BRANCH   7   8
ATOM      8  C   UNL     1      -1.757  -0.271  24.549  0.00  0.00    +0.227 A 
ATOM      9  N   UNL     1      -1.321  -0.228  25.249  0.00  0.00    -0.111 NA
ATOM     10  N   UNL     1      -0.528  -0.122  25.049  0.00  0.00    -0.107 NA
ATOM     11  C   UNL     1      -0.473  -0.100  24.227  0.00  0.00    +0.250 A 
ATOM     12  O   UNL     1      -1.232  -0.191  23.918  0.00  0.00    -0.420 OA
BRANCH  11  13
ATOM     13  C   UNL     1       0.220  -0.003  23.789  0.00  0.00    +0.055 A 
ATOM     14  C   UNL     1       0.615   0.721  23.798  0.00  0.00    +0.006 A 
ATOM     15  C   UNL     1       1.308   0.820  23.361  0.00  0.00    +0.024 A 
ATOM     16  C   UNL     1       1.606   0.192  22.915  0.00  0.00    +0.143 A 
ATOM     17  C   UNL     1       1.211  -0.532  22.905  0.00  0.00    +0.024 A 
ATOM     18  C   UNL     1       0.518  -0.629  23.343  0.00  0.00    +0.006 A 
BRANCH  16  19
ATOM     19  N   UNL     1       2.299   0.290  22.477  0.00  0.00    +0.058 N 
ATOM     20  O   UNL     1       2.934   0.705  22.799  0.00  0.00    -0.126 OA
ATOM     21  O   UNL     1       2.355  -0.027  21.718  0.00  0.00    -0.126 OA
ENDBRANCH  16  19
ENDBRANCH  11  13
ENDBRANCH   7   8
ENDBRANCH   6   7
BRANCH  25  26
ATOM     26  C   UNL     1      -4.564   2.252  24.361  0.00  0.00    +0.077 C 
BRANCH  26  27
ATOM     27  N   UNL     1      -5.115   2.384  24.962  0.00  0.00    -0.268 NA
ATOM     28  C   UNL     1      -4.918   2.863  25.604  0.00  0.00    +0.105 C 
ATOM     29  C   UNL     1      -5.468   2.995  26.205  0.00  0.00    +0.159 C 
ATOM     30  O   UNL     1      -6.215   2.646  26.164  0.00  0.00    -0.351 OA
ATOM     31  C   UNL     1      -6.411   2.166  25.522  0.00  0.00    +0.159 C 
ATOM     32  C   UNL     1      -5.861   2.035  24.921  0.00  0.00    +0.105 C 
ENDBRANCH  26  27
ENDBRANCH  25  26
TORSDOF 7
ENDMDL
MODEL 3
REMARK VINA RESULT:      -9.5      1.756      6.057
REMARK  Name = 
REMARK  7 active torsions:
REMARK  status: ('A' for Active; 'I' for Inactive)
REMARK    1  A    between atoms: C_2  and  C_4
REMARK    2  A    between atoms: C_6  and  C_7
REMARK    3  A    between atoms: C_7  and  C_8
REMARK    4  A    between atoms: C_11  and  C_13
REMARK    5  A    between atoms: C_16  and  N_19
REMARK    6  A    between atoms: C_25  and  C_26
REMARK    7  A    between atoms: C_26  and  N_27
REMARK                            x       y       z     vdW  Elec       q    Type
REMARK                         _______ _______ _______ _____ _____    ______ ____
ROOT
ATOM      4  C   UNL     1      -3.008   0.052  24.765  0.00  0.00    +0.006 C 
ATOM      5  C   UNL     1      -2.289   0.456  24.766  0.00  0.00    +0.005 C 
ATOM      6  C   UNL     1      -1.581   0.036  24.823  0.00  0.00    +0.027 C 
ATOM     22  C   UNL     1      -1.592  -0.787  24.878  0.00  0.00    -0.048 C 
ATOM     23  C   UNL     1      -0.884  -1.206  24.935  0.00  0.00    +0.026 C 
ATOM     24  C   UNL     1      -2.312  -1.190  24.877  0.00  0.00    -0.034 C 
ATOM     25  C   UNL     1      -3.020  -0.771  24.820  0.00  0.00    +0.037 C 
ENDROOT
BRANCH   4   2
ATOM      1  C   UNL     1      -3.969   0.756  23.976  0.00  0.00    +0.000 C 
ATOM      2  C   UNL     1      -3.716   0.472  24.708  0.00  0.00    +0.000 C 
ATOM      3  C   UNL     1      -4.170   0.608  25.382  0.00  0.00    +0.000 C 
ENDBRANCH   4   2
BRANCH   6   7
ATOM      7  C   UNL     1      -0.862   0.440  24.824  0.00  0.00    +0.091 C 
BRANCH   7   8
ATOM      8  C   UNL     1      -0.801   1.174  25.193  0.00  0.00    +0.227 A 
ATOM      9  N   UNL     1      -0.495   1.314  25.947  0.00  0.00    -0.111 NA
ATOM     10  N   UNL     1      -0.541   2.125  26.094  0.00  0.00    -0.107 NA
ATOM     11  C   UNL     1      -0.875   2.486  25.432  0.00  0.00    +0.250 A 
ATOM     12  O   UNL     1      -1.036   1.898  24.875  0.00  0.00    -0.420 OA
BRANCH  11  13
ATOM     13  C   UNL     1      -1.023   3.292  25.341  0.00  0.00    +0.055 A 
ATOM     14  C   UNL     1      -1.709   3.624  25.658  0.00  0.00    +0.006 A 
ATOM     15  C   UNL     1      -1.858   4.431  25.568  0.00  0.00    +0.024 A 
ATOM     16  C   UNL     1      -1.319   4.905  25.161  0.00  0.00    +0.143 A 
ATOM     17  C   UNL     1      -0.634   4.575  24.844  0.00  0.00    +0.024 A 
ATOM     18  C   UNL     1      -0.486   3.767  24.935  0.00  0.00    +0.006 A 
BRANCH  16  19
ATOM     19  N   UNL     1      -1.468   5.712  25.071  0.00  0.00    +0.058 N 
ATOM     20  O   UNL     1      -0.924   6.190  24.676  0.00  0.00    -0.126 OA
ATOM     21  O   UNL     1      -2.160   6.041  25.376  0.00  0.00    -0.126 OA
ENDBRANCH  16  19
ENDBRANCH  11  13
ENDBRANCH   7   8
ENDBRANCH   6   7
BRANCH  25  26
ATOM     26  C   UNL     1      -3.739  -1.174  24.819  0.00  0.00    +0.077 C 
BRANCH  26  27
ATOM     27  N   UNL     1      -3.767  -1.969  24.595  0.00  0.00    -0.268 NA
ATOM     28  C   UNL     1      -3.562  -2.557  25.136  0.00  0.00    +0.105 C 
ATOM     29  C   UNL     1      -3.589  -3.350  24.912  0.00  0.00    +0.159 C 
ATOM     30  O   UNL     1      -3.822  -3.556  24.147  0.00  0.00    -0.351 OA
ATOM     31  C   UNL     1      -4.026  -2.966  23.607  0.00  0.00    +0.159 C 
ATOM     32  C   UNL     1      -3.999  -2.173  23.831  0.00  0.00    +0.105 C 
ENDBRANCH  26  27
ENDBRANCH  25  26
TORSDOF 7
ENDMDL
MODEL 4
REMARK VINA RESULT:      -9.4      2.080      3.750
REMARK  Name = 
REMARK  7 active torsions:
REMARK  status: ('A' for Active; 'I' for Inactive)
REMARK    1  A    between atoms: C_2  and  C_4
REMARK    2  A    between atoms: C_6  and  C_7
REMARK    3  A    between atoms: C_7  and  C_8
REMARK    4  A    between atoms: C_11  and  C_13
REMARK    5  A    between atoms: C_16  and  N_19
REMARK    6  A    between atoms: C_25  and  C_26
REMARK    7  A    between atoms: C_26  and  N_27
REMARK                            x       y       z     vdW  Elec       q    Type
REMARK                         _______ _______ _______ _____ _____    ______ ____
ROOT
ATOM      4  C   UNL     1      -3.113   2.921  23.950  0.00  0.00    +0.006 C 
ATOM      5  C   UNL     1      -2.304   2.894  24.106  0.00  0.00    +0.005 C 
ATOM      6  C   UNL     1      -2.016   3.153  24.835  0.00  0.00    +0.027 C 
ATOM     22  C   UNL     1      -2.538   3.438  25.407  0.00  0.00    -0.048 C 
ATOM     23  C   UNL     1      -2.250   3.696  26.135  0.00  0.00    +0.026 C 
ATOM     24  C   UNL     1      -3.347   3.465  25.250  0.00  0.00    -0.034 C 
ATOM     25  C   UNL     1      -3.635   3.206  24.522  0.00  0.00    +0.037 C 
ENDROOT
BRANCH   4   2
ATOM      1  C   UNL     1      -3.516   1.856  23.087  0.00  0.00    +0.000 C 
ATOM      2  C   UNL     1      -3.401   2.662  23.221  0.00  0.00    +0.000 C 
ATOM      3  C   UNL     1      -3.572   3.208  22.628  0.00  0.00    +0.000 C 
ENDBRANCH   4   2
BRANCH   6   7
ATOM      7  C   UNL     1      -1.206   3.125  24.991  0.00  0.00    +0.091 C 
BRANCH   7   8
ATOM      8  C   UNL     1      -0.793   2.418  24.903  0.00  0.00    +0.227 A 
ATOM      9  N   UNL     1      -0.004   2.343  24.672  0.00  0.00    -0.111 NA
ATOM     10  N   UNL     1       0.182   1.539  24.657  0.00  0.00    -0.107 NA
ATOM     11  C   UNL     1      -0.492   1.118  24.878  0.00  0.00    +0.250 A 
ATOM     12  O   UNL     1      -1.094   1.661  25.030  0.00  0.00    -0.420 OA
BRANCH  11  13
ATOM     13  C   UNL     1      -0.553   0.297  24.937  0.00  0.00    +0.055 A 
ATOM     14  C   UNL     1      -0.883  -0.045  25.611  0.00  0.00    +0.006 A 
ATOM     15  C   UNL     1      -0.945  -0.865  25.671  0.00  0.00    +0.024 A 
ATOM     16  C   UNL     1      -0.676  -1.344  25.055  0.00  0.00    +0.143 A 
ATOM     17  C   UNL     1      -0.345  -1.003  24.380  0.00  0.00    +0.024 A 
ATOM     18  C   UNL     1      -0.284  -0.182  24.322  0.00  0.00    +0.006 A 
BRANCH  16  19
ATOM     19  N   UNL     1      -0.737  -2.165  25.114  0.00  0.00    +0.058 N 
ATOM     20  O   UNL     1      -1.410  -2.549  24.832  0.00  0.00    -0.126 OA
ATOM     21  O   UNL     1      -0.126  -2.600  25.455  0.00  0.00    -0.126 OA
ENDBRANCH  16  19
ENDBRANCH  11  13
ENDBRANCH   7   8
ENDBRANCH   6   7
BRANCH  25  26
ATOM     26  C   UNL     1      -4.444   3.233  24.365  0.00  0.00    +0.077 C 
BRANCH  26  27
ATOM     27  N   UNL     1      -4.987   3.167  24.984  0.00  0.00    -0.268 NA
ATOM     28  C   UNL     1      -5.203   2.422  25.264  0.00  0.00    +0.105 C 
ATOM     29  C   UNL     1      -5.745   2.356  25.883  0.00  0.00    +0.159 C 
ATOM     30  O   UNL     1      -6.071   3.035  26.220  0.00  0.00    -0.351 OA
ATOM     31  C   UNL     1      -5.854   3.780  25.939  0.00  0.00    +0.159 C 
ATOM     32  C   UNL     1      -5.312   3.846  25.321  0.00  0.00    +0.105 C 
ENDBRANCH  26  27
ENDBRANCH  25  26
TORSDOF 7
ENDMDL
MODEL 5
REMARK VINA RESULT:      -9.2      2.214      3.368
REMARK  Name = 
REMARK  7 active torsions:
REMARK  status: ('A' for Active; 'I' for Inactive)
REMARK    1  A    between atoms: C_2  and  C_4
REMARK    2  A    between atoms: C_6  and  C_7
REMARK    3  A    between atoms: C_7  and  C_8
REMARK    4  A    between atoms: C_11  and  C_13
REMARK    5  A    between atoms: C_16  and  N_19
REMARK    6  A    between atoms: C_25  and  C_26
REMARK    7  A    between atoms: C_26  and  N_27
REMARK                            x       y       z     vdW  Elec       q    Type
REMARK                         _______ _______ _______ _____ _____    ______ ____
ROOT
ATOM      4  C   UNL     1      -2.514   3.591  25.020  0.00  0.00    +0.006 C 
ATOM      5  C   UNL     1      -2.039   3.204  24.468  0.00  0.00    +0.005 C 
ATOM      6  C   UNL     1      -2.387   2.762  23.863  0.00  0.00    +0.027 C 
ATOM     22  C   UNL     1      -3.208   2.708  23.812  0.00  0.00    -0.048 C 
ATOM     23  C   UNL     1      -3.555   2.266  23.208  0.00  0.00    +0.026 C 
ATOM     24  C   UNL     1      -3.682   3.096  24.364  0.00  0.00    -0.034 C 
ATOM     25  C   UNL     1      -3.335   3.538  24.968  0.00  0.00    +0.037 C 
ENDROOT
BRANCH   4   2
ATOM      1  C   UNL     1      -1.987   3.675  26.346  0.00  0.00    +0.000 C 
ATOM      2  C   UNL     1      -2.166   4.033  25.623  0.00  0.00    +0.000 C 
ATOM      3  C   UNL     1      -1.996   4.831  25.506  0.00  0.00    +0.000 C 
ENDBRANCH   4   2
BRANCH   6   7
ATOM      7  C   UNL     1      -1.912   2.374  23.311  0.00  0.00    +0.091 C 
BRANCH   7   8
ATOM      8  C   UNL     1      -1.356   1.820  23.562  0.00  0.00    +0.227 A 
ATOM      9  N   UNL     1      -0.536   1.912  23.540  0.00  0.00    -0.111 NA
ATOM     10  N   UNL     1      -0.194   1.225  23.844  0.00  0.00    -0.107 NA
ATOM     11  C   UNL     1      -0.803   0.708  24.054  0.00  0.00    +0.250 A 
ATOM     12  O   UNL     1      -1.521   1.077  23.879  0.00  0.00    -0.420 OA
BRANCH  11  13
ATOM     13  C   UNL     1      -0.710  -0.043  24.380  0.00  0.00    +0.055 A 
ATOM     14  C   UNL     1      -1.052  -0.221  25.110  0.00  0.00    +0.006 A 
ATOM     15  C   UNL     1      -0.960  -0.973  25.437  0.00  0.00    +0.024 A 
ATOM     16  C   UNL     1      -0.526  -1.547  25.033  0.00  0.00    +0.143 A 
ATOM     17  C   UNL     1      -0.184  -1.371  24.304  0.00  0.00    +0.024 A 
ATOM     18  C   UNL     1      -0.277  -0.618  23.977  0.00  0.00    +0.006 A 
BRANCH  16  19
ATOM     19  N   UNL     1      -0.434  -2.300  25.361  0.00  0.00    +0.058 N 
ATOM     20  O   UNL     1      -1.037  -2.857  25.288  0.00  0.00    -0.126 OA
ATOM     21  O   UNL     1       0.262  -2.493  25.759  0.00  0.00    -0.126 OA
ENDBRANCH  16  19
ENDBRANCH  11  13
ENDBRANCH   7   8
ENDBRANCH   6   7
BRANCH  25  26
ATOM     26  C   UNL     1      -3.809   3.926  25.520  0.00  0.00    +0.077 C 
BRANCH  26  27
ATOM     27  N   UNL     1      -4.601   3.709  25.609  0.00  0.00    -0.268 NA
ATOM     28  C   UNL     1      -4.795   3.000  25.983  0.00  0.00    +0.105 C 
ATOM     29  C   UNL     1      -5.586   2.784  26.072  0.00  0.00    +0.159 C 
ATOM     30  O   UNL     1      -6.184   3.277  25.786  0.00  0.00    -0.351 OA
ATOM     31  C   UNL     1      -5.989   3.986  25.412  0.00  0.00    +0.159 C 
ATOM     32  C   UNL     1      -5.197   4.202  25.324  0.00  0.00    +0.105 C 
ENDBRANCH  26  27
ENDBRANCH  25  26
TORSDOF 7
ENDMDL
MODEL 6
REMARK VINA RESULT:      -8.9      1.798      2.837
REMARK  Name = 
REMARK  7 active torsions:
REMARK  status: ('A' for Active; 'I' for Inactive)
REMARK    1  A    between atoms: C_2  and  C_4
REMARK    2  A    between atoms: C_6  and  C_7
REMARK    3  A    between atoms: C_7  and  C_8
REMARK    4  A    between atoms: C_11  and  C_13
REMARK    5  A    between atoms: C_16  and  N_19
REMARK    6  A    between atoms: C_25  and  C_26
REMARK    7  A    between atoms: C_26  and  N_27
REMARK                            x       y       z     vdW  Elec       q    Type
REMARK                         _______ _______ _______ _____ _____    ______ ____
ROOT
ATOM      4  C   UNL     1      -1.771   2.125  24.096  0.00  0.00    +0.006 C 
ATOM      5  C   UNL     1      -1.418   1.424  24.350  0.00  0.00    +0.005 C 
ATOM      6  C   UNL     1      -0.870   1.439  24.968  0.00  0.00    +0.027 C 
ATOM     22  C   UNL     1      -0.677   2.154  25.331  0.00  0.00    -0.048 C 
ATOM     23  C   UNL     1      -0.130   2.169  25.947  0.00  0.00    +0.026 C 
ATOM     24  C   UNL     1      -1.031   2.855  25.076  0.00  0.00    -0.034 C 
ATOM     25  C   UNL     1      -1.578   2.840  24.459  0.00  0.00    +0.037 C 
ENDROOT
BRANCH   4   2
ATOM      1  C   UNL     1      -3.127   2.087  23.646  0.00  0.00    +0.000 C 
ATOM      2  C   UNL     1      -2.318   2.110  23.479  0.00  0.00    +0.000 C 
ATOM      3  C   UNL     1      -2.059   2.117  22.697  0.00  0.00    +0.000 C 
ENDBRANCH   4   2
BRANCH   6   7
ATOM      7  C   UNL     1      -0.517   0.738  25.221  0.00  0.00    +0.091 C 
BRANCH   7   8
ATOM      8  C   UNL     1      -0.983   0.086  25.410  0.00  0.00    +0.227 A 
ATOM      9  N   UNL     1      -1.026  -0.283  26.147  0.00  0.00    -0.111 NA
ATOM     10  N   UNL     1      -1.558  -0.911  26.087  0.00  0.00    -0.107 NA
ATOM     11  C   UNL     1      -1.845  -0.930  25.314  0.00  0.00    +0.250 A 
ATOM     12  O   UNL     1      -1.489  -0.314  24.895  0.00  0.00    -0.420 OA
BRANCH  11  13
ATOM     13  C   UNL     1      -2.390  -1.469  25.011  0.00  0.00    +0.055 A 
ATOM     14  C   UNL     1      -3.198  -1.346  25.123  0.00  0.00    +0.006 A 
ATOM     15  C   UNL     1      -3.745  -1.884  24.822  0.00  0.00    +0.024 A 
ATOM     16  C   UNL     1      -3.483  -2.548  24.407  0.00  0.00    +0.143 A 
ATOM     17  C   UNL     1      -2.675  -2.673  24.294  0.00  0.00    +0.024 A 
ATOM     18  C   UNL     1      -2.129  -2.132  24.597  0.00  0.00    +0.006 A 
BRANCH  16  19
ATOM     19  N   UNL     1      -4.029  -3.088  24.104  0.00  0.00    +0.058 N 
ATOM     20  O   UNL     1      -4.639  -2.826  23.615  0.00  0.00    -0.126 OA
ATOM     21  O   UNL     1      -3.965  -3.888  24.292  0.00  0.00    -0.126 OA
ENDBRANCH  16  19
ENDBRANCH  11  13
ENDBRANCH   7   8
ENDBRANCH   6   7
BRANCH  25  26
ATOM     26  C   UNL     1      -1.932   3.540  24.205  0.00  0.00    +0.077 C 
BRANCH  26  27
ATOM     27  N   UNL     1      -1.810   4.241  24.626  0.00  0.00    -0.268 NA
ATOM     28  C   UNL     1      -1.166   4.723  24.444  0.00  0.00    +0.105 C 
ATOM     29  C   UNL     1      -1.044   5.423  24.864  0.00  0.00    +0.159 C 
ATOM     30  O   UNL     1      -1.566   5.640  25.466  0.00  0.00    -0.351 OA
ATOM     31  C   UNL     1      -2.210   5.156  25.646  0.00  0.00    +0.159 C 
ATOM     32  C   UNL     1      -2.331   4.457  25.227  0.00  0.00    +0.105 C 
ENDBRANCH  26  27
ENDBRANCH  25  26
TORSDOF 7
ENDMDL
MODEL 7
REMARK VINA RESULT:      -8.9      3.064      4.717
REMARK  Name = 
REMARK  7 active torsions:
REMARK  status: ('A' for Active; 'I' for Inactive)
REMARK    1  A    between atoms: C_2  and  C_4
REMARK    2  A    between atoms: C_6  and  C_7
REMARK    3  A    between atoms: C_7  and  C_8
REMARK    4  A    between atoms: C_11  and  C_13
REMARK    5  A    between atoms: C_16  and  N_19
REMARK    6  A    between atoms: C_25  and  C_26
REMARK    7  A    between atoms: C_26  and  N_27
REMARK                            x       y       z     vdW  Elec       q    Type
REMARK                         _______ _______ _______ _____ _____    ______ ____
ROOT
ATOM      4  C   UNL     1      -0.603   0.195  24.524  0.00  0.00    +0.006 C 
ATOM      5  C   UNL     1      -0.967   0.852  24.866  0.00  0.00    +0.005 C 
ATOM      6  C   UNL     1      -0.656   1.607  24.741  0.00  0.00    +0.027 C 
ATOM     22  C   UNL     1       0.017   1.704  24.275  0.00  0.00    -0.048 C 
ATOM     23  C   UNL     1       0.327   2.458  24.151  0.00  0.00    +0.026 C 
ATOM     24  C   UNL     1       0.381   1.046  23.934  0.00  0.00    -0.034 C 
ATOM     25  C   UNL     1       0.071   0.293  24.058  0.00  0.00    +0.037 C 
ENDROOT
BRANCH   4   2
ATOM      1  C   UNL     1      -1.494  -0.854  24.141  0.00  0.00    +0.000 C 
ATOM      2  C   UNL     1      -0.914  -0.559  24.648  0.00  0.00    +0.000 C 
ATOM      3  C   UNL     1      -0.645  -1.016  25.279  0.00  0.00    +0.000 C 
ENDBRANCH   4   2
BRANCH   6   7
ATOM      7  C   UNL     1      -1.020   2.263  25.083  0.00  0.00    +0.091 C 
BRANCH   7   8
ATOM      8  C   UNL     1      -1.791   2.465  24.871  0.00  0.00    +0.227 A 
ATOM      9  N   UNL     1      -2.007   3.013  24.294  0.00  0.00    -0.111 NA
ATOM     10  N   UNL     1      -2.831   3.041  24.265  0.00  0.00    -0.107 NA
ATOM     11  C   UNL     1      -3.124   2.510  24.824  0.00  0.00    +0.250 A 
ATOM     12  O   UNL     1      -2.481   2.154  25.199  0.00  0.00    -0.420 OA
BRANCH  11  13
ATOM     13  C   UNL     1      -3.920   2.361  24.982  0.00  0.00    +0.055 A 
ATOM     14  C   UNL     1      -4.257   1.641  24.760  0.00  0.00    +0.006 A 
ATOM     15  C   UNL     1      -5.053   1.491  24.917  0.00  0.00    +0.024 A 
ATOM     16  C   UNL     1      -5.512   2.063  25.296  0.00  0.00    +0.143 A 
ATOM     17  C   UNL     1      -5.177   2.782  25.518  0.00  0.00    +0.024 A 
ATOM     18  C   UNL     1      -4.379   2.931  25.360  0.00  0.00    +0.006 A 
BRANCH  16  19
ATOM     19  N   UNL     1      -6.309   1.913  25.453  0.00  0.00    +0.058 N 
ATOM     20  O   UNL     1      -6.843   1.830  24.831  0.00  0.00    -0.126 OA
ATOM     21  O   UNL     1      -6.569   1.846  26.233  0.00  0.00    -0.126 OA
ENDBRANCH  16  19
ENDBRANCH  11  13
ENDBRANCH   7   8
ENDBRANCH   6   7
BRANCH  25  26
ATOM     26  C   UNL     1       0.434  -0.364  23.717  0.00  0.00    +0.077 C 
BRANCH  26  27
ATOM     27  N   UNL     1       1.019  -0.260  23.143  0.00  0.00    -0.268 NA
ATOM     28  C   UNL     1       1.801  -0.129  23.371  0.00  0.00    +0.105 C 
ATOM     29  C   UNL     1       2.386  -0.025  22.798  0.00  0.00    +0.159 C 
ATOM     30  O   UNL     1       2.188  -0.053  21.997  0.00  0.00    -0.351 OA
ATOM     31  C   UNL     1       1.406  -0.185  21.770  0.00  0.00    +0.159 C 
ATOM     32  C   UNL     1       0.822  -0.288  22.343  0.00  0.00    +0.105 C 
ENDBRANCH  26  27
ENDBRANCH  25  26
TORSDOF 7
ENDMDL
