MODEL 1
REMARK VINA RESULT:     -14.4      0.000      0.000
REMARK  Name = 
REMARK  5 active torsions:
REMARK  status: ('A' for Active; 'I' for Inactive)
REMARK    1  A    between atoms: O_2  and  C_3
REMARK    2  A    between atoms: C_6  and  C_7
REMARK    3  A    between atoms: C_7  and  N_8
REMARK    4  A    between atoms: C_17  and  C_22
REMARK    5  A    between atoms: C_24  and  C_28
REMARK                            x       y       z     vdW  Elec       q    Type
REMARK                         _______ _______ _______ _____ _____    ______ ____
ROOT
ATOM      8  N   UNL     1      -4.766   1.298  25.115  0.00  0.00    -0.269 NA
ATOM      9  C   UNL     1      -5.585   1.309  25.277  0.00  0.00    +0.074 C 
ATOM     10  C   UNL     1      -5.719   2.282  25.387  0.00  0.00    +0.039 C 
ATOM     11  C   UNL     1      -5.991   3.041  25.505  0.00  0.00    +0.011 C 
ATOM     12  C   UNL     1      -5.382   2.725  25.359  0.00  0.00    +0.054 C 
ATOM     13  C   UNL     1      -5.269   1.782  25.256  0.00  0.00    +0.078 C 
ATOM     14  C   UNL     1      -4.495   2.908  25.201  0.00  0.00    +0.041 A 
ATOM     15  C   UNL     1      -3.971   3.543  25.152  0.00  0.00    +0.013 A 
ATOM     16  C   UNL     1      -3.175   3.408  24.984  0.00  0.00    +0.006 A 
ATOM     17  C   UNL     1      -2.902   2.639  24.865  0.00  0.00    +0.056 A 
ATOM     18  C   UNL     1      -3.426   2.004  24.913  0.00  0.00    +0.261 A 
ATOM     19  O   UNL     1      -3.154   1.234  24.794  0.00  0.00    -0.267 OA
ATOM     20  N   UNL     1      -4.223   2.138  25.081  0.00  0.00    -0.299 N 
ATOM     21  C   UNL     1      -4.791   2.464  25.220  0.00  0.00    +0.110 C 
ENDROOT
BRANCH  17  22
ATOM     22  C   UNL     1      -2.106   2.505  24.697  0.00  0.00    +0.005 A 
ATOM     23  C   UNL     1      -1.549   2.515  25.306  0.00  0.00    +0.010 A 
ATOM     24  C   UNL     1      -0.753   2.381  25.139  0.00  0.00    +0.068 A 
ATOM     25  C   UNL     1      -0.513   2.237  24.363  0.00  0.00    +0.010 A 
ATOM     26  C   UNL     1      -1.069   2.227  23.754  0.00  0.00    +0.001 A 
ATOM     27  C   UNL     1      -1.866   2.361  23.921  0.00  0.00    +0.000 A 
BRANCH  24  28
ATOM     28  C   UNL     1      -0.196   2.391  25.748  0.00  0.00    +0.100 C 
ATOM     29  N   UNL     1       0.361   2.401  26.357  0.00  0.00    -0.191 NA
ENDBRANCH  24  28
ENDBRANCH  17  22
BRANCH   8   7
ATOM      7  C   UNL     1      -4.020   0.990  24.943  0.00  0.00    +0.099 C 
BRANCH   7   6
ATOM      3  C   UNL     1      -3.714  -1.453  24.701  0.00  0.00    +0.139 A 
ATOM      4  C   UNL     1      -3.927  -0.998  24.047  0.00  0.00    +0.037 A 
ATOM      5  C   UNL     1      -4.029  -0.183  24.128  0.00  0.00    +0.000 A 
ATOM      6  C   UNL     1      -3.918   0.176  24.862  0.00  0.00    -0.006 A 
ATOM     30  C   UNL     1      -3.705  -0.280  25.516  0.00  0.00    +0.000 A 
ATOM     31  C   UNL     1      -3.603  -1.095  25.435  0.00  0.00    +0.037 A 
BRANCH   3   2
ATOM      1  C   UNL     1      -2.860  -2.579  24.486  0.00  0.00    +0.252 C 
ATOM      2  O   UNL     1      -3.612  -2.269  24.620  0.00  0.00    -0.471 OA
ENDBRANCH   3   2
ENDBRANCH   7   6
ENDBRANCH   8   7
TORSDOF 5
ENDMDL
MODEL 2
REMARK VINA RESULT:     -14.0      1.132      3.442
REMARK  Name = 
REMARK  5 active torsions:
REMARK  status: ('A' for Active; 'I' for Inactive)
REMARK    1  A    between atoms: O_2  and  C_3
REMARK    2  A    between atoms: C_6  and  C_7
REMARK    3  A    between atoms: C_7  and  N_8
REMARK    4  A    between atoms: C_17  and  C_22
REMARK    5  A    between atoms: C_24  and  C_28
REMARK                            x       y       z     vdW  Elec       q    Type
REMARK                         _______ _______ _______ _____ _____    ______ ____
ROOT
ATOM      8  N   UNL     1      -3.550   2.966  25.047  0.00  0.00    -0.269 NA
ATOM      9  C   UNL     1      -3.706   3.769  25.218  0.00  0.00    +0.074 C 
ATOM     10  C   UNL     1      -4.680   3.718  25.374  0.00  0.00    +0.039 C 
ATOM     11  C   UNL     1      -5.470   3.844  25.531  0.00  0.00    +0.011 C 
ATOM     12  C   UNL     1      -5.054   3.304  25.363  0.00  0.00    +0.054 C 
ATOM     13  C   UNL     1      -4.112   3.369  25.215  0.00  0.00    +0.078 C 
ATOM     14  C   UNL     1      -5.076   2.399  25.204  0.00  0.00    +0.041 A 
ATOM     15  C   UNL     1      -5.603   1.766  25.180  0.00  0.00    +0.013 A 
ATOM     16  C   UNL     1      -5.331   1.009  24.998  0.00  0.00    +0.006 A 
ATOM     17  C   UNL     1      -4.530   0.885  24.840  0.00  0.00    +0.056 A 
ATOM     18  C   UNL     1      -4.003   1.519  24.864  0.00  0.00    +0.261 A 
ATOM     19  O   UNL     1      -3.202   1.395  24.706  0.00  0.00    -0.267 OA
ATOM     20  N   UNL     1      -4.275   2.276  25.046  0.00  0.00    -0.299 N 
ATOM     21  C   UNL     1      -4.693   2.773  25.207  0.00  0.00    +0.110 C 
ENDROOT
BRANCH  17  22
ATOM     22  C   UNL     1      -4.259   0.129  24.658  0.00  0.00    +0.005 A 
ATOM     23  C   UNL     1      -4.003  -0.374  25.261  0.00  0.00    +0.010 A 
ATOM     24  C   UNL     1      -3.731  -1.131  25.079  0.00  0.00    +0.068 A 
ATOM     25  C   UNL     1      -3.715  -1.386  24.295  0.00  0.00    +0.010 A 
ATOM     26  C   UNL     1      -3.971  -0.885  23.692  0.00  0.00    +0.001 A 
ATOM     27  C   UNL     1      -4.243  -0.127  23.874  0.00  0.00    +0.000 A 
BRANCH  24  28
ATOM     28  C   UNL     1      -3.475  -1.633  25.682  0.00  0.00    +0.100 C 
ATOM     29  N   UNL     1      -3.220  -2.135  26.285  0.00  0.00    -0.191 NA
ENDBRANCH  24  28
ENDBRANCH  17  22
BRANCH   8   7
ATOM      7  C   UNL     1      -3.117   2.291  24.852  0.00  0.00    +0.099 C 
BRANCH   7   6
ATOM      3  C   UNL     1      -0.670   2.442  24.517  0.00  0.00    +0.139 A 
ATOM      4  C   UNL     1      -1.180   2.518  23.873  0.00  0.00    +0.037 A 
ATOM      5  C   UNL     1      -1.996   2.468  23.985  0.00  0.00    +0.000 A 
ATOM      6  C   UNL     1      -2.302   2.341  24.741  0.00  0.00    -0.006 A 
ATOM     30  C   UNL     1      -1.792   2.265  25.384  0.00  0.00    +0.000 A 
ATOM     31  C   UNL     1      -0.975   2.316  25.272  0.00  0.00    +0.037 A 
BRANCH   3   2
ATOM      1  C   UNL     1       0.584   1.812  24.249  0.00  0.00    +0.252 C 
ATOM      2  O   UNL     1       0.146   2.493  24.405  0.00  0.00    -0.471 OA
ENDBRANCH   3   2
ENDBRANCH   7   6
ENDBRANCH   8   7
TORSDOF 5
ENDMDL
MODEL 3
REMARK VINA RESULT:     -13.4      1.503      4.273
REMARK  Name = 
REMARK  5 active torsions:
REMARK  status: ('A' for Active; 'I' for Inactive)
REMARK    1  A    between atoms: O_2  and  C_3
REMARK    2  A    between atoms: C_6  and  C_7
REMARK    3  A    between atoms: C_7  and  N_8
REMARK    4  A    between atoms: C_17  and  C_22
REMARK    5  A    between atoms: C_24  and  C_28
REMARK                            x       y       z     vdW  Elec       q    Type
REMARK                         _______ _______ _______ _____ _____    ______ ____
ROOT
ATOM      8  N   UNL     1      -2.012  -0.739  24.799  0.00  0.00    -0.269 NA
ATOM      9  C   UNL     1      -1.618  -1.476  24.813  0.00  0.00    +0.074 C 
ATOM     10  C   UNL     1      -2.381  -2.075  24.624  0.00  0.00    +0.039 C 
ATOM     11  C   UNL     1      -2.893  -2.692  24.481  0.00  0.00    +0.011 C 
ATOM     12  C   UNL     1      -2.925  -1.993  24.530  0.00  0.00    +0.054 C 
ATOM     13  C   UNL     1      -2.178  -1.427  24.714  0.00  0.00    +0.078 C 
ATOM     14  C   UNL     1      -3.517  -1.292  24.477  0.00  0.00    +0.041 A 
ATOM     15  C   UNL     1      -4.316  -1.138  24.341  0.00  0.00    +0.013 A 
ATOM     16  C   UNL     1      -4.593  -0.361  24.352  0.00  0.00    +0.006 A 
ATOM     17  C   UNL     1      -4.072   0.261  24.498  0.00  0.00    +0.056 A 
ATOM     18  C   UNL     1      -3.273   0.107  24.634  0.00  0.00    +0.261 A 
ATOM     19  O   UNL     1      -2.752   0.730  24.780  0.00  0.00    -0.267 OA
ATOM     20  N   UNL     1      -2.996  -0.670  24.623  0.00  0.00    -0.299 N 
ATOM     21  C   UNL     1      -2.993  -1.337  24.570  0.00  0.00    +0.110 C 
ENDROOT
BRANCH  17  22
ATOM     22  C   UNL     1      -4.350   1.037  24.509  0.00  0.00    +0.005 A 
ATOM     23  C   UNL     1      -4.789   1.309  25.153  0.00  0.00    +0.010 A 
ATOM     24  C   UNL     1      -5.067   2.086  25.164  0.00  0.00    +0.068 A 
ATOM     25  C   UNL     1      -4.908   2.590  24.531  0.00  0.00    +0.010 A 
ATOM     26  C   UNL     1      -4.469   2.319  23.887  0.00  0.00    +0.001 A 
ATOM     27  C   UNL     1      -4.190   1.542  23.876  0.00  0.00    +0.000 A 
BRANCH  24  28
ATOM     28  C   UNL     1      -5.506   2.357  25.808  0.00  0.00    +0.100 C 
ATOM     29  N   UNL     1      -5.945   2.629  26.452  0.00  0.00    -0.191 NA
ENDBRANCH  24  28
ENDBRANCH  17  22
BRANCH   8   7
ATOM      7  C   UNL     1      -2.118   0.078  24.845  0.00  0.00    +0.099 C 
BRANCH   7   6
ATOM      3  C   UNL     1      -0.180   1.554  25.282  0.00  0.00    +0.139 A 
ATOM      4  C   UNL     1      -0.632   1.270  25.911  0.00  0.00    +0.037 A 
ATOM      5  C   UNL     1      -1.278   0.778  25.765  0.00  0.00    +0.000 A 
ATOM      6  C   UNL     1      -1.473   0.570  24.990  0.00  0.00    -0.006 A 
ATOM     30  C   UNL     1      -1.020   0.854  24.362  0.00  0.00    +0.000 A 
ATOM     31  C   UNL     1      -0.374   1.347  24.508  0.00  0.00    +0.037 A 
BRANCH   3   2
ATOM      1  C   UNL     1       0.368   2.736  25.869  0.00  0.00    +0.252 C 
ATOM      2  O   UNL     1       0.466   2.046  25.428  0.00  0.00    -0.471 OA
ENDBRANCH   3   2
ENDBRANCH   7   6
ENDBRANCH   8   7
TORSDOF 5
ENDMDL
MODEL 4
REMARK VINA RESULT:     -13.1      1.383      3.474
REMARK  Name = 
REMARK  5 active torsions:
REMARK  status: ('A' for Active; 'I' for Inactive)
REMARK    1  A    between atoms: O_2  and  C_3
REMARK    2  A    between atoms: C_6  and  C_7
REMARK    3  A    between atoms: C_7  and  N_8
REMARK    4  A    between atoms: C_17  and  C_22
REMARK    5  A    between atoms: C_24  and  C_28
REMARK                            x       y       z     vdW  Elec       q    Type
REMARK                         _______ _______ _______ _____ _____    ______ ____
ROOT
ATOM      8  N   UNL     1      -3.645  -0.676  24.602  0.00  0.00    -0.269 NA
ATOM      9  C   UNL     1      -4.197  -1.304  24.600  0.00  0.00    +0.074 C 
ATOM     10  C   UNL     1      -3.574  -2.071  24.616  0.00  0.00    +0.039 C 
ATOM     11  C   UNL     1      -3.204  -2.796  24.629  0.00  0.00    +0.011 C 
ATOM     12  C   UNL     1      -3.019  -2.119  24.625  0.00  0.00    +0.054 C 
ATOM     13  C   UNL     1      -3.633  -1.388  24.609  0.00  0.00    +0.078 C 
ATOM     14  C   UNL     1      -2.279  -1.574  24.632  0.00  0.00    +0.041 A 
ATOM     15  C   UNL     1      -1.455  -1.613  24.645  0.00  0.00    +0.013 A 
ATOM     16  C   UNL     1      -1.010  -0.918  24.646  0.00  0.00    +0.006 A 
ATOM     17  C   UNL     1      -1.389  -0.185  24.633  0.00  0.00    +0.056 A 
ATOM     18  C   UNL     1      -2.212  -0.147  24.620  0.00  0.00    +0.261 A 
ATOM     19  O   UNL     1      -2.591   0.586  24.607  0.00  0.00    -0.267 OA
ATOM     20  N   UNL     1      -2.658  -0.841  24.619  0.00  0.00    -0.299 N 
ATOM     21  C   UNL     1      -2.807  -1.494  24.623  0.00  0.00    +0.110 C 
ENDROOT
BRANCH  17  22
ATOM     22  C   UNL     1      -0.943   0.508  24.633  0.00  0.00    +0.005 A 
ATOM     23  C   UNL     1      -0.803   0.908  25.342  0.00  0.00    +0.010 A 
ATOM     24  C   UNL     1      -0.357   1.602  25.343  0.00  0.00    +0.068 A 
ATOM     25  C   UNL     1      -0.051   1.897  24.636  0.00  0.00    +0.010 A 
ATOM     26  C   UNL     1      -0.191   1.498  23.927  0.00  0.00    +0.001 A 
ATOM     27  C   UNL     1      -0.637   0.803  23.926  0.00  0.00    +0.000 A 
BRANCH  24  28
ATOM     28  C   UNL     1      -0.217   2.001  26.052  0.00  0.00    +0.100 C 
ATOM     29  N   UNL     1      -0.076   2.400  26.760  0.00  0.00    -0.191 NA
ENDBRANCH  24  28
ENDBRANCH  17  22
BRANCH   8   7
ATOM      7  C   UNL     1      -3.361   0.099  24.600  0.00  0.00    +0.099 C 
BRANCH   7   6
ATOM      3  C   UNL     1      -4.942   1.998  24.737  0.00  0.00    +0.139 A 
ATOM      4  C   UNL     1      -4.515   1.867  24.045  0.00  0.00    +0.037 A 
ATOM      5  C   UNL     1      -3.987   1.234  23.998  0.00  0.00    +0.000 A 
ATOM      6  C   UNL     1      -3.888   0.731  24.646  0.00  0.00    -0.006 A 
ATOM     30  C   UNL     1      -4.315   0.863  25.339  0.00  0.00    +0.000 A 
ATOM     31  C   UNL     1      -4.843   1.496  25.385  0.00  0.00    +0.037 A 
BRANCH   3   2
ATOM      1  C   UNL     1      -5.410   3.173  25.402  0.00  0.00    +0.252 C 
ATOM      2  O   UNL     1      -5.469   2.631  24.784  0.00  0.00    -0.471 OA
ENDBRANCH   3   2
ENDBRANCH   7   6
ENDBRANCH   8   7
TORSDOF 5
ENDMDL
MODEL 5
REMARK VINA RESULT:     -12.9      1.784      3.613
REMARK  Name = 
REMARK  5 active torsions:
REMARK  status: ('A' for Active; 'I' for Inactive)
REMARK    1  A    between atoms: O_2  and  C_3
REMARK    2  A    between atoms: C_6  and  C_7
REMARK    3  A    between atoms: C_7  and  N_8
REMARK    4  A    between atoms: C_17  and  C_22
REMARK    5  A    between atoms: C_24  and  C_28
REMARK                            x       y       z     vdW  Elec       q    Type
REMARK                         _______ _______ _______ _____ _____    ______ ____
ROOT
ATOM      8  N   UNL     1      -3.798   2.292  24.924  0.00  0.00    -0.269 NA
ATOM      9  C   UNL     1      -4.500   2.736  24.830  0.00  0.00    +0.074 C 
ATOM     10  C   UNL     1      -5.154   1.998  24.761  0.00  0.00    +0.039 C 
ATOM     11  C   UNL     1      -5.806   1.516  24.687  0.00  0.00    +0.011 C 
ATOM     12  C   UNL     1      -5.114   1.442  24.775  0.00  0.00    +0.054 C 
ATOM     13  C   UNL     1      -4.494   2.166  24.840  0.00  0.00    +0.078 C 
ATOM     14  C   UNL     1      -4.463   0.800  24.866  0.00  0.00    +0.041 A 
ATOM     15  C   UNL     1      -4.371  -0.020  24.892  0.00  0.00    +0.013 A 
ATOM     16  C   UNL     1      -3.621  -0.347  24.990  0.00  0.00    +0.006 A 
ATOM     17  C   UNL     1      -2.962   0.144  25.064  0.00  0.00    +0.056 A 
ATOM     18  C   UNL     1      -3.054   0.964  25.039  0.00  0.00    +0.261 A 
ATOM     19  O   UNL     1      -2.395   1.455  25.113  0.00  0.00    -0.267 OA
ATOM     20  N   UNL     1      -3.805   1.291  24.940  0.00  0.00    -0.299 N 
ATOM     21  C   UNL     1      -4.467   1.334  24.857  0.00  0.00    +0.110 C 
ENDROOT
BRANCH  17  22
ATOM     22  C   UNL     1      -2.212  -0.184  25.163  0.00  0.00    +0.005 A 
ATOM     23  C   UNL     1      -1.688  -0.213  24.527  0.00  0.00    +0.010 A 
ATOM     24  C   UNL     1      -0.937  -0.541  24.625  0.00  0.00    +0.068 A 
ATOM     25  C   UNL     1      -0.711  -0.841  25.359  0.00  0.00    +0.010 A 
ATOM     26  C   UNL     1      -1.235  -0.813  25.996  0.00  0.00    +0.001 A 
ATOM     27  C   UNL     1      -1.986  -0.484  25.898  0.00  0.00    +0.000 A 
BRANCH  24  28
ATOM     28  C   UNL     1      -0.413  -0.570  23.988  0.00  0.00    +0.100 C 
ATOM     29  N   UNL     1       0.112  -0.598  23.352  0.00  0.00    -0.191 NA
ENDBRANCH  24  28
ENDBRANCH  17  22
BRANCH   8   7
ATOM      7  C   UNL     1      -2.994   2.136  25.027  0.00  0.00    +0.099 C 
BRANCH   7   6
ATOM      3  C   UNL     1      -1.374   4.005  25.126  0.00  0.00    +0.139 A 
ATOM      4  C   UNL     1      -1.791   3.785  25.802  0.00  0.00    +0.037 A 
ATOM      5  C   UNL     1      -2.332   3.162  25.770  0.00  0.00    +0.000 A 
ATOM      6  C   UNL     1      -2.454   2.759  25.060  0.00  0.00    -0.006 A 
ATOM     30  C   UNL     1      -2.037   2.979  24.384  0.00  0.00    +0.000 A 
ATOM     31  C   UNL     1      -1.497   3.602  24.416  0.00  0.00    +0.037 A 
BRANCH   3   2
ATOM      1  C   UNL     1      -1.078   5.396  24.985  0.00  0.00    +0.252 C 
ATOM      2  O   UNL     1      -0.834   4.628  25.159  0.00  0.00    -0.471 OA
ENDBRANCH   3   2
ENDBRANCH   7   6
ENDBRANCH   8   7
TORSDOF 5
ENDMDL
MODEL 6
REMARK VINA RESULT:     -12.9      1.547      4.548
REMARK  Name = 
REMARK  5 active torsions:
REMARK  status: ('A' for Active; 'I' for Inactive)
REMARK    1  A    between atoms: O_2  and  C_3
REMARK    2  A    between atoms: C_6  and  C_7
REMARK    3  A    between atoms: C_7  and  N_8
REMARK    4  A    between atoms: C_17  and  C_22
REMARK    5  A    between atoms: C_24  and  C_28
REMARK                            x       y       z     vdW  Elec       q    Type
REMARK                         _______ _______ _______ _____ _____    ______ ____
ROOT
ATOM      8  N   UNL     1      -1.534   2.108  24.506  0.00  0.00    -0.269 NA
ATOM      9  C   UNL     1      -0.972   2.694  24.308  0.00  0.00    +0.074 C 
ATOM     10  C   UNL     1      -0.160   2.133  24.252  0.00  0.00    +0.039 C 
ATOM     11  C   UNL     1       0.586   1.817  24.168  0.00  0.00    +0.011 C 
ATOM     12  C   UNL     1      -0.059   1.589  24.323  0.00  0.00    +0.054 C 
ATOM     13  C   UNL     1      -0.835   2.144  24.373  0.00  0.00    +0.078 C 
ATOM     14  C   UNL     1      -0.522   0.823  24.532  0.00  0.00    +0.041 A 
ATOM     15  C   UNL     1      -0.405   0.014  24.643  0.00  0.00    +0.013 A 
ATOM     16  C   UNL     1      -1.042  -0.472  24.838  0.00  0.00    +0.006 A 
ATOM     17  C   UNL     1      -1.797  -0.149  24.922  0.00  0.00    +0.056 A 
ATOM     18  C   UNL     1      -1.914   0.660  24.811  0.00  0.00    +0.261 A 
ATOM     19  O   UNL     1      -2.669   0.983  24.896  0.00  0.00    -0.267 OA
ATOM     20  N   UNL     1      -1.277   1.146  24.616  0.00  0.00    -0.299 N 
ATOM     21  C   UNL     1      -0.652   1.338  24.471  0.00  0.00    +0.110 C 
ENDROOT
BRANCH  17  22
ATOM     22  C   UNL     1      -2.434  -0.635  25.118  0.00  0.00    +0.005 A 
ATOM     23  C   UNL     1      -2.865  -1.008  24.521  0.00  0.00    +0.010 A 
ATOM     24  C   UNL     1      -3.502  -1.495  24.716  0.00  0.00    +0.068 A 
ATOM     25  C   UNL     1      -3.708  -1.609  25.506  0.00  0.00    +0.010 A 
ATOM     26  C   UNL     1      -3.277  -1.236  26.103  0.00  0.00    +0.001 A 
ATOM     27  C   UNL     1      -2.639  -0.749  25.908  0.00  0.00    +0.000 A 
BRANCH  24  28
ATOM     28  C   UNL     1      -3.934  -1.867  24.119  0.00  0.00    +0.100 C 
ATOM     29  N   UNL     1      -4.366  -2.240  23.523  0.00  0.00    -0.191 NA
ENDBRANCH  24  28
ENDBRANCH  17  22
BRANCH   8   7
ATOM      7  C   UNL     1      -2.265   1.775  24.693  0.00  0.00    +0.099 C 
BRANCH   7   6
ATOM      3  C   UNL     1      -4.273   3.212  24.858  0.00  0.00    +0.139 A 
ATOM      4  C   UNL     1      -3.762   3.143  25.501  0.00  0.00    +0.037 A 
ATOM      5  C   UNL     1      -3.092   2.664  25.446  0.00  0.00    +0.000 A 
ATOM      6  C   UNL     1      -2.934   2.254  24.748  0.00  0.00    -0.006 A 
ATOM     30  C   UNL     1      -3.446   2.323  24.105  0.00  0.00    +0.000 A 
ATOM     31  C   UNL     1      -4.116   2.803  24.159  0.00  0.00    +0.037 A 
BRANCH   3   2
ATOM      1  C   UNL     1      -5.468   3.597  25.541  0.00  0.00    +0.252 C 
ATOM      2  O   UNL     1      -4.942   3.692  24.913  0.00  0.00    -0.471 OA
ENDBRANCH   3   2
ENDBRANCH   7   6
ENDBRANCH   8   7
TORSDOF 5
ENDMDL
