MODEL 1
REMARK VINA RESULT:     -11.6      0.000      0.000
REMARK  Name = 
REMARK  5 active torsions:
REMARK  status: ('A' for Active; 'I' for Inactive)
REMARK    1  A    between atoms: C_5  and  C_6
REMARK    2  A    between atoms: C_6  and  C_7
REMARK    3  A    between atoms: C_16  and  C_17
REMARK    4  A    between atoms: C_17  and  N_18
REMARK    5  A    between atoms: N_21  and  C_22
REMARK                            x       y       z     vdW  Elec       q    Type
REMARK                         _______ _______ _______ _____ _____    ______ ____
ROOT
ATOM      1  O   UNL     1      -5.940   2.532  25.362  0.00  0.00    -0.218 OA
ATOM      2  C   UNL     1      -5.121   2.628  25.329  0.00  0.00    +0.213 C 
ATOM      3  C   UNL     1      -4.711   3.340  25.407  0.00  0.00    +0.212 C 
ATOM      4  O   UNL     1      -5.050   4.082  25.532  0.00  0.00    -0.218 OA
ATOM      5  C   UNL     1      -3.905   3.179  25.338  0.00  0.00    +0.157 C 
ATOM     15  O   UNL     1      -3.816   2.368  25.217  0.00  0.00    -0.351 OA
ATOM     16  C   UNL     1      -4.567   2.027  25.212  0.00  0.00    +0.170 C 
ENDROOT
BRANCH   5   6
ATOM      6  C   UNL     1      -3.295   3.734  25.382  0.00  0.00    +0.117 C 
BRANCH   6   7
ATOM      7  C   UNL     1      -2.510   3.483  25.383  0.00  0.00    +0.228 C 
ATOM      8  O   UNL     1      -2.329   2.690  25.523  0.00  0.00    -0.275 OA
ATOM      9  N   UNL     1      -1.903   4.025  25.245  0.00  0.00    -0.274 N 
ATOM     10  C   UNL     1      -1.117   3.775  25.246  0.00  0.00    +0.125 C 
ATOM     11  C   UNL     1      -0.511   4.317  25.107  0.00  0.00    +0.164 C 
ATOM     12  O   UNL     1      -0.691   5.109  24.967  0.00  0.00    -0.350 OA
ATOM     13  C   UNL     1      -1.477   5.360  24.966  0.00  0.00    +0.164 C 
ATOM     14  C   UNL     1      -2.083   4.818  25.105  0.00  0.00    +0.125 C 
ENDBRANCH   6   7
ENDBRANCH   5   6
BRANCH  16  17
ATOM     17  C   UNL     1      -4.736   1.226  25.107  0.00  0.00    +0.149 C 
BRANCH  17  18
ATOM     18  N   UNL     1      -4.331   0.791  24.535  0.00  0.00    -0.184 NA
ATOM     19  C   UNL     1      -4.233  -0.022  24.629  0.00  0.00    +0.344 C 
ATOM     20  O   UNL     1      -4.539  -0.400  25.294  0.00  0.00    -0.249 OA
ATOM     21  N   UNL     1      -3.827  -0.458  24.057  0.00  0.00    -0.161 NA
BRANCH  21  22
ATOM     22  C   UNL     1      -3.729  -1.271  24.151  0.00  0.00    +0.077 A 
ATOM     23  C   UNL     1      -4.294  -1.792  23.848  0.00  0.00    +0.017 A 
ATOM     24  C   UNL     1      -4.195  -2.606  23.942  0.00  0.00    +0.004 A 
ATOM     25  C   UNL     1      -3.535  -2.899  24.338  0.00  0.00    +0.030 A 
ATOM     26  C   UNL     1      -2.971  -2.378  24.641  0.00  0.00    +0.141 A 
ATOM     27  F   UNL     1      -2.309  -2.671  25.038  0.00  0.00    -0.204 F 
ATOM     28  C   UNL     1      -3.069  -1.564  24.547  0.00  0.00    +0.046 A 
ENDBRANCH  21  22
ENDBRANCH  17  18
ENDBRANCH  16  17
TORSDOF 5
ENDMDL
MODEL 2
REMARK VINA RESULT:     -10.4      1.965      5.480
REMARK  Name = 
REMARK  5 active torsions:
REMARK  status: ('A' for Active; 'I' for Inactive)
REMARK    1  A    between atoms: C_5  and  C_6
REMARK    2  A    between atoms: C_6  and  C_7
REMARK    3  A    between atoms: C_16  and  C_17
REMARK    4  A    between atoms: C_17  and  N_18
REMARK    5  A    between atoms: N_21  and  C_22
REMARK                            x       y       z     vdW  Elec       q    Type
REMARK                         _______ _______ _______ _____ _____    ______ ____
ROOT
ATOM      1  O   UNL     1      -5.862   2.573  25.201  0.00  0.00    -0.218 OA
ATOM      2  C   UNL     1      -5.339   1.966  25.006  0.00  0.00    +0.213 C 
ATOM      3  C   UNL     1      -5.519   1.161  24.975  0.00  0.00    +0.212 C 
ATOM      4  O   UNL     1      -6.254   0.823  25.135  0.00  0.00    -0.218 OA
ATOM      5  C   UNL     1      -4.835   0.755  24.756  0.00  0.00    +0.157 C 
ATOM     15  O   UNL     1      -4.232   1.309  24.652  0.00  0.00    -0.351 OA
ATOM     16  C   UNL     1      -4.544   2.056  24.806  0.00  0.00    +0.170 C 
ENDROOT
BRANCH   5   6
ATOM      6  C   UNL     1      -4.767  -0.062  24.660  0.00  0.00    +0.117 C 
BRANCH   6   7
ATOM      7  C   UNL     1      -4.151  -0.471  25.026  0.00  0.00    +0.228 C 
ATOM      8  O   UNL     1      -3.760  -0.136  25.670  0.00  0.00    -0.275 OA
ATOM      9  N   UNL     1      -3.927  -1.215  24.749  0.00  0.00    -0.274 N 
ATOM     10  C   UNL     1      -3.312  -1.624  25.115  0.00  0.00    +0.125 C 
ATOM     11  C   UNL     1      -3.088  -2.368  24.838  0.00  0.00    +0.164 C 
ATOM     12  O   UNL     1      -3.480  -2.703  24.195  0.00  0.00    -0.350 OA
ATOM     13  C   UNL     1      -4.096  -2.294  23.827  0.00  0.00    +0.164 C 
ATOM     14  C   UNL     1      -4.319  -1.550  24.105  0.00  0.00    +0.125 C 
ENDBRANCH   6   7
ENDBRANCH   5   6
BRANCH  16  17
ATOM     17  C   UNL     1      -4.132   2.771  24.767  0.00  0.00    +0.149 C 
BRANCH  17  18
ATOM     18  N   UNL     1      -3.458   2.883  25.229  0.00  0.00    -0.184 NA
ATOM     19  C   UNL     1      -2.879   3.420  24.989  0.00  0.00    +0.344 C 
ATOM     20  O   UNL     1      -2.975   3.844  24.289  0.00  0.00    -0.249 OA
ATOM     21  N   UNL     1      -2.205   3.533  25.452  0.00  0.00    -0.161 NA
BRANCH  21  22
ATOM     22  C   UNL     1      -1.626   4.070  25.212  0.00  0.00    +0.077 A 
ATOM     23  C   UNL     1      -0.917   3.795  24.891  0.00  0.00    +0.017 A 
ATOM     24  C   UNL     1      -0.338   4.332  24.651  0.00  0.00    +0.004 A 
ATOM     25  C   UNL     1      -0.468   5.142  24.731  0.00  0.00    +0.030 A 
ATOM     26  C   UNL     1      -1.177   5.417  25.052  0.00  0.00    +0.141 A 
ATOM     27  F   UNL     1      -1.307   6.227  25.133  0.00  0.00    -0.204 F 
ATOM     28  C   UNL     1      -1.756   4.879  25.292  0.00  0.00    +0.046 A 
ENDBRANCH  21  22
ENDBRANCH  17  18
ENDBRANCH  16  17
TORSDOF 5
ENDMDL
MODEL 3
REMARK VINA RESULT:     -10.2      1.612      2.986
REMARK  Name = 
REMARK  5 active torsions:
REMARK  status: ('A' for Active; 'I' for Inactive)
REMARK    1  A    between atoms: C_5  and  C_6
REMARK    2  A    between atoms: C_6  and  C_7
REMARK    3  A    between atoms: C_16  and  C_17
REMARK    4  A    between atoms: C_17  and  N_18
REMARK    5  A    between atoms: N_21  and  C_22
REMARK                            x       y       z     vdW  Elec       q    Type
REMARK                         _______ _______ _______ _____ _____    ______ ____
ROOT
ATOM      1  O   UNL     1       0.277   1.627  25.398  0.00  0.00    -0.218 OA
ATOM      2  C   UNL     1      -0.507   1.878  25.348  0.00  0.00    +0.213 C 
ATOM      3  C   UNL     1      -0.770   2.660  25.386  0.00  0.00    +0.212 C 
ATOM      4  O   UNL     1      -0.294   3.326  25.481  0.00  0.00    -0.218 OA
ATOM      5  C   UNL     1      -1.592   2.656  25.313  0.00  0.00    +0.157 C 
ATOM     15  O   UNL     1      -1.837   1.873  25.230  0.00  0.00    -0.351 OA
ATOM     16  C   UNL     1      -1.167   1.392  25.252  0.00  0.00    +0.170 C 
ENDROOT
BRANCH   5   6
ATOM      6  C   UNL     1      -2.082   3.320  25.321  0.00  0.00    +0.117 C 
BRANCH   6   7
ATOM      7  C   UNL     1      -2.728   3.363  24.811  0.00  0.00    +0.228 C 
ATOM      8  O   UNL     1      -2.630   3.202  24.008  0.00  0.00    -0.275 OA
ATOM      9  N   UNL     1      -3.472   3.566  25.103  0.00  0.00    -0.274 N 
ATOM     10  C   UNL     1      -4.118   3.609  24.592  0.00  0.00    +0.125 C 
ATOM     11  C   UNL     1      -4.863   3.812  24.884  0.00  0.00    +0.164 C 
ATOM     12  O   UNL     1      -4.960   3.973  25.687  0.00  0.00    -0.350 OA
ATOM     13  C   UNL     1      -4.314   3.931  26.198  0.00  0.00    +0.164 C 
ATOM     14  C   UNL     1      -3.570   3.727  25.906  0.00  0.00    +0.125 C 
ENDBRANCH   6   7
ENDBRANCH   5   6
BRANCH  16  17
ATOM     17  C   UNL     1      -1.158   0.569  25.188  0.00  0.00    +0.149 C 
BRANCH  17  18
ATOM     18  N   UNL     1      -1.764   0.123  25.526  0.00  0.00    -0.184 NA
ATOM     19  C   UNL     1      -2.107  -0.494  25.101  0.00  0.00    +0.344 C 
ATOM     20  O   UNL     1      -1.845  -0.666  24.339  0.00  0.00    -0.249 OA
ATOM     21  N   UNL     1      -2.714  -0.941  25.439  0.00  0.00    -0.161 NA
BRANCH  21  22
ATOM     22  C   UNL     1      -3.057  -1.559  25.014  0.00  0.00    +0.077 A 
ATOM     23  C   UNL     1      -2.749  -2.322  25.075  0.00  0.00    +0.017 A 
ATOM     24  C   UNL     1      -3.092  -2.940  24.649  0.00  0.00    +0.004 A 
ATOM     25  C   UNL     1      -3.742  -2.795  24.163  0.00  0.00    +0.030 A 
ATOM     26  C   UNL     1      -4.050  -2.033  24.102  0.00  0.00    +0.141 A 
ATOM     27  F   UNL     1      -4.700  -1.888  23.616  0.00  0.00    -0.204 F 
ATOM     28  C   UNL     1      -3.707  -1.414  24.528  0.00  0.00    +0.046 A 
ENDBRANCH  21  22
ENDBRANCH  17  18
ENDBRANCH  16  17
TORSDOF 5
ENDMDL
MODEL 4
REMARK VINA RESULT:      -9.9      2.746      6.266
REMARK  Name = 
REMARK  5 active torsions:
REMARK  status: ('A' for Active; 'I' for Inactive)
REMARK    1  A    between atoms: C_5  and  C_6
REMARK    2  A    between atoms: C_6  and  C_7
REMARK    3  A    between atoms: C_16  and  C_17
REMARK    4  A    between atoms: C_17  and  N_18
REMARK    5  A    between atoms: N_21  and  C_22
REMARK                            x       y       z     vdW  Elec       q    Type
REMARK                         _______ _______ _______ _____ _____    ______ ____
ROOT
ATOM      1  O   UNL     1       0.908   0.444  23.277  0.00  0.00    -0.218 OA
ATOM      2  C   UNL     1       0.240   0.187  23.688  0.00  0.00    +0.213 C 
ATOM      3  C   UNL     1       0.066  -0.593  23.892  0.00  0.00    +0.212 C 
ATOM      4  O   UNL     1       0.530  -1.253  23.720  0.00  0.00    -0.218 OA
ATOM      5  C   UNL     1      -0.653  -0.596  24.297  0.00  0.00    +0.157 C 
ATOM     15  O   UNL     1      -0.923   0.182  24.343  0.00  0.00    -0.351 OA
ATOM     16  C   UNL     1      -0.371   0.666  23.967  0.00  0.00    +0.170 C 
ENDROOT
BRANCH   5   6
ATOM      6  C   UNL     1      -1.035  -1.262  24.601  0.00  0.00    +0.117 C 
BRANCH   6   7
ATOM      7  C   UNL     1      -1.646  -1.172  25.147  0.00  0.00    +0.228 C 
ATOM      8  O   UNL     1      -1.576  -0.624  25.759  0.00  0.00    -0.275 OA
ATOM      9  N   UNL     1      -2.328  -1.632  25.082  0.00  0.00    -0.274 N 
ATOM     10  C   UNL     1      -2.940  -1.543  25.628  0.00  0.00    +0.125 C 
ATOM     11  C   UNL     1      -3.622  -2.003  25.562  0.00  0.00    +0.164 C 
ATOM     12  O   UNL     1      -3.692  -2.551  24.950  0.00  0.00    -0.350 OA
ATOM     13  C   UNL     1      -3.080  -2.640  24.403  0.00  0.00    +0.164 C 
ATOM     14  C   UNL     1      -2.398  -2.180  24.470  0.00  0.00    +0.125 C 
ENDBRANCH   6   7
ENDBRANCH   5   6
BRANCH  16  17
ATOM     17  C   UNL     1      -0.422   1.486  23.884  0.00  0.00    +0.149 C 
BRANCH  17  18
ATOM     18  N   UNL     1      -0.358   1.972  24.548  0.00  0.00    -0.184 NA
ATOM     19  C   UNL     1      -0.756   2.694  24.569  0.00  0.00    +0.344 C 
ATOM     20  O   UNL     1      -1.216   2.930  23.928  0.00  0.00    -0.249 OA
ATOM     21  N   UNL     1      -0.692   3.180  25.234  0.00  0.00    -0.161 NA
BRANCH  21  22
ATOM     22  C   UNL     1      -1.090   3.902  25.255  0.00  0.00    +0.077 A 
ATOM     23  C   UNL     1      -0.745   4.573  24.918  0.00  0.00    +0.017 A 
ATOM     24  C   UNL     1      -1.143   5.295  24.939  0.00  0.00    +0.004 A 
ATOM     25  C   UNL     1      -1.884   5.348  25.296  0.00  0.00    +0.030 A 
ATOM     26  C   UNL     1      -2.229   4.678  25.632  0.00  0.00    +0.141 A 
ATOM     27  F   UNL     1      -2.971   4.731  25.990  0.00  0.00    -0.204 F 
ATOM     28  C   UNL     1      -1.831   3.955  25.611  0.00  0.00    +0.046 A 
ENDBRANCH  21  22
ENDBRANCH  17  18
ENDBRANCH  16  17
TORSDOF 5
ENDMDL
MODEL 5
REMARK VINA RESULT:      -9.8      2.662      4.709
REMARK  Name = 
REMARK  5 active torsions:
REMARK  status: ('A' for Active; 'I' for Inactive)
REMARK    1  A    between atoms: C_5  and  C_6
REMARK    2  A    between atoms: C_6  and  C_7
REMARK    3  A    between atoms: C_16  and  C_17
REMARK    4  A    between atoms: C_17  and  N_18
REMARK    5  A    between atoms: N_21  and  C_22
REMARK                            x       y       z     vdW  Elec       q    Type
REMARK                         _______ _______ _______ _____ _____    ______ ____
ROOT
ATOM      1  O   UNL     1      -3.501  -2.545  24.837  0.00  0.00    -0.218 OA
ATOM      2  C   UNL     1      -2.939  -1.947  24.760  0.00  0.00    +0.213 C 
ATOM      3  C   UNL     1      -2.128  -2.054  24.647  0.00  0.00    +0.212 C 
ATOM      4  O   UNL     1      -1.739  -2.779  24.591  0.00  0.00    -0.218 OA
ATOM      5  C   UNL     1      -1.777  -1.309  24.600  0.00  0.00    +0.157 C 
ATOM     15  O   UNL     1      -2.370  -0.742  24.684  0.00  0.00    -0.351 OA
ATOM     16  C   UNL     1      -3.087  -1.136  24.782  0.00  0.00    +0.170 C 
ENDROOT
BRANCH   5   6
ATOM      6  C   UNL     1      -0.973  -1.159  24.489  0.00  0.00    +0.117 C 
BRANCH   6   7
ATOM      7  C   UNL     1      -0.660  -0.421  24.684  0.00  0.00    +0.228 C 
ATOM      8  O   UNL     1      -0.908  -0.036  25.370  0.00  0.00    -0.275 OA
ATOM      9  N   UNL     1      -0.099  -0.067  24.192  0.00  0.00    -0.274 N 
ATOM     10  C   UNL     1       0.213   0.670  24.387  0.00  0.00    +0.125 C 
ATOM     11  C   UNL     1       0.774   1.024  23.895  0.00  0.00    +0.164 C 
ATOM     12  O   UNL     1       1.021   0.639  23.209  0.00  0.00    -0.350 OA
ATOM     13  C   UNL     1       0.709  -0.099  23.014  0.00  0.00    +0.164 C 
ATOM     14  C   UNL     1       0.148  -0.452  23.506  0.00  0.00    +0.125 C 
ENDBRANCH   6   7
ENDBRANCH   5   6
BRANCH  16  17
ATOM     17  C   UNL     1      -3.826  -0.781  24.886  0.00  0.00    +0.149 C 
BRANCH  17  18
ATOM     18  N   UNL     1      -4.005  -0.080  24.489  0.00  0.00    -0.184 NA
ATOM     19  C   UNL     1      -4.411   0.522  24.880  0.00  0.00    +0.344 C 
ATOM     20  O   UNL     1      -4.638   0.423  25.666  0.00  0.00    -0.249 OA
ATOM     21  N   UNL     1      -4.591   1.223  24.483  0.00  0.00    -0.161 NA
BRANCH  21  22
ATOM     22  C   UNL     1      -4.997   1.825  24.874  0.00  0.00    +0.077 A 
ATOM     23  C   UNL     1      -5.815   1.772  24.974  0.00  0.00    +0.017 A 
ATOM     24  C   UNL     1      -6.221   2.374  25.365  0.00  0.00    +0.004 A 
ATOM     25  C   UNL     1      -5.812   3.028  25.655  0.00  0.00    +0.030 A 
ATOM     26  C   UNL     1      -4.995   3.081  25.555  0.00  0.00    +0.141 A 
ATOM     27  F   UNL     1      -4.585   3.735  25.846  0.00  0.00    -0.204 F 
ATOM     28  C   UNL     1      -4.588   2.479  25.164  0.00  0.00    +0.046 A 
ENDBRANCH  21  22
ENDBRANCH  17  18
ENDBRANCH  16  17
TORSDOF 5
ENDMDL
MODEL 6
REMARK VINA RESULT:      -8.6     15.859     18.988
REMARK  Name = 
REMARK  5 active torsions:
REMARK  status: ('A' for Active; 'I' for Inactive)
REMARK    1  A    between atoms: C_5  and  C_6
REMARK    2  A    between atoms: C_6  and  C_7
REMARK    3  A    between atoms: C_16  and  C_17
REMARK    4  A    between atoms: C_17  and  N_18
REMARK    5  A    between atoms: N_21  and  C_22
REMARK                            x       y       z     vdW  Elec       q    Type
REMARK                         _______ _______ _______ _____ _____    ______ ____
ROOT
ATOM      1  O   UNL     1      12.477   7.519  17.217  0.00  0.00    -0.218 OA
ATOM      2  C   UNL     1      13.098   7.406  17.748  0.00  0.00    +0.213 C 
ATOM      3  C   UNL     1      13.899   7.352  17.556  0.00  0.00    +0.212 C 
ATOM      4  O   UNL     1      14.218   7.402  16.797  0.00  0.00    -0.218 OA
ATOM      5  C   UNL     1      14.322   7.240  18.255  0.00  0.00    +0.157 C 
ATOM     15  O   UNL     1      13.783   7.225  18.880  0.00  0.00    -0.351 OA
ATOM     16  C   UNL     1      13.027   7.327  18.567  0.00  0.00    +0.170 C 
ENDROOT
BRANCH   5   6
ATOM      6  C   UNL     1      15.141   7.158  18.318  0.00  0.00    +0.117 C 
BRANCH   6   7
ATOM      7  C   UNL     1      15.532   7.426  18.993  0.00  0.00    +0.228 C 
ATOM      8  O   UNL     1      15.298   8.131  19.352  0.00  0.00    -0.275 OA
ATOM      9  N   UNL     1      16.156   6.989  19.309  0.00  0.00    -0.274 N 
ATOM     10  C   UNL     1      16.547   7.257  19.984  0.00  0.00    +0.125 C 
ATOM     11  C   UNL     1      17.172   6.821  20.300  0.00  0.00    +0.164 C 
ATOM     12  O   UNL     1      17.405   6.116  19.940  0.00  0.00    -0.350 OA
ATOM     13  C   UNL     1      17.014   5.847  19.265  0.00  0.00    +0.164 C 
ATOM     14  C   UNL     1      16.390   6.285  18.949  0.00  0.00    +0.125 C 
ENDBRANCH   6   7
ENDBRANCH   5   6
BRANCH  16  17
ATOM     17  C   UNL     1      12.322   7.347  18.997  0.00  0.00    +0.149 C 
BRANCH  17  18
ATOM     18  N   UNL     1      12.307   7.074  19.775  0.00  0.00    -0.184 NA
ATOM     19  C   UNL     1      11.791   7.415  20.321  0.00  0.00    +0.344 C 
ATOM     20  O   UNL     1      11.292   8.028  20.089  0.00  0.00    -0.249 OA
ATOM     21  N   UNL     1      11.776   7.142  21.100  0.00  0.00    -0.161 NA
BRANCH  21  22
ATOM     22  C   UNL     1      11.260   7.483  21.645  0.00  0.00    +0.077 A 
ATOM     23  C   UNL     1      10.491   7.193  21.723  0.00  0.00    +0.017 A 
ATOM     24  C   UNL     1       9.975   7.535  22.269  0.00  0.00    +0.004 A 
ATOM     25  C   UNL     1      10.227   8.165  22.736  0.00  0.00    +0.030 A 
ATOM     26  C   UNL     1      10.995   8.455  22.659  0.00  0.00    +0.141 A 
ATOM     27  F   UNL     1      11.248   9.086  23.127  0.00  0.00    -0.204 F 
ATOM     28  C   UNL     1      11.512   8.114  22.113  0.00  0.00    +0.046 A 
ENDBRANCH  21  22
ENDBRANCH  17  18
ENDBRANCH  16  17
TORSDOF 5
ENDMDL
