MODEL 1
REMARK VINA RESULT:      -9.1      0.000      0.000
REMARK  Name = 
REMARK  2 active torsions:
REMARK  status: ('A' for Active; 'I' for Inactive)
REMARK    1  A    between atoms: N_6  and  C_7
REMARK    2  A    between atoms: C_7  and  C_8
REMARK                            x       y       z     vdW  Elec       q    Type
REMARK                         _______ _______ _______ _____ _____    ______ ____
ROOT
ATOM      1  C   UNL     1      -1.028  -1.291  24.603  0.00  0.00    +0.117 C 
ATOM      2  N   UNL     1      -0.830  -0.499  24.721  0.00  0.00    -0.261 N 
ATOM      3  C   UNL     1      -1.064  -0.030  25.358  0.00  0.00    +0.116 C 
ATOM      4  C   UNL     1      -0.742   0.722  25.253  0.00  0.00    +0.113 C 
ATOM      5  C   UNL     1      -0.786   1.410  25.705  0.00  0.00    +0.094 C 
ATOM      6  N   UNL     1      -0.398   2.094  25.456  0.00  0.00    -0.265 NA
ATOM     15  C   UNL     1       0.035   2.089  24.754  0.00  0.00    +0.094 C 
ATOM     16  C   UNL     1       0.080   1.402  24.301  0.00  0.00    +0.112 C 
ATOM     17  N   UNL     1      -0.309   0.717  24.550  0.00  0.00    -0.261 N 
ATOM     18  C   UNL     1      -0.363  -0.037  24.222  0.00  0.00    +0.307 C 
ATOM     19  O   UNL     1      -0.013  -0.286  23.517  0.00  0.00    -0.252 OA
ENDROOT
BRANCH   6   7
ATOM      7  C   UNL     1      -0.442   2.782  25.908  0.00  0.00    +0.119 C 
BRANCH   7   8
ATOM      8  C   UNL     1      -0.949   3.392  25.683  0.00  0.00    +0.075 A 
ATOM      9  N   UNL     1      -1.734   3.394  25.940  0.00  0.00    -0.253 NA
ATOM     10  C   UNL     1      -2.240   4.004  25.714  0.00  0.00    +0.059 A 
ATOM     11  C   UNL     1      -3.025   4.006  25.971  0.00  0.00    +0.052 C 
ATOM     12  C   UNL     1      -1.963   4.614  25.232  0.00  0.00    +0.015 A 
ATOM     13  C   UNL     1      -1.179   4.613  24.976  0.00  0.00    +0.002 A 
ATOM     14  C   UNL     1      -0.672   4.002  25.201  0.00  0.00    +0.016 A 
ENDBRANCH   7   8
ENDBRANCH   6   7
TORSDOF 2
ENDMDL
MODEL 2
REMARK VINA RESULT:      -8.9      2.652      4.868
REMARK  Name = 
REMARK  2 active torsions:
REMARK  status: ('A' for Active; 'I' for Inactive)
REMARK    1  A    between atoms: N_6  and  C_7
REMARK    2  A    between atoms: C_7  and  C_8
REMARK                            x       y       z     vdW  Elec       q    Type
REMARK                         _______ _______ _______ _____ _____    ______ ____
ROOT
ATOM      1  C   UNL     1      -2.445   4.217  25.555  0.00  0.00    +0.117 C 
ATOM      2  N   UNL     1      -2.794   3.524  25.274  0.00  0.00    -0.261 N 
ATOM      3  C   UNL     1      -2.417   2.933  24.839  0.00  0.00    +0.116 C 
ATOM      4  C   UNL     1      -2.971   2.344  24.676  0.00  0.00    +0.113 C 
ATOM      5  C   UNL     1      -2.914   1.630  24.266  0.00  0.00    +0.094 C 
ATOM      6  N   UNL     1      -3.575   1.144  24.191  0.00  0.00    -0.265 NA
ATOM     15  C   UNL     1      -4.294   1.370  24.526  0.00  0.00    +0.094 C 
ATOM     16  C   UNL     1      -4.352   2.083  24.936  0.00  0.00    +0.112 C 
ATOM     17  N   UNL     1      -3.690   2.571  25.011  0.00  0.00    -0.261 N 
ATOM     18  C   UNL     1      -3.581   3.299  25.381  0.00  0.00    +0.307 C 
ATOM     19  O   UNL     1      -4.157   3.729  25.786  0.00  0.00    -0.252 OA
ENDROOT
BRANCH   6   7
ATOM      7  C   UNL     1      -3.518   0.430  23.781  0.00  0.00    +0.119 C 
BRANCH   7   8
ATOM      8  C   UNL     1      -3.428  -0.278  24.194  0.00  0.00    +0.075 A 
ATOM      9  N   UNL     1      -2.673  -0.551  24.386  0.00  0.00    -0.253 NA
ATOM     10  C   UNL     1      -2.582  -1.258  24.800  0.00  0.00    +0.059 A 
ATOM     11  C   UNL     1      -1.828  -1.531  24.992  0.00  0.00    +0.052 C 
ATOM     12  C   UNL     1      -3.247  -1.694  25.021  0.00  0.00    +0.015 A 
ATOM     13  C   UNL     1      -4.002  -1.423  24.829  0.00  0.00    +0.002 A 
ATOM     14  C   UNL     1      -4.092  -0.714  24.415  0.00  0.00    +0.016 A 
ENDBRANCH   7   8
ENDBRANCH   6   7
TORSDOF 2
ENDMDL
MODEL 3
REMARK VINA RESULT:      -8.9      2.371      4.455
REMARK  Name = 
REMARK  2 active torsions:
REMARK  status: ('A' for Active; 'I' for Inactive)
REMARK    1  A    between atoms: N_6  and  C_7
REMARK    2  A    between atoms: C_7  and  C_8
REMARK                            x       y       z     vdW  Elec       q    Type
REMARK                         _______ _______ _______ _____ _____    ______ ____
ROOT
ATOM      1  C   UNL     1       0.120   1.888  24.574  0.00  0.00    +0.117 C 
ATOM      2  N   UNL     1      -0.653   1.603  24.610  0.00  0.00    -0.261 N 
ATOM      3  C   UNL     1      -0.910   0.953  25.048  0.00  0.00    +0.116 C 
ATOM      4  C   UNL     1      -1.721   0.866  24.923  0.00  0.00    +0.113 C 
ATOM      5  C   UNL     1      -2.269   0.321  25.212  0.00  0.00    +0.094 C 
ATOM      6  N   UNL     1      -3.060   0.372  24.986  0.00  0.00    -0.265 NA
ATOM     15  C   UNL     1      -3.304   0.969  24.470  0.00  0.00    +0.094 C 
ATOM     16  C   UNL     1      -2.756   1.514  24.181  0.00  0.00    +0.112 C 
ATOM     17  N   UNL     1      -1.964   1.462  24.408  0.00  0.00    -0.261 N 
ATOM     18  C   UNL     1      -1.305   1.917  24.214  0.00  0.00    +0.307 C 
ATOM     19  O   UNL     1      -1.297   2.573  23.712  0.00  0.00    -0.252 OA
ENDROOT
BRANCH   6   7
ATOM      7  C   UNL     1      -3.609  -0.172  25.274  0.00  0.00    +0.119 C 
BRANCH   7   8
ATOM      8  C   UNL     1      -3.737  -0.881  24.873  0.00  0.00    +0.075 A 
ATOM      9  N   UNL     1      -3.400  -1.581  25.152  0.00  0.00    -0.253 NA
ATOM     10  C   UNL     1      -3.529  -2.289  24.751  0.00  0.00    +0.059 A 
ATOM     11  C   UNL     1      -3.192  -2.989  25.030  0.00  0.00    +0.052 C 
ATOM     12  C   UNL     1      -3.995  -2.299  24.070  0.00  0.00    +0.015 A 
ATOM     13  C   UNL     1      -4.332  -1.601  23.791  0.00  0.00    +0.002 A 
ATOM     14  C   UNL     1      -4.203  -0.891  24.192  0.00  0.00    +0.016 A 
ENDBRANCH   7   8
ENDBRANCH   6   7
TORSDOF 2
ENDMDL
MODEL 4
REMARK VINA RESULT:      -8.8      2.458      3.993
REMARK  Name = 
REMARK  2 active torsions:
REMARK  status: ('A' for Active; 'I' for Inactive)
REMARK    1  A    between atoms: N_6  and  C_7
REMARK    2  A    between atoms: C_7  and  C_8
REMARK                            x       y       z     vdW  Elec       q    Type
REMARK                         _______ _______ _______ _____ _____    ______ ____
ROOT
ATOM      1  C   UNL     1      -5.996   1.894  25.008  0.00  0.00    +0.117 C 
ATOM      2  N   UNL     1      -5.275   2.292  25.057  0.00  0.00    -0.261 N 
ATOM      3  C   UNL     1      -4.621   2.173  24.568  0.00  0.00    +0.116 C 
ATOM      4  C   UNL     1      -4.024   2.686  24.813  0.00  0.00    +0.113 C 
ATOM      5  C   UNL     1      -3.257   2.814  24.536  0.00  0.00    +0.094 C 
ATOM      6  N   UNL     1      -2.775   3.376  24.899  0.00  0.00    -0.265 NA
ATOM     15  C   UNL     1      -3.060   3.811  25.539  0.00  0.00    +0.094 C 
ATOM     16  C   UNL     1      -3.826   3.685  25.817  0.00  0.00    +0.112 C 
ATOM     17  N   UNL     1      -4.308   3.122  25.453  0.00  0.00    -0.261 N 
ATOM     18  C   UNL     1      -5.082   2.878  25.604  0.00  0.00    +0.307 C 
ATOM     19  O   UNL     1      -5.575   3.169  26.198  0.00  0.00    -0.252 OA
ENDROOT
BRANCH   6   7
ATOM      7  C   UNL     1      -2.008   3.503  24.622  0.00  0.00    +0.119 C 
BRANCH   7   8
ATOM      8  C   UNL     1      -1.379   3.071  24.935  0.00  0.00    +0.075 A 
ATOM      9  N   UNL     1      -1.104   2.400  24.542  0.00  0.00    -0.253 NA
ATOM     10  C   UNL     1      -0.475   1.968  24.855  0.00  0.00    +0.059 A 
ATOM     11  C   UNL     1      -0.199   1.297  24.463  0.00  0.00    +0.052 C 
ATOM     12  C   UNL     1      -0.121   2.207  25.561  0.00  0.00    +0.015 A 
ATOM     13  C   UNL     1      -0.395   2.878  25.954  0.00  0.00    +0.002 A 
ATOM     14  C   UNL     1      -1.025   3.311  25.640  0.00  0.00    +0.016 A 
ENDBRANCH   7   8
ENDBRANCH   6   7
TORSDOF 2
ENDMDL
MODEL 5
REMARK VINA RESULT:      -8.8      2.217      2.721
REMARK  Name = 
REMARK  2 active torsions:
REMARK  status: ('A' for Active; 'I' for Inactive)
REMARK    1  A    between atoms: N_6  and  C_7
REMARK    2  A    between atoms: C_7  and  C_8
REMARK                            x       y       z     vdW  Elec       q    Type
REMARK                         _______ _______ _______ _____ _____    ______ ____
ROOT
ATOM      1  C   UNL     1      -0.621  -0.539  24.646  0.00  0.00    +0.117 C 
ATOM      2  N   UNL     1      -1.079   0.128  24.479  0.00  0.00    -0.261 N 
ATOM      3  C   UNL     1      -1.884   0.131  24.299  0.00  0.00    +0.116 C 
ATOM      4  C   UNL     1      -2.114   0.912  24.172  0.00  0.00    +0.113 C 
ATOM      5  C   UNL     1      -2.841   1.250  23.977  0.00  0.00    +0.094 C 
ATOM      6  N   UNL     1      -2.905   2.066  23.883  0.00  0.00    -0.265 NA
ATOM     15  C   UNL     1      -2.242   2.546  23.983  0.00  0.00    +0.094 C 
ATOM     16  C   UNL     1      -1.514   2.210  24.178  0.00  0.00    +0.112 C 
ATOM     17  N   UNL     1      -1.450   1.392  24.272  0.00  0.00    -0.261 N 
ATOM     18  C   UNL     1      -0.811   0.908  24.462  0.00  0.00    +0.307 C 
ATOM     19  O   UNL     1      -0.038   1.158  24.609  0.00  0.00    -0.252 OA
ENDROOT
BRANCH   6   7
ATOM      7  C   UNL     1      -3.633   2.404  23.688  0.00  0.00    +0.119 C 
BRANCH   7   8
ATOM      8  C   UNL     1      -4.148   2.646  24.284  0.00  0.00    +0.075 A 
ATOM      9  N   UNL     1      -4.759   2.149  24.530  0.00  0.00    -0.253 NA
ATOM     10  C   UNL     1      -5.274   2.392  25.126  0.00  0.00    +0.059 A 
ATOM     11  C   UNL     1      -5.885   1.895  25.372  0.00  0.00    +0.052 C 
ATOM     12  C   UNL     1      -5.179   3.133  25.477  0.00  0.00    +0.015 A 
ATOM     13  C   UNL     1      -4.569   3.631  25.232  0.00  0.00    +0.002 A 
ATOM     14  C   UNL     1      -4.053   3.387  24.635  0.00  0.00    +0.016 A 
ENDBRANCH   7   8
ENDBRANCH   6   7
TORSDOF 2
ENDMDL
MODEL 6
REMARK VINA RESULT:      -8.7      2.512      3.216
REMARK  Name = 
REMARK  2 active torsions:
REMARK  status: ('A' for Active; 'I' for Inactive)
REMARK    1  A    between atoms: N_6  and  C_7
REMARK    2  A    between atoms: C_7  and  C_8
REMARK                            x       y       z     vdW  Elec       q    Type
REMARK                         _______ _______ _______ _____ _____    ______ ____
ROOT
ATOM      1  C   UNL     1      -3.593  -2.530  24.637  0.00  0.00    +0.117 C 
ATOM      2  N   UNL     1      -3.468  -1.719  24.558  0.00  0.00    -0.261 N 
ATOM      3  C   UNL     1      -4.008  -1.172  24.255  0.00  0.00    +0.116 C 
ATOM      4  C   UNL     1      -3.655  -0.428  24.277  0.00  0.00    +0.113 C 
ATOM      5  C   UNL     1      -3.924   0.319  24.050  0.00  0.00    +0.094 C 
ATOM      6  N   UNL     1      -3.438   0.978  24.139  0.00  0.00    -0.265 NA
ATOM     15  C   UNL     1      -2.681   0.892  24.455  0.00  0.00    +0.094 C 
ATOM     16  C   UNL     1      -2.410   0.147  24.682  0.00  0.00    +0.112 C 
ATOM     17  N   UNL     1      -2.897  -0.513  24.593  0.00  0.00    -0.261 N 
ATOM     18  C   UNL     1      -2.782  -1.311  24.766  0.00  0.00    +0.307 C 
ATOM     19  O   UNL     1      -2.101  -1.644  25.092  0.00  0.00    -0.252 OA
ENDROOT
BRANCH   6   7
ATOM      7  C   UNL     1      -3.708   1.724  23.912  0.00  0.00    +0.119 C 
BRANCH   7   8
ATOM      8  C   UNL     1      -4.083   2.212  24.461  0.00  0.00    +0.075 A 
ATOM      9  N   UNL     1      -3.646   2.770  24.884  0.00  0.00    -0.253 NA
ATOM     10  C   UNL     1      -4.021   3.258  25.432  0.00  0.00    +0.059 A 
ATOM     11  C   UNL     1      -3.585   3.816  25.855  0.00  0.00    +0.052 C 
ATOM     12  C   UNL     1      -4.834   3.188  25.558  0.00  0.00    +0.015 A 
ATOM     13  C   UNL     1      -5.271   2.631  25.136  0.00  0.00    +0.002 A 
ATOM     14  C   UNL     1      -4.895   2.142  24.587  0.00  0.00    +0.016 A 
ENDBRANCH   7   8
ENDBRANCH   6   7
TORSDOF 2
ENDMDL
