MODEL 1
REMARK VINA RESULT:     -12.2      0.000      0.000
REMARK  Name = 
REMARK  7 active torsions:
REMARK  status: ('A' for Active; 'I' for Inactive)
REMARK    1  A    between atoms: O_2  and  C_3
REMARK    2  A    between atoms: C_3  and  C_5
REMARK    3  A    between atoms: C_18  and  N_30
REMARK    4  A    between atoms: C_20  and  C_22
REMARK    5  A    between atoms: C_24  and  O_25
REMARK    6  A    between atoms: N_30  and  C_31
REMARK    7  A    between atoms: C_31  and  C_32
REMARK                            x       y       z     vdW  Elec       q    Type
REMARK                         _______ _______ _______ _____ _____    ______ ____
ROOT
ATOM      5  C   UNL     1      -3.640   0.952  24.521  0.00  0.00    +0.162 C 
ATOM      6  C   UNL     1      -3.949   0.192  24.440  0.00  0.00    +0.055 C 
ATOM      7  C   UNL     1      -3.445  -0.461  24.442  0.00  0.00    -0.004 A 
ATOM      8  C   UNL     1      -2.631  -0.354  24.525  0.00  0.00    +0.070 A 
ATOM      9  N   UNL     1      -2.273  -1.097  24.507  0.00  0.00    -0.249 NA
ATOM     10  C   UNL     1      -2.865  -1.664  24.413  0.00  0.00    +0.081 A 
ATOM     11  C   UNL     1      -3.590  -1.270  24.373  0.00  0.00    +0.015 A 
ATOM     12  C   UNL     1      -4.287  -1.700  24.278  0.00  0.00    +0.001 A 
ATOM     13  C   UNL     1      -4.261  -2.524  24.224  0.00  0.00    +0.000 A 
ATOM     14  C   UNL     1      -3.535  -2.917  24.265  0.00  0.00    +0.002 A 
ATOM     15  C   UNL     1      -2.838  -2.487  24.359  0.00  0.00    +0.019 A 
ATOM     16  C   UNL     1      -2.321   0.407  24.606  0.00  0.00    +0.100 C 
ATOM     17  C   UNL     1      -1.508   0.515  24.689  0.00  0.00    +0.040 C 
ATOM     18  C   UNL     1      -1.199   1.274  24.770  0.00  0.00    +0.076 C 
ATOM     19  C   UNL     1      -1.703   1.927  24.768  0.00  0.00    +0.038 C 
ATOM     20  C   UNL     1      -2.516   1.819  24.685  0.00  0.00    +0.082 C 
ATOM     21  N   UNL     1      -2.826   1.060  24.604  0.00  0.00    -0.258 NA
ENDROOT
BRANCH  20  22
ATOM     22  C   UNL     1      -3.020   2.473  24.683  0.00  0.00    -0.005 A 
ATOM     23  C   UNL     1      -3.203   2.855  25.390  0.00  0.00    +0.034 A 
ATOM     24  C   UNL     1      -3.707   3.509  25.388  0.00  0.00    +0.138 A 
ATOM     27  C   UNL     1      -4.028   3.780  24.677  0.00  0.00    +0.037 A 
ATOM     28  C   UNL     1      -3.844   3.398  23.970  0.00  0.00    +0.003 A 
ATOM     29  C   UNL     1      -3.341   2.744  23.973  0.00  0.00    -0.003 A 
BRANCH  24  25
ATOM     25  O   UNL     1      -3.890   3.891  26.096  0.00  0.00    -0.471 OA
ATOM     26  C   UNL     1      -3.379   4.461  26.400  0.00  0.00    +0.252 C 
ENDBRANCH  24  25
ENDBRANCH  20  22
BRANCH   5   3
ATOM      3  C   UNL     1      -4.144   1.605  24.519  0.00  0.00    +0.332 C 
ATOM      4  O   UNL     1      -4.405   2.355  24.295  0.00  0.00    -0.249 OA
BRANCH   3   2
ATOM      1  C   UNL     1      -5.561   1.474  24.648  0.00  0.00    +0.256 C 
ATOM      2  O   UNL     1      -4.821   1.605  24.990  0.00  0.00    -0.443 OA
ENDBRANCH   3   2
ENDBRANCH   5   3
BRANCH  18  30
ATOM     30  N   UNL     1      -0.385   1.382  24.853  0.00  0.00    -0.217 NA
BRANCH  30  31
ATOM     31  C   UNL     1       0.087   1.495  24.186  0.00  0.00    +0.124 C 
BRANCH  31  32
ATOM     32  C   UNL     1       0.843   1.817  24.264  0.00  0.00    +0.201 C 
ATOM     33  O   UNL     1       1.457   1.548  23.784  0.00  0.00    -0.219 OA
ENDBRANCH  31  32
ENDBRANCH  30  31
ENDBRANCH  18  30
TORSDOF 7
ENDMDL
MODEL 2
REMARK VINA RESULT:     -12.2      1.412      4.067
REMARK  Name = 
REMARK  7 active torsions:
REMARK  status: ('A' for Active; 'I' for Inactive)
REMARK    1  A    between atoms: O_2  and  C_3
REMARK    2  A    between atoms: C_3  and  C_5
REMARK    3  A    between atoms: C_18  and  N_30
REMARK    4  A    between atoms: C_20  and  C_22
REMARK    5  A    between atoms: C_24  and  O_25
REMARK    6  A    between atoms: N_30  and  C_31
REMARK    7  A    between atoms: C_31  and  C_32
REMARK                            x       y       z     vdW  Elec       q    Type
REMARK                         _______ _______ _______ _____ _____    ______ ____
ROOT
ATOM      5  C   UNL     1      -2.738   1.299  25.035  0.00  0.00    +0.162 C 
ATOM      6  C   UNL     1      -2.791   2.113  25.154  0.00  0.00    +0.055 C 
ATOM      7  C   UNL     1      -2.130   2.592  25.036  0.00  0.00    -0.004 A 
ATOM      8  C   UNL     1      -1.414   2.256  24.798  0.00  0.00    +0.070 A 
ATOM      9  N   UNL     1      -0.860   2.862  24.726  0.00  0.00    -0.249 NA
ATOM     10  C   UNL     1      -1.231   3.574  24.918  0.00  0.00    +0.081 A 
ATOM     11  C   UNL     1      -2.017   3.406  25.110  0.00  0.00    +0.015 A 
ATOM     12  C   UNL     1      -2.527   4.016  25.328  0.00  0.00    +0.001 A 
ATOM     13  C   UNL     1      -2.253   4.795  25.354  0.00  0.00    +0.000 A 
ATOM     14  C   UNL     1      -1.467   4.961  25.162  0.00  0.00    +0.002 A 
ATOM     15  C   UNL     1      -0.957   4.351  24.944  0.00  0.00    +0.019 A 
ATOM     16  C   UNL     1      -1.361   1.442  24.678  0.00  0.00    +0.100 C 
ATOM     17  C   UNL     1      -0.647   1.105  24.441  0.00  0.00    +0.040 C 
ATOM     18  C   UNL     1      -0.593   0.291  24.321  0.00  0.00    +0.076 C 
ATOM     19  C   UNL     1      -1.255  -0.187  24.439  0.00  0.00    +0.038 C 
ATOM     20  C   UNL     1      -1.969   0.149  24.677  0.00  0.00    +0.082 C 
ATOM     21  N   UNL     1      -2.023   0.963  24.797  0.00  0.00    -0.258 NA
ENDROOT
BRANCH  20  22
ATOM     22  C   UNL     1      -2.631  -0.330  24.795  0.00  0.00    -0.005 A 
ATOM     23  C   UNL     1      -3.056  -0.614  24.148  0.00  0.00    +0.034 A 
ATOM     24  C   UNL     1      -3.717  -1.094  24.267  0.00  0.00    +0.138 A 
ATOM     27  C   UNL     1      -3.953  -1.288  25.034  0.00  0.00    +0.037 A 
ATOM     28  C   UNL     1      -3.528  -1.004  25.681  0.00  0.00    +0.003 A 
ATOM     29  C   UNL     1      -2.867  -0.525  25.562  0.00  0.00    -0.003 A 
BRANCH  24  25
ATOM     25  O   UNL     1      -4.142  -1.378  23.620  0.00  0.00    -0.471 OA
ATOM     26  C   UNL     1      -4.338  -2.177  23.575  0.00  0.00    +0.252 C 
ENDBRANCH  24  25
ENDBRANCH  20  22
BRANCH   5   3
ATOM      3  C   UNL     1      -3.400   0.821  25.153  0.00  0.00    +0.332 C 
ATOM      4  O   UNL     1      -3.815   0.166  25.433  0.00  0.00    -0.249 OA
BRANCH   3   2
ATOM      1  C   UNL     1      -4.693   1.399  25.339  0.00  0.00    +0.256 C 
ATOM      2  O   UNL     1      -4.132   1.046  24.847  0.00  0.00    -0.443 OA
ENDBRANCH   3   2
ENDBRANCH   5   3
BRANCH  18  30
ATOM     30  N   UNL     1       0.122  -0.045  24.083  0.00  0.00    -0.217 NA
BRANCH  30  31
ATOM     31  C   UNL     1       0.374   0.033  23.301  0.00  0.00    +0.124 C 
BRANCH  31  32
ATOM     32  C   UNL     1       1.119  -0.245  23.079  0.00  0.00    +0.201 C 
ATOM     33  O   UNL     1       1.349  -0.218  22.287  0.00  0.00    -0.219 OA
ENDBRANCH  31  32
ENDBRANCH  30  31
ENDBRANCH  18  30
TORSDOF 7
ENDMDL
MODEL 3
REMARK VINA RESULT:     -11.9      1.370      3.288
REMARK  Name = 
REMARK  7 active torsions:
REMARK  status: ('A' for Active; 'I' for Inactive)
REMARK    1  A    between atoms: O_2  and  C_3
REMARK    2  A    between atoms: C_3  and  C_5
REMARK    3  A    between atoms: C_18  and  N_30
REMARK    4  A    between atoms: C_20  and  C_22
REMARK    5  A    between atoms: C_24  and  O_25
REMARK    6  A    between atoms: N_30  and  C_31
REMARK    7  A    between atoms: C_31  and  C_32
REMARK                            x       y       z     vdW  Elec       q    Type
REMARK                         _______ _______ _______ _____ _____    ______ ____
ROOT
ATOM      5  C   UNL     1      -2.112   0.693  24.818  0.00  0.00    +0.162 C 
ATOM      6  C   UNL     1      -2.203  -0.116  24.692  0.00  0.00    +0.055 C 
ATOM      7  C   UNL     1      -2.953  -0.430  24.551  0.00  0.00    -0.004 A 
ATOM      8  C   UNL     1      -3.612   0.066  24.536  0.00  0.00    +0.070 A 
ATOM      9  N   UNL     1      -4.277  -0.397  24.384  0.00  0.00    -0.249 NA
ATOM     10  C   UNL     1      -4.031  -1.181  24.305  0.00  0.00    +0.081 A 
ATOM     11  C   UNL     1      -3.212  -1.200  24.408  0.00  0.00    +0.015 A 
ATOM     12  C   UNL     1      -2.808  -1.918  24.359  0.00  0.00    +0.001 A 
ATOM     13  C   UNL     1      -3.222  -2.616  24.207  0.00  0.00    +0.000 A 
ATOM     14  C   UNL     1      -4.041  -2.595  24.104  0.00  0.00    +0.002 A 
ATOM     15  C   UNL     1      -4.445  -1.877  24.154  0.00  0.00    +0.019 A 
ATOM     16  C   UNL     1      -3.521   0.877  24.662  0.00  0.00    +0.100 C 
ATOM     17  C   UNL     1      -4.179   1.374  24.647  0.00  0.00    +0.040 C 
ATOM     18  C   UNL     1      -4.088   2.183  24.773  0.00  0.00    +0.076 C 
ATOM     19  C   UNL     1      -3.337   2.497  24.914  0.00  0.00    +0.038 C 
ATOM     20  C   UNL     1      -2.680   2.000  24.929  0.00  0.00    +0.082 C 
ATOM     21  N   UNL     1      -2.771   1.190  24.803  0.00  0.00    -0.258 NA
ENDROOT
BRANCH  20  22
ATOM     22  C   UNL     1      -1.929   2.314  25.070  0.00  0.00    -0.005 A 
ATOM     23  C   UNL     1      -1.531   2.716  24.471  0.00  0.00    +0.034 A 
ATOM     24  C   UNL     1      -0.781   3.030  24.613  0.00  0.00    +0.138 A 
ATOM     27  C   UNL     1      -0.430   2.942  25.355  0.00  0.00    +0.037 A 
ATOM     28  C   UNL     1      -0.829   2.540  25.954  0.00  0.00    +0.003 A 
ATOM     29  C   UNL     1      -1.579   2.226  25.812  0.00  0.00    -0.003 A 
BRANCH  24  25
ATOM     25  O   UNL     1      -0.382   3.432  24.013  0.00  0.00    -0.471 OA
ATOM     26  C   UNL     1      -0.255   4.244  24.075  0.00  0.00    +0.252 C 
ENDBRANCH  24  25
ENDBRANCH  20  22
BRANCH   5   3
ATOM      3  C   UNL     1      -1.362   1.007  24.959  0.00  0.00    +0.332 C 
ATOM      4  O   UNL     1      -0.800   1.473  25.343  0.00  0.00    -0.249 OA
BRANCH   3   2
ATOM      1  C   UNL     1      -0.218   0.180  24.740  0.00  0.00    +0.256 C 
ATOM      2  O   UNL     1      -0.724   0.781  24.487  0.00  0.00    -0.443 OA
ENDBRANCH   3   2
ENDBRANCH   5   3
BRANCH  18  30
ATOM     30  N   UNL     1      -4.746   2.680  24.759  0.00  0.00    -0.217 NA
BRANCH  30  31
ATOM     31  C   UNL     1      -5.034   3.005  25.461  0.00  0.00    +0.124 C 
BRANCH  31  32
ATOM     32  C   UNL     1      -5.768   3.382  25.470  0.00  0.00    +0.201 C 
ATOM     33  O   UNL     1      -5.848   4.120  25.830  0.00  0.00    -0.219 OA
ENDBRANCH  31  32
ENDBRANCH  30  31
ENDBRANCH  18  30
TORSDOF 7
ENDMDL
MODEL 4
REMARK VINA RESULT:     -11.8      1.667      4.856
REMARK  Name = 
REMARK  7 active torsions:
REMARK  status: ('A' for Active; 'I' for Inactive)
REMARK    1  A    between atoms: O_2  and  C_3
REMARK    2  A    between atoms: C_3  and  C_5
REMARK    3  A    between atoms: C_18  and  N_30
REMARK    4  A    between atoms: C_20  and  C_22
REMARK    5  A    between atoms: C_24  and  O_25
REMARK    6  A    between atoms: N_30  and  C_31
REMARK    7  A    between atoms: C_31  and  C_32
REMARK                            x       y       z     vdW  Elec       q    Type
REMARK                         _______ _______ _______ _____ _____    ______ ____
ROOT
ATOM      5  C   UNL     1      -2.285   0.401  24.906  0.00  0.00    +0.162 C 
ATOM      6  C   UNL     1      -1.598   0.855  24.872  0.00  0.00    +0.055 C 
ATOM      7  C   UNL     1      -1.649   1.678  24.848  0.00  0.00    -0.004 A 
ATOM      8  C   UNL     1      -2.386   2.047  24.859  0.00  0.00    +0.070 A 
ATOM      9  N   UNL     1      -2.265   2.862  24.830  0.00  0.00    -0.249 NA
ATOM     10  C   UNL     1      -1.452   2.999  24.802  0.00  0.00    +0.081 A 
ATOM     11  C   UNL     1      -1.071   2.266  24.813  0.00  0.00    +0.015 A 
ATOM     12  C   UNL     1      -0.247   2.230  24.790  0.00  0.00    +0.001 A 
ATOM     13  C   UNL     1       0.197   2.926  24.756  0.00  0.00    +0.000 A 
ATOM     14  C   UNL     1      -0.185   3.658  24.745  0.00  0.00    +0.002 A 
ATOM     15  C   UNL     1      -1.009   3.694  24.768  0.00  0.00    +0.019 A 
ATOM     16  C   UNL     1      -3.074   1.592  24.892  0.00  0.00    +0.100 C 
ATOM     17  C   UNL     1      -3.812   1.960  24.903  0.00  0.00    +0.040 C 
ATOM     18  C   UNL     1      -4.499   1.505  24.937  0.00  0.00    +0.076 C 
ATOM     19  C   UNL     1      -4.448   0.682  24.960  0.00  0.00    +0.038 C 
ATOM     20  C   UNL     1      -3.710   0.314  24.950  0.00  0.00    +0.082 C 
ATOM     21  N   UNL     1      -3.023   0.769  24.916  0.00  0.00    -0.258 NA
ENDROOT
BRANCH  20  22
ATOM     22  C   UNL     1      -3.660  -0.509  24.973  0.00  0.00    -0.005 A 
ATOM     23  C   UNL     1      -3.815  -0.952  24.295  0.00  0.00    +0.034 A 
ATOM     24  C   UNL     1      -3.765  -1.775  24.320  0.00  0.00    +0.138 A 
ATOM     27  C   UNL     1      -3.559  -2.155  25.023  0.00  0.00    +0.037 A 
ATOM     28  C   UNL     1      -3.404  -1.713  25.701  0.00  0.00    +0.003 A 
ATOM     29  C   UNL     1      -3.454  -0.889  25.677  0.00  0.00    -0.003 A 
BRANCH  24  25
ATOM     25  O   UNL     1      -3.920  -2.218  23.641  0.00  0.00    -0.471 OA
ATOM     26  C   UNL     1      -4.396  -2.889  23.687  0.00  0.00    +0.252 C 
ENDBRANCH  24  25
ENDBRANCH  20  22
BRANCH   5   3
ATOM      3  C   UNL     1      -2.234  -0.422  24.929  0.00  0.00    +0.332 C 
ATOM      4  O   UNL     1      -2.434  -1.183  25.178  0.00  0.00    -0.249 OA
BRANCH   3   2
ATOM      1  C   UNL     1      -0.978  -1.088  24.789  0.00  0.00    +0.256 C 
ATOM      2  O   UNL     1      -1.683  -0.816  24.458  0.00  0.00    -0.443 OA
ENDBRANCH   3   2
ENDBRANCH   5   3
BRANCH  18  30
ATOM     30  N   UNL     1      -5.238   1.873  24.947  0.00  0.00    -0.217 NA
BRANCH  30  31
ATOM     31  C   UNL     1      -5.451   2.352  25.584  0.00  0.00    +0.124 C 
BRANCH  31  32
ATOM     32  C   UNL     1      -6.157   2.779  25.561  0.00  0.00    +0.201 C 
ATOM     33  O   UNL     1      -6.180   3.552  25.849  0.00  0.00    -0.219 OA
ENDBRANCH  31  32
ENDBRANCH  30  31
ENDBRANCH  18  30
TORSDOF 7
ENDMDL
MODEL 5
REMARK VINA RESULT:     -11.2      1.667      3.849
REMARK  Name = 
REMARK  7 active torsions:
REMARK  status: ('A' for Active; 'I' for Inactive)
REMARK    1  A    between atoms: O_2  and  C_3
REMARK    2  A    between atoms: C_3  and  C_5
REMARK    3  A    between atoms: C_18  and  N_30
REMARK    4  A    between atoms: C_20  and  C_22
REMARK    5  A    between atoms: C_24  and  O_25
REMARK    6  A    between atoms: N_30  and  C_31
REMARK    7  A    between atoms: C_31  and  C_32
REMARK                            x       y       z     vdW  Elec       q    Type
REMARK                         _______ _______ _______ _____ _____    ______ ____
ROOT
ATOM      5  C   UNL     1      -2.792   0.739  24.859  0.00  0.00    +0.162 C 
ATOM      6  C   UNL     1      -3.616   0.748  24.859  0.00  0.00    +0.055 C 
ATOM      7  C   UNL     1      -4.022   1.453  24.998  0.00  0.00    -0.004 A 
ATOM      8  C   UNL     1      -3.603   2.149  25.137  0.00  0.00    +0.070 A 
ATOM      9  N   UNL     1      -4.149   2.756  25.256  0.00  0.00    -0.249 NA
ATOM     10  C   UNL     1      -4.906   2.435  25.191  0.00  0.00    +0.081 A 
ATOM     11  C   UNL     1      -4.827   1.629  25.031  0.00  0.00    +0.015 A 
ATOM     12  C   UNL     1      -5.499   1.160  24.936  0.00  0.00    +0.001 A 
ATOM     13  C   UNL     1      -6.250   1.496  25.002  0.00  0.00    +0.000 A 
ATOM     14  C   UNL     1      -6.328   2.303  25.162  0.00  0.00    +0.002 A 
ATOM     15  C   UNL     1      -5.656   2.772  25.256  0.00  0.00    +0.019 A 
ATOM     16  C   UNL     1      -2.778   2.141  25.138  0.00  0.00    +0.100 C 
ATOM     17  C   UNL     1      -2.358   2.837  25.277  0.00  0.00    +0.040 C 
ATOM     18  C   UNL     1      -1.533   2.829  25.277  0.00  0.00    +0.076 C 
ATOM     19  C   UNL     1      -1.128   2.124  25.138  0.00  0.00    +0.038 C 
ATOM     20  C   UNL     1      -1.548   1.428  24.999  0.00  0.00    +0.082 C 
ATOM     21  N   UNL     1      -2.372   1.436  24.999  0.00  0.00    -0.258 NA
ENDROOT
BRANCH  20  22
ATOM     22  C   UNL     1      -1.141   0.723  24.860  0.00  0.00    -0.005 A 
ATOM     23  C   UNL     1      -0.787   0.588  24.128  0.00  0.00    +0.034 A 
ATOM     24  C   UNL     1      -0.381  -0.116  23.990  0.00  0.00    +0.138 A 
ATOM     27  C   UNL     1      -0.330  -0.687  24.584  0.00  0.00    +0.037 A 
ATOM     28  C   UNL     1      -0.684  -0.552  25.316  0.00  0.00    +0.003 A 
ATOM     29  C   UNL     1      -1.090   0.153  25.454  0.00  0.00    -0.003 A 
BRANCH  24  25
ATOM     25  O   UNL     1      -0.026  -0.251  23.257  0.00  0.00    -0.471 OA
ATOM     26  C   UNL     1       0.796  -0.268  23.194  0.00  0.00    +0.252 C 
ENDBRANCH  24  25
ENDBRANCH  20  22
BRANCH   5   3
ATOM      3  C   UNL     1      -2.387   0.034  24.720  0.00  0.00    +0.332 C 
ATOM      4  O   UNL     1      -1.786  -0.523  24.822  0.00  0.00    -0.249 OA
BRANCH   3   2
ATOM      1  C   UNL     1      -3.090  -1.170  24.413  0.00  0.00    +0.256 C 
ATOM      2  O   UNL     1      -2.672  -0.504  24.164  0.00  0.00    -0.443 OA
ENDBRANCH   3   2
ENDBRANCH   5   3
BRANCH  18  30
ATOM     30  N   UNL     1      -1.114   3.526  25.416  0.00  0.00    -0.217 NA
BRANCH  30  31
ATOM     31  C   UNL     1      -1.259   4.194  24.955  0.00  0.00    +0.124 C 
BRANCH  31  32
ATOM     32  C   UNL     1      -0.778   4.861  25.031  0.00  0.00    +0.201 C 
ATOM     33  O   UNL     1      -1.105   5.615  24.963  0.00  0.00    -0.219 OA
ENDBRANCH  31  32
ENDBRANCH  30  31
ENDBRANCH  18  30
TORSDOF 7
ENDMDL
MODEL 6
REMARK VINA RESULT:     -10.9      1.486      4.320
REMARK  Name = 
REMARK  7 active torsions:
REMARK  status: ('A' for Active; 'I' for Inactive)
REMARK    1  A    between atoms: O_2  and  C_3
REMARK    2  A    between atoms: C_3  and  C_5
REMARK    3  A    between atoms: C_18  and  N_30
REMARK    4  A    between atoms: C_20  and  C_22
REMARK    5  A    between atoms: C_24  and  O_25
REMARK    6  A    between atoms: N_30  and  C_31
REMARK    7  A    between atoms: C_31  and  C_32
REMARK                            x       y       z     vdW  Elec       q    Type
REMARK                         _______ _______ _______ _____ _____    ______ ____
ROOT
ATOM      5  C   UNL     1      -2.527   1.717  24.894  0.00  0.00    +0.162 C 
ATOM      6  C   UNL     1      -3.090   2.312  24.987  0.00  0.00    +0.055 C 
ATOM      7  C   UNL     1      -3.883   2.114  25.104  0.00  0.00    -0.004 A 
ATOM      8  C   UNL     1      -4.112   1.322  25.129  0.00  0.00    +0.070 A 
ATOM      9  N   UNL     1      -4.927   1.296  25.252  0.00  0.00    -0.249 NA
ATOM     10  C   UNL     1      -5.203   2.072  25.304  0.00  0.00    +0.081 A 
ATOM     11  C   UNL     1      -4.557   2.578  25.212  0.00  0.00    +0.015 A 
ATOM     12  C   UNL     1      -4.666   3.395  25.238  0.00  0.00    +0.001 A 
ATOM     13  C   UNL     1      -5.422   3.707  25.356  0.00  0.00    +0.000 A 
ATOM     14  C   UNL     1      -6.067   3.200  25.448  0.00  0.00    +0.002 A 
ATOM     15  C   UNL     1      -5.958   2.383  25.421  0.00  0.00    +0.019 A 
ATOM     16  C   UNL     1      -3.548   0.727  25.037  0.00  0.00    +0.100 C 
ATOM     17  C   UNL     1      -3.776  -0.065  25.062  0.00  0.00    +0.040 C 
ATOM     18  C   UNL     1      -3.212  -0.660  24.970  0.00  0.00    +0.076 C 
ATOM     19  C   UNL     1      -2.420  -0.463  24.852  0.00  0.00    +0.038 C 
ATOM     20  C   UNL     1      -2.192   0.329  24.827  0.00  0.00    +0.082 C 
ATOM     21  N   UNL     1      -2.755   0.924  24.919  0.00  0.00    -0.258 NA
ENDROOT
BRANCH  20  22
ATOM     22  C   UNL     1      -1.399   0.526  24.709  0.00  0.00    -0.005 A 
ATOM     23  C   UNL     1      -1.060   0.445  23.962  0.00  0.00    +0.034 A 
ATOM     24  C   UNL     1      -0.267   0.642  23.845  0.00  0.00    +0.138 A 
ATOM     27  C   UNL     1       0.186   0.920  24.477  0.00  0.00    +0.037 A 
ATOM     28  C   UNL     1      -0.152   1.000  25.224  0.00  0.00    +0.003 A 
ATOM     29  C   UNL     1      -0.945   0.804  25.341  0.00  0.00    -0.003 A 
BRANCH  24  25
ATOM     25  O   UNL     1       0.072   0.561  23.097  0.00  0.00    -0.471 OA
ATOM     26  C   UNL     1       0.708   0.049  22.987  0.00  0.00    +0.252 C 
ENDBRANCH  24  25
ENDBRANCH  20  22
BRANCH   5   3
ATOM      3  C   UNL     1      -1.734   1.914  24.777  0.00  0.00    +0.332 C 
ATOM      4  O   UNL     1      -0.918   1.848  24.878  0.00  0.00    -0.249 OA
BRANCH   3   2
ATOM      1  C   UNL     1      -1.323   3.269  24.589  0.00  0.00    +0.256 C 
ATOM      2  O   UNL     1      -1.534   2.536  24.273  0.00  0.00    -0.443 OA
ENDBRANCH   3   2
ENDBRANCH   5   3
BRANCH  18  30
ATOM     30  N   UNL     1      -3.441  -1.453  24.995  0.00  0.00    -0.217 NA
BRANCH  30  31
ATOM     31  C   UNL     1      -3.721  -1.823  24.313  0.00  0.00    +0.124 C 
BRANCH  31  32
ATOM     32  C   UNL     1      -3.855  -2.637  24.311  0.00  0.00    +0.201 C 
ATOM     33  O   UNL     1      -4.281  -2.984  23.695  0.00  0.00    -0.219 OA
ENDBRANCH  31  32
ENDBRANCH  30  31
ENDBRANCH  18  30
TORSDOF 7
ENDMDL
MODEL 7
REMARK VINA RESULT:     -10.6      1.279      3.546
REMARK  Name = 
REMARK  7 active torsions:
REMARK  status: ('A' for Active; 'I' for Inactive)
REMARK    1  A    between atoms: O_2  and  C_3
REMARK    2  A    between atoms: C_3  and  C_5
REMARK    3  A    between atoms: C_18  and  N_30
REMARK    4  A    between atoms: C_20  and  C_22
REMARK    5  A    between atoms: C_24  and  O_25
REMARK    6  A    between atoms: N_30  and  C_31
REMARK    7  A    between atoms: C_31  and  C_32
REMARK                            x       y       z     vdW  Elec       q    Type
REMARK                         _______ _______ _______ _____ _____    ______ ____
ROOT
ATOM      5  C   UNL     1      -3.039   2.024  24.743  0.00  0.00    +0.162 C 
ATOM      6  C   UNL     1      -2.242   2.232  24.722  0.00  0.00    +0.055 C 
ATOM      7  C   UNL     1      -1.678   1.678  24.486  0.00  0.00    -0.004 A 
ATOM      8  C   UNL     1      -1.911   0.917  24.271  0.00  0.00    +0.070 A 
ATOM      9  N   UNL     1      -1.235   0.492  24.063  0.00  0.00    -0.249 NA
ATOM     10  C   UNL     1      -0.583   0.990  24.149  0.00  0.00    +0.081 A 
ATOM     11  C   UNL     1      -0.857   1.724  24.411  0.00  0.00    +0.015 A 
ATOM     12  C   UNL     1      -0.324   2.338  24.547  0.00  0.00    +0.001 A 
ATOM     13  C   UNL     1       0.484   2.220  24.421  0.00  0.00    +0.000 A 
ATOM     14  C   UNL     1       0.757   1.485  24.160  0.00  0.00    +0.002 A 
ATOM     15  C   UNL     1       0.223   0.871  24.024  0.00  0.00    +0.019 A 
ATOM     16  C   UNL     1      -2.709   0.709  24.292  0.00  0.00    +0.100 C 
ATOM     17  C   UNL     1      -2.944  -0.052  24.077  0.00  0.00    +0.040 C 
ATOM     18  C   UNL     1      -3.741  -0.260  24.098  0.00  0.00    +0.076 C 
ATOM     19  C   UNL     1      -4.305   0.294  24.335  0.00  0.00    +0.038 C 
ATOM     20  C   UNL     1      -4.071   1.055  24.550  0.00  0.00    +0.082 C 
ATOM     21  N   UNL     1      -3.274   1.262  24.528  0.00  0.00    -0.258 NA
ENDROOT
BRANCH  20  22
ATOM     22  C   UNL     1      -4.636   1.608  24.786  0.00  0.00    -0.005 A 
ATOM     23  C   UNL     1      -4.977   1.556  25.535  0.00  0.00    +0.034 A 
ATOM     24  C   UNL     1      -5.541   2.110  25.771  0.00  0.00    +0.138 A 
ATOM     27  C   UNL     1      -5.765   2.715  25.256  0.00  0.00    +0.037 A 
ATOM     28  C   UNL     1      -5.425   2.767  24.507  0.00  0.00    +0.003 A 
ATOM     29  C   UNL     1      -4.860   2.213  24.272  0.00  0.00    -0.003 A 
BRANCH  24  25
ATOM     25  O   UNL     1      -5.882   2.058  26.520  0.00  0.00    -0.471 OA
ATOM     26  C   UNL     1      -6.648   1.767  26.606  0.00  0.00    +0.252 C 
ENDBRANCH  24  25
ENDBRANCH  20  22
BRANCH   5   3
ATOM      3  C   UNL     1      -3.604   2.578  24.980  0.00  0.00    +0.332 C 
ATOM      4  O   UNL     1      -4.324   2.980  24.950  0.00  0.00    -0.249 OA
BRANCH   3   2
ATOM      1  C   UNL     1      -3.212   3.854  25.488  0.00  0.00    +0.256 C 
ATOM      2  O   UNL     1      -3.452   3.075  25.620  0.00  0.00    -0.443 OA
ENDBRANCH   3   2
ENDBRANCH   5   3
BRANCH  18  30
ATOM     30  N   UNL     1      -3.975  -1.022  23.883  0.00  0.00    -0.217 NA
BRANCH  30  31
ATOM     31  C   UNL     1      -3.789  -1.663  24.368  0.00  0.00    +0.124 C 
BRANCH  31  32
ATOM     32  C   UNL     1      -3.985  -2.429  24.132  0.00  0.00    +0.201 C 
ATOM     33  O   UNL     1      -3.705  -3.076  24.560  0.00  0.00    -0.219 OA
ENDBRANCH  31  32
ENDBRANCH  30  31
ENDBRANCH  18  30
TORSDOF 7
ENDMDL
MODEL 8
REMARK VINA RESULT:     -10.3      1.490      2.013
REMARK  Name = 
REMARK  7 active torsions:
REMARK  status: ('A' for Active; 'I' for Inactive)
REMARK    1  A    between atoms: O_2  and  C_3
REMARK    2  A    between atoms: C_3  and  C_5
REMARK    3  A    between atoms: C_18  and  N_30
REMARK    4  A    between atoms: C_20  and  C_22
REMARK    5  A    between atoms: C_24  and  O_25
REMARK    6  A    between atoms: N_30  and  C_31
REMARK    7  A    between atoms: C_31  and  C_32
REMARK                            x       y       z     vdW  Elec       q    Type
REMARK                         _______ _______ _______ _____ _____    ______ ____
ROOT
ATOM      5  C   UNL     1      -2.325   1.417  24.877  0.00  0.00    +0.162 C 
ATOM      6  C   UNL     1      -2.995   0.939  24.813  0.00  0.00    +0.055 C 
ATOM      7  C   UNL     1      -2.927   0.172  24.518  0.00  0.00    -0.004 A 
ATOM      8  C   UNL     1      -2.190  -0.119  24.287  0.00  0.00    +0.070 A 
ATOM      9  N   UNL     1      -2.293  -0.892  24.019  0.00  0.00    -0.249 NA
ATOM     10  C   UNL     1      -3.094  -1.080  24.083  0.00  0.00    +0.081 A 
ATOM     11  C   UNL     1      -3.486  -0.422  24.392  0.00  0.00    +0.015 A 
ATOM     12  C   UNL     1      -4.300  -0.450  24.518  0.00  0.00    +0.001 A 
ATOM     13  C   UNL     1      -4.724  -1.135  24.336  0.00  0.00    +0.000 A 
ATOM     14  C   UNL     1      -4.331  -1.793  24.028  0.00  0.00    +0.002 A 
ATOM     15  C   UNL     1      -3.516  -1.765  23.901  0.00  0.00    +0.019 A 
ATOM     16  C   UNL     1      -1.520   0.359  24.352  0.00  0.00    +0.100 C 
ATOM     17  C   UNL     1      -0.783   0.070  24.121  0.00  0.00    +0.040 C 
ATOM     18  C   UNL     1      -0.114   0.547  24.186  0.00  0.00    +0.076 C 
ATOM     19  C   UNL     1      -0.182   1.315  24.480  0.00  0.00    +0.038 C 
ATOM     20  C   UNL     1      -0.919   1.604  24.710  0.00  0.00    +0.082 C 
ATOM     21  N   UNL     1      -1.588   1.127  24.646  0.00  0.00    -0.258 NA
ENDROOT
BRANCH  20  22
ATOM     22  C   UNL     1      -0.986   2.372  25.005  0.00  0.00    -0.005 A 
ATOM     23  C   UNL     1      -0.961   3.016  24.490  0.00  0.00    +0.034 A 
ATOM     24  C   UNL     1      -1.028   3.783  24.786  0.00  0.00    +0.138 A 
ATOM     27  C   UNL     1      -1.119   3.906  25.597  0.00  0.00    +0.037 A 
ATOM     28  C   UNL     1      -1.144   3.263  26.112  0.00  0.00    +0.003 A 
ATOM     29  C   UNL     1      -1.077   2.496  25.816  0.00  0.00    -0.003 A 
BRANCH  24  25
ATOM     25  O   UNL     1      -1.003   4.427  24.270  0.00  0.00    -0.471 OA
ATOM     26  C   UNL     1      -0.622   5.122  24.497  0.00  0.00    +0.252 C 
ENDBRANCH  24  25
ENDBRANCH  20  22
BRANCH   5   3
ATOM      3  C   UNL     1      -2.393   2.184  25.172  0.00  0.00    +0.332 C 
ATOM      4  O   UNL     1      -2.181   2.837  25.629  0.00  0.00    -0.249 OA
BRANCH   3   2
ATOM      1  C   UNL     1      -3.676   2.772  25.395  0.00  0.00    +0.256 C 
ATOM      2  O   UNL     1      -3.009   2.671  24.919  0.00  0.00    -0.443 OA
ENDBRANCH   3   2
ENDBRANCH   5   3
BRANCH  18  30
ATOM     30  N   UNL     1       0.624   0.257  23.955  0.00  0.00    -0.217 NA
BRANCH  30  31
ATOM     31  C   UNL     1       0.803   0.176  23.154  0.00  0.00    +0.124 C 
BRANCH  31  32
ATOM     32  C   UNL     1       1.546  -0.100  22.923  0.00  0.00    +0.201 C 
ATOM     33  O   UNL     1       1.779  -0.046  22.133  0.00  0.00    -0.219 OA
ENDBRANCH  31  32
ENDBRANCH  30  31
ENDBRANCH  18  30
TORSDOF 7
ENDMDL
