MODEL 1
REMARK VINA RESULT:     -11.2      0.000      0.000
REMARK  Name = 
REMARK  5 active torsions:
REMARK  status: ('A' for Active; 'I' for Inactive)
REMARK    1  A    between atoms: C_7  and  C_8
REMARK    2  A    between atoms: C_8  and  N_9
REMARK    3  A    between atoms: C_13  and  C_14
REMARK    4  A    between atoms: C_16  and  C_19
REMARK    5  A    between atoms: C_22  and  C_25
REMARK                            x       y       z     vdW  Elec       q    Type
REMARK                         _______ _______ _______ _____ _____    ______ ____
ROOT
ATOM     14  C   UNL     1      -4.055   2.761  25.151  0.00  0.00    +0.251 A 
ATOM     15  N   UNL     1      -3.798   1.984  25.258  0.00  0.00    -0.190 NA
ATOM     16  C   UNL     1      -4.174   1.511  24.697  0.00  0.00    +0.205 A 
ATOM     17  N   UNL     1      -4.664   1.995  24.243  0.00  0.00    -0.056 NA
ATOM     18  O   UNL     1      -4.590   2.766  24.523  0.00  0.00    -0.336 OA
ENDROOT
BRANCH  16  19
ATOM     19  C   UNL     1      -4.078   0.696  24.606  0.00  0.00    +0.058 A 
ATOM     20  C   UNL     1      -3.664   0.400  23.957  0.00  0.00    +0.006 A 
ATOM     21  C   UNL     1      -3.568  -0.415  23.867  0.00  0.00    +0.019 A 
ATOM     22  C   UNL     1      -3.885  -0.932  24.425  0.00  0.00    +0.084 A 
ATOM     23  N   UNL     1      -4.300  -0.636  25.074  0.00  0.00    -0.244 NA
ATOM     24  C   UNL     1      -4.396   0.178  25.165  0.00  0.00    +0.102 A 
BRANCH  22  25
ATOM     25  C   UNL     1      -3.789  -1.747  24.334  0.00  0.00    +0.056 A 
ATOM     26  C   UNL     1      -4.294  -2.169  23.836  0.00  0.00    +0.104 A 
ATOM     27  N   UNL     1      -4.197  -2.983  23.745  0.00  0.00    -0.222 NA
ATOM     28  C   UNL     1      -3.597  -3.376  24.153  0.00  0.00    +0.199 A 
ATOM     29  N   UNL     1      -3.092  -2.954  24.651  0.00  0.00    -0.222 NA
ATOM     30  C   UNL     1      -3.189  -2.139  24.742  0.00  0.00    +0.104 A 
ENDBRANCH  22  25
ENDBRANCH  16  19
BRANCH  14  13
ATOM      9  N   UNL     1      -3.100   3.812  25.524  0.00  0.00    -0.263 NA
ATOM     10  C   UNL     1      -3.095   4.430  26.070  0.00  0.00    +0.073 C 
ATOM     11  C   UNL     1      -3.813   4.415  26.477  0.00  0.00    +0.019 C 
ATOM     12  C   UNL     1      -4.260   3.788  26.182  0.00  0.00    +0.027 C 
ATOM     13  C   UNL     1      -3.819   3.415  25.593  0.00  0.00    +0.138 C 
BRANCH   9   8
ATOM      8  C   UNL     1      -2.490   3.624  25.001  0.00  0.00    +0.102 C 
BRANCH   8   7
ATOM      1  F   UNL     1      -0.999   2.919  25.002  0.00  0.00    -0.204 F 
ATOM      2  C   UNL     1      -1.066   3.741  24.972  0.00  0.00    +0.137 A 
ATOM      3  C   UNL     1      -0.388   4.210  24.943  0.00  0.00    +0.029 A 
ATOM      4  C   UNL     1      -0.455   5.031  24.913  0.00  0.00    +0.002 A 
ATOM      5  C   UNL     1      -1.201   5.384  24.913  0.00  0.00    -0.000 A 
ATOM      6  C   UNL     1      -1.879   4.916  24.942  0.00  0.00    -0.001 A 
ATOM      7  C   UNL     1      -1.812   4.093  24.972  0.00  0.00    +0.021 A 
ENDBRANCH   8   7
ENDBRANCH   9   8
ENDBRANCH  14  13
TORSDOF 5
ENDMDL
MODEL 2
REMARK VINA RESULT:     -10.9      2.161      6.270
REMARK  Name = 
REMARK  5 active torsions:
REMARK  status: ('A' for Active; 'I' for Inactive)
REMARK    1  A    between atoms: C_7  and  C_8
REMARK    2  A    between atoms: C_8  and  N_9
REMARK    3  A    between atoms: C_13  and  C_14
REMARK    4  A    between atoms: C_16  and  C_19
REMARK    5  A    between atoms: C_22  and  C_25
REMARK                            x       y       z     vdW  Elec       q    Type
REMARK                         _______ _______ _______ _____ _____    ______ ____
ROOT
ATOM     14  C   UNL     1      -1.134  -0.479  25.362  0.00  0.00    +0.251 A 
ATOM     15  N   UNL     1      -1.165   0.263  25.002  0.00  0.00    -0.190 NA
ATOM     16  C   UNL     1      -1.125   0.835  25.595  0.00  0.00    +0.205 A 
ATOM     17  N   UNL     1      -1.068   0.447  26.320  0.00  0.00    -0.056 NA
ATOM     18  O   UNL     1      -1.074  -0.364  26.176  0.00  0.00    -0.336 OA
ENDROOT
BRANCH  16  19
ATOM     19  C   UNL     1      -1.138   1.652  25.482  0.00  0.00    +0.058 A 
ATOM     20  C   UNL     1      -0.588   2.131  25.866  0.00  0.00    +0.006 A 
ATOM     21  C   UNL     1      -0.601   2.948  25.753  0.00  0.00    +0.019 A 
ATOM     22  C   UNL     1      -1.166   3.286  25.255  0.00  0.00    +0.084 A 
ATOM     23  N   UNL     1      -1.717   2.808  24.871  0.00  0.00    -0.244 NA
ATOM     24  C   UNL     1      -1.703   1.990  24.984  0.00  0.00    +0.102 A 
BRANCH  22  25
ATOM     25  C   UNL     1      -1.179   4.104  25.142  0.00  0.00    +0.056 A 
ATOM     26  C   UNL     1      -0.550   4.478  24.762  0.00  0.00    +0.104 A 
ATOM     27  N   UNL     1      -0.563   5.295  24.649  0.00  0.00    -0.222 NA
ATOM     28  C   UNL     1      -1.207   5.738  24.916  0.00  0.00    +0.199 A 
ATOM     29  N   UNL     1      -1.836   5.364  25.295  0.00  0.00    -0.222 NA
ATOM     30  C   UNL     1      -1.822   4.546  25.409  0.00  0.00    +0.104 A 
ENDBRANCH  22  25
ENDBRANCH  16  19
BRANCH  14  13
ATOM      9  N   UNL     1      -1.838  -1.620  24.762  0.00  0.00    -0.263 NA
ATOM     10  C   UNL     1      -1.608  -2.318  24.388  0.00  0.00    +0.073 C 
ATOM     11  C   UNL     1      -0.783  -2.336  24.368  0.00  0.00    +0.019 C 
ATOM     12  C   UNL     1      -0.505  -1.649  24.731  0.00  0.00    +0.027 C 
ATOM     13  C   UNL     1      -1.158  -1.207  24.974  0.00  0.00    +0.138 C 
BRANCH   9   8
ATOM      8  C   UNL     1      -2.615  -1.379  24.900  0.00  0.00    +0.102 C 
BRANCH   8   7
ATOM      1  F   UNL     1      -3.717  -0.566  23.980  0.00  0.00    -0.204 F 
ATOM      2  C   UNL     1      -3.794  -1.380  24.091  0.00  0.00    +0.137 A 
ATOM      3  C   UNL     1      -4.421  -1.788  23.743  0.00  0.00    +0.029 A 
ATOM      4  C   UNL     1      -4.497  -2.602  23.854  0.00  0.00    +0.002 A 
ATOM      5  C   UNL     1      -3.945  -3.008  24.314  0.00  0.00    -0.000 A 
ATOM      6  C   UNL     1      -3.318  -2.601  24.663  0.00  0.00    -0.001 A 
ATOM      7  C   UNL     1      -3.243  -1.787  24.551  0.00  0.00    +0.021 A 
ENDBRANCH   8   7
ENDBRANCH   9   8
ENDBRANCH  14  13
TORSDOF 5
ENDMDL
MODEL 3
REMARK VINA RESULT:     -10.1      1.879      2.579
REMARK  Name = 
REMARK  5 active torsions:
REMARK  status: ('A' for Active; 'I' for Inactive)
REMARK    1  A    between atoms: C_7  and  C_8
REMARK    2  A    between atoms: C_8  and  N_9
REMARK    3  A    between atoms: C_13  and  C_14
REMARK    4  A    between atoms: C_16  and  C_19
REMARK    5  A    between atoms: C_22  and  C_25
REMARK                            x       y       z     vdW  Elec       q    Type
REMARK                         _______ _______ _______ _____ _____    ______ ____
ROOT
ATOM     14  C   UNL     1      -0.503   1.488  25.271  0.00  0.00    +0.251 A 
ATOM     15  N   UNL     1      -1.138   0.972  25.376  0.00  0.00    -0.190 NA
ATOM     16  C   UNL     1      -1.143   0.442  24.743  0.00  0.00    +0.205 A 
ATOM     17  N   UNL     1      -0.511   0.632  24.248  0.00  0.00    -0.056 NA
ATOM     18  O   UNL     1      -0.116   1.277  24.574  0.00  0.00    -0.336 OA
ENDROOT
BRANCH  16  19
ATOM     19  C   UNL     1      -1.684  -0.169  24.626  0.00  0.00    +0.058 A 
ATOM     20  C   UNL     1      -2.484   0.003  24.520  0.00  0.00    +0.006 A 
ATOM     21  C   UNL     1      -3.025  -0.609  24.403  0.00  0.00    +0.019 A 
ATOM     22  C   UNL     1      -2.767  -1.392  24.393  0.00  0.00    +0.084 A 
ATOM     23  N   UNL     1      -1.967  -1.564  24.499  0.00  0.00    -0.244 NA
ATOM     24  C   UNL     1      -1.426  -0.953  24.616  0.00  0.00    +0.102 A 
BRANCH  22  25
ATOM     25  C   UNL     1      -3.309  -2.004  24.276  0.00  0.00    +0.056 A 
ATOM     26  C   UNL     1      -3.165  -2.749  24.599  0.00  0.00    +0.104 A 
ATOM     27  N   UNL     1      -3.706  -3.360  24.482  0.00  0.00    -0.222 NA
ATOM     28  C   UNL     1      -4.391  -3.227  24.042  0.00  0.00    +0.199 A 
ATOM     29  N   UNL     1      -4.535  -2.481  23.719  0.00  0.00    -0.222 NA
ATOM     30  C   UNL     1      -3.994  -1.870  23.836  0.00  0.00    +0.104 A 
ENDBRANCH  22  25
ENDBRANCH  16  19
BRANCH  14  13
ATOM      9  N   UNL     1      -0.607   2.868  25.765  0.00  0.00    -0.263 NA
ATOM     10  C   UNL     1      -0.241   3.305  26.361  0.00  0.00    +0.073 C 
ATOM     11  C   UNL     1       0.300   2.811  26.742  0.00  0.00    +0.019 C 
ATOM     12  C   UNL     1       0.268   2.070  26.380  0.00  0.00    +0.027 C 
ATOM     13  C   UNL     1      -0.294   2.106  25.776  0.00  0.00    +0.138 C 
BRANCH   9   8
ATOM      8  C   UNL     1      -1.186   3.146  25.247  0.00  0.00    +0.102 C 
BRANCH   8   7
ATOM      1  F   UNL     1      -2.664   3.733  25.691  0.00  0.00    -0.204 F 
ATOM      2  C   UNL     1      -2.080   4.249  25.419  0.00  0.00    +0.137 A 
ATOM      3  C   UNL     1      -2.234   5.058  25.369  0.00  0.00    +0.029 A 
ATOM      4  C   UNL     1      -1.651   5.574  25.098  0.00  0.00    +0.002 A 
ATOM      5  C   UNL     1      -0.912   5.281  24.876  0.00  0.00    -0.000 A 
ATOM      6  C   UNL     1      -0.757   4.472  24.926  0.00  0.00    -0.001 A 
ATOM      7  C   UNL     1      -1.341   3.956  25.198  0.00  0.00    +0.021 A 
ENDBRANCH   8   7
ENDBRANCH   9   8
ENDBRANCH  14  13
TORSDOF 5
ENDMDL
MODEL 4
REMARK VINA RESULT:     -10.1      3.414      4.712
REMARK  Name = 
REMARK  5 active torsions:
REMARK  status: ('A' for Active; 'I' for Inactive)
REMARK    1  A    between atoms: C_7  and  C_8
REMARK    2  A    between atoms: C_8  and  N_9
REMARK    3  A    between atoms: C_13  and  C_14
REMARK    4  A    between atoms: C_16  and  C_19
REMARK    5  A    between atoms: C_22  and  C_25
REMARK                            x       y       z     vdW  Elec       q    Type
REMARK                         _______ _______ _______ _____ _____    ______ ____
ROOT
ATOM     14  C   UNL     1      -2.588   0.135  24.832  0.00  0.00    +0.251 A 
ATOM     15  N   UNL     1      -2.034   0.162  24.221  0.00  0.00    -0.190 NA
ATOM     16  C   UNL     1      -1.282   0.131  24.557  0.00  0.00    +0.205 A 
ATOM     17  N   UNL     1      -1.370   0.084  25.375  0.00  0.00    -0.056 NA
ATOM     18  O   UNL     1      -2.176   0.087  25.545  0.00  0.00    -0.336 OA
ENDROOT
BRANCH  16  19
ATOM     19  C   UNL     1      -0.566   0.143  24.146  0.00  0.00    +0.058 A 
ATOM     20  C   UNL     1      -0.249   0.862  23.894  0.00  0.00    +0.006 A 
ATOM     21  C   UNL     1       0.467   0.874  23.483  0.00  0.00    +0.019 A 
ATOM     22  C   UNL     1       0.865   0.169  23.325  0.00  0.00    +0.084 A 
ATOM     23  N   UNL     1       0.548  -0.549  23.578  0.00  0.00    -0.244 NA
ATOM     24  C   UNL     1      -0.168  -0.562  23.989  0.00  0.00    +0.102 A 
BRANCH  22  25
ATOM     25  C   UNL     1       1.581   0.182  22.914  0.00  0.00    +0.056 A 
ATOM     26  C   UNL     1       2.239   0.553  23.245  0.00  0.00    +0.104 A 
ATOM     27  N   UNL     1       2.955   0.565  22.835  0.00  0.00    -0.222 NA
ATOM     28  C   UNL     1       3.012   0.207  22.094  0.00  0.00    +0.199 A 
ATOM     29  N   UNL     1       2.353  -0.164  21.763  0.00  0.00    -0.222 NA
ATOM     30  C   UNL     1       1.637  -0.176  22.173  0.00  0.00    +0.104 A 
ENDBRANCH  22  25
ENDBRANCH  16  19
BRANCH  14  13
ATOM      9  N   UNL     1      -3.885   0.824  24.785  0.00  0.00    -0.263 NA
ATOM     10  C   UNL     1      -4.667   0.590  24.666  0.00  0.00    +0.073 C 
ATOM     11  C   UNL     1      -4.673  -0.228  24.553  0.00  0.00    +0.019 C 
ATOM     12  C   UNL     1      -3.895  -0.498  24.601  0.00  0.00    +0.027 C 
ATOM     13  C   UNL     1      -3.408   0.153  24.744  0.00  0.00    +0.138 C 
BRANCH   9   8
ATOM      8  C   UNL     1      -3.625   1.595  24.920  0.00  0.00    +0.102 C 
BRANCH   8   7
ATOM      1  F   UNL     1      -3.514   2.981  24.031  0.00  0.00    -0.204 F 
ATOM      2  C   UNL     1      -4.119   2.895  24.586  0.00  0.00    +0.137 A 
ATOM      3  C   UNL     1      -4.668   3.501  24.697  0.00  0.00    +0.029 A 
ATOM      4  C   UNL     1      -5.272   3.414  25.251  0.00  0.00    +0.002 A 
ATOM      5  C   UNL     1      -5.328   2.722  25.696  0.00  0.00    -0.000 A 
ATOM      6  C   UNL     1      -4.779   2.115  25.586  0.00  0.00    -0.001 A 
ATOM      7  C   UNL     1      -4.175   2.202  25.030  0.00  0.00    +0.021 A 
ENDBRANCH   8   7
ENDBRANCH   9   8
ENDBRANCH  14  13
TORSDOF 5
ENDMDL
MODEL 5
REMARK VINA RESULT:      -9.8      3.488      5.484
REMARK  Name = 
REMARK  5 active torsions:
REMARK  status: ('A' for Active; 'I' for Inactive)
REMARK    1  A    between atoms: C_7  and  C_8
REMARK    2  A    between atoms: C_8  and  N_9
REMARK    3  A    between atoms: C_13  and  C_14
REMARK    4  A    between atoms: C_16  and  C_19
REMARK    5  A    between atoms: C_22  and  C_25
REMARK                            x       y       z     vdW  Elec       q    Type
REMARK                         _______ _______ _______ _____ _____    ______ ____
ROOT
ATOM     14  C   UNL     1      -2.352   1.026  24.821  0.00  0.00    +0.251 A 
ATOM     15  N   UNL     1      -1.778   0.845  24.256  0.00  0.00    -0.190 NA
ATOM     16  C   UNL     1      -1.039   1.015  24.580  0.00  0.00    +0.205 A 
ATOM     17  N   UNL     1      -1.156   1.301  25.345  0.00  0.00    -0.056 NA
ATOM     18  O   UNL     1      -1.967   1.308  25.493  0.00  0.00    -0.336 OA
ENDROOT
BRANCH  16  19
ATOM     19  C   UNL     1      -0.311   0.916  24.205  0.00  0.00    +0.058 A 
ATOM     20  C   UNL     1      -0.140   0.209  23.816  0.00  0.00    +0.006 A 
ATOM     21  C   UNL     1       0.588   0.109  23.441  0.00  0.00    +0.019 A 
ATOM     22  C   UNL     1       1.146   0.717  23.456  0.00  0.00    +0.084 A 
ATOM     23  N   UNL     1       0.976   1.424  23.845  0.00  0.00    -0.244 NA
ATOM     24  C   UNL     1       0.247   1.523  24.220  0.00  0.00    +0.102 A 
BRANCH  22  25
ATOM     25  C   UNL     1       1.874   0.618  23.081  0.00  0.00    +0.056 A 
ATOM     26  C   UNL     1       1.959   0.051  22.488  0.00  0.00    +0.104 A 
ATOM     27  N   UNL     1       2.687  -0.048  22.113  0.00  0.00    -0.222 NA
ATOM     28  C   UNL     1       3.331   0.420  22.332  0.00  0.00    +0.199 A 
ATOM     29  N   UNL     1       3.246   0.987  22.925  0.00  0.00    -0.222 NA
ATOM     30  C   UNL     1       2.518   1.086  23.300  0.00  0.00    +0.104 A 
ENDBRANCH  22  25
ENDBRANCH  16  19
BRANCH  14  13
ATOM      9  N   UNL     1      -3.602   0.256  24.876  0.00  0.00    -0.263 NA
ATOM     10  C   UNL     1      -4.395   0.416  24.711  0.00  0.00    +0.073 C 
ATOM     11  C   UNL     1      -4.449   1.201  24.460  0.00  0.00    +0.019 C 
ATOM     12  C   UNL     1      -3.690   1.525  24.471  0.00  0.00    +0.027 C 
ATOM     13  C   UNL     1      -3.167   0.940  24.728  0.00  0.00    +0.138 C 
BRANCH   9   8
ATOM      8  C   UNL     1      -3.299  -0.463  25.142  0.00  0.00    +0.102 C 
BRANCH   8   7
ATOM      1  F   UNL     1      -2.995  -1.895  25.903  0.00  0.00    -0.204 F 
ATOM      2  C   UNL     1      -3.411  -1.887  25.190  0.00  0.00    +0.137 A 
ATOM      3  C   UNL     1      -3.675  -2.595  24.858  0.00  0.00    +0.029 A 
ATOM      4  C   UNL     1      -4.091  -2.586  24.146  0.00  0.00    +0.002 A 
ATOM      5  C   UNL     1      -4.243  -1.870  23.765  0.00  0.00    -0.000 A 
ATOM      6  C   UNL     1      -3.979  -1.162  24.097  0.00  0.00    -0.001 A 
ATOM      7  C   UNL     1      -3.563  -1.171  24.810  0.00  0.00    +0.021 A 
ENDBRANCH   8   7
ENDBRANCH   9   8
ENDBRANCH  14  13
TORSDOF 5
ENDMDL
MODEL 6
REMARK VINA RESULT:      -9.4      1.565      5.566
REMARK  Name = 
REMARK  5 active torsions:
REMARK  status: ('A' for Active; 'I' for Inactive)
REMARK    1  A    between atoms: C_7  and  C_8
REMARK    2  A    between atoms: C_8  and  N_9
REMARK    3  A    between atoms: C_13  and  C_14
REMARK    4  A    between atoms: C_16  and  C_19
REMARK    5  A    between atoms: C_22  and  C_25
REMARK                            x       y       z     vdW  Elec       q    Type
REMARK                         _______ _______ _______ _____ _____    ______ ____
ROOT
ATOM     14  C   UNL     1      -3.967   0.114  24.708  0.00  0.00    +0.251 A 
ATOM     15  N   UNL     1      -3.360   0.657  24.577  0.00  0.00    -0.190 NA
ATOM     16  C   UNL     1      -3.576   1.371  24.928  0.00  0.00    +0.205 A 
ATOM     17  N   UNL     1      -4.317   1.270  25.275  0.00  0.00    -0.056 NA
ATOM     18  O   UNL     1      -4.559   0.494  25.139  0.00  0.00    -0.336 OA
ENDROOT
BRANCH  16  19
ATOM     19  C   UNL     1      -3.130   2.066  24.930  0.00  0.00    +0.058 A 
ATOM     20  C   UNL     1      -2.432   2.105  25.369  0.00  0.00    +0.006 A 
ATOM     21  C   UNL     1      -1.986   2.799  25.372  0.00  0.00    +0.019 A 
ATOM     22  C   UNL     1      -2.237   3.453  24.936  0.00  0.00    +0.084 A 
ATOM     23  N   UNL     1      -2.935   3.414  24.497  0.00  0.00    -0.244 NA
ATOM     24  C   UNL     1      -3.381   2.719  24.495  0.00  0.00    +0.102 A 
BRANCH  22  25
ATOM     25  C   UNL     1      -1.791   4.147  24.938  0.00  0.00    +0.056 A 
ATOM     26  C   UNL     1      -2.123   4.850  25.215  0.00  0.00    +0.104 A 
ATOM     27  N   UNL     1      -1.676   5.544  25.218  0.00  0.00    -0.222 NA
ATOM     28  C   UNL     1      -0.898   5.535  24.944  0.00  0.00    +0.199 A 
ATOM     29  N   UNL     1      -0.566   4.832  24.667  0.00  0.00    -0.222 NA
ATOM     30  C   UNL     1      -1.013   4.138  24.664  0.00  0.00    +0.104 A 
ENDBRANCH  22  25
ENDBRANCH  16  19
BRANCH  14  13
ATOM      9  N   UNL     1      -3.478  -1.271  24.708  0.00  0.00    -0.263 NA
ATOM     10  C   UNL     1      -3.685  -1.964  24.310  0.00  0.00    +0.073 C 
ATOM     11  C   UNL     1      -4.315  -1.790  23.807  0.00  0.00    +0.019 C 
ATOM     12  C   UNL     1      -4.498  -0.990  23.895  0.00  0.00    +0.027 C 
ATOM     13  C   UNL     1      -3.980  -0.670  24.452  0.00  0.00    +0.138 C 
BRANCH   9   8
ATOM      8  C   UNL     1      -2.875  -1.195  25.266  0.00  0.00    +0.102 C 
BRANCH   8   7
ATOM      1  F   UNL     1      -1.593  -0.852  26.246  0.00  0.00    -0.204 F 
ATOM      2  C   UNL     1      -1.509  -1.399  25.634  0.00  0.00    +0.137 A 
ATOM      3  C   UNL     1      -0.785  -1.776  25.512  0.00  0.00    +0.029 A 
ATOM      4  C   UNL     1      -0.702  -2.323  24.901  0.00  0.00    +0.002 A 
ATOM      5  C   UNL     1      -1.343  -2.494  24.411  0.00  0.00    -0.000 A 
ATOM      6  C   UNL     1      -2.067  -2.118  24.532  0.00  0.00    -0.001 A 
ATOM      7  C   UNL     1      -2.150  -1.571  25.144  0.00  0.00    +0.021 A 
ENDBRANCH   8   7
ENDBRANCH   9   8
ENDBRANCH  14  13
TORSDOF 5
ENDMDL
MODEL 7
REMARK VINA RESULT:      -9.3      2.062      2.975
REMARK  Name = 
REMARK  5 active torsions:
REMARK  status: ('A' for Active; 'I' for Inactive)
REMARK    1  A    between atoms: C_7  and  C_8
REMARK    2  A    between atoms: C_8  and  N_9
REMARK    3  A    between atoms: C_13  and  C_14
REMARK    4  A    between atoms: C_16  and  C_19
REMARK    5  A    between atoms: C_22  and  C_25
REMARK                            x       y       z     vdW  Elec       q    Type
REMARK                         _______ _______ _______ _____ _____    ______ ____
ROOT
ATOM     14  C   UNL     1      -0.817   2.979  25.385  0.00  0.00    +0.251 A 
ATOM     15  N   UNL     1      -1.210   2.313  25.097  0.00  0.00    -0.190 NA
ATOM     16  C   UNL     1      -0.804   1.645  25.358  0.00  0.00    +0.205 A 
ATOM     17  N   UNL     1      -0.160   1.897  25.807  0.00  0.00    -0.056 NA
ATOM     18  O   UNL     1      -0.168   2.720  25.824  0.00  0.00    -0.336 OA
ENDROOT
BRANCH  16  19
ATOM     19  C   UNL     1      -1.006   0.861  25.197  0.00  0.00    +0.058 A 
ATOM     20  C   UNL     1      -1.323   0.386  25.794  0.00  0.00    +0.006 A 
ATOM     21  C   UNL     1      -1.525  -0.397  25.633  0.00  0.00    +0.019 A 
ATOM     22  C   UNL     1      -1.412  -0.706  24.877  0.00  0.00    +0.084 A 
ATOM     23  N   UNL     1      -1.096  -0.232  24.280  0.00  0.00    -0.244 NA
ATOM     24  C   UNL     1      -0.893   0.552  24.441  0.00  0.00    +0.102 A 
BRANCH  22  25
ATOM     25  C   UNL     1      -1.614  -1.490  24.716  0.00  0.00    +0.056 A 
ATOM     26  C   UNL     1      -2.403  -1.693  24.582  0.00  0.00    +0.104 A 
ATOM     27  N   UNL     1      -2.605  -2.476  24.422  0.00  0.00    -0.222 NA
ATOM     28  C   UNL     1      -2.019  -3.057  24.395  0.00  0.00    +0.199 A 
ATOM     29  N   UNL     1      -1.231  -2.854  24.529  0.00  0.00    -0.222 NA
ATOM     30  C   UNL     1      -1.029  -2.070  24.690  0.00  0.00    +0.104 A 
ENDBRANCH  22  25
ENDBRANCH  16  19
BRANCH  14  13
ATOM      9  N   UNL     1      -1.760   4.103  25.451  0.00  0.00    -0.263 NA
ATOM     10  C   UNL     1      -1.740   4.897  25.226  0.00  0.00    +0.073 C 
ATOM     11  C   UNL     1      -1.000   5.048  24.893  0.00  0.00    +0.019 C 
ATOM     12  C   UNL     1      -0.564   4.348  24.912  0.00  0.00    +0.027 C 
ATOM     13  C   UNL     1      -1.035   3.764  25.257  0.00  0.00    +0.138 C 
BRANCH   9   8
ATOM      8  C   UNL     1      -2.396   3.717  25.807  0.00  0.00    +0.102 C 
BRANCH   8   7
ATOM      1  F   UNL     1      -3.647   3.907  26.867  0.00  0.00    -0.204 F 
ATOM      2  C   UNL     1      -3.788   3.931  26.054  0.00  0.00    +0.137 A 
ATOM      3  C   UNL     1      -4.554   4.049  25.770  0.00  0.00    +0.029 A 
ATOM      4  C   UNL     1      -4.694   4.072  24.959  0.00  0.00    +0.002 A 
ATOM      5  C   UNL     1      -4.069   3.977  24.429  0.00  0.00    -0.000 A 
ATOM      6  C   UNL     1      -3.303   3.859  24.711  0.00  0.00    -0.001 A 
ATOM      7  C   UNL     1      -3.163   3.835  25.524  0.00  0.00    +0.021 A 
ENDBRANCH   8   7
ENDBRANCH   9   8
ENDBRANCH  14  13
TORSDOF 5
ENDMDL
MODEL 8
REMARK VINA RESULT:      -9.3      3.250      4.508
REMARK  Name = 
REMARK  5 active torsions:
REMARK  status: ('A' for Active; 'I' for Inactive)
REMARK    1  A    between atoms: C_7  and  C_8
REMARK    2  A    between atoms: C_8  and  N_9
REMARK    3  A    between atoms: C_13  and  C_14
REMARK    4  A    between atoms: C_16  and  C_19
REMARK    5  A    between atoms: C_22  and  C_25
REMARK                            x       y       z     vdW  Elec       q    Type
REMARK                         _______ _______ _______ _____ _____    ______ ____
ROOT
ATOM     14  C   UNL     1      -1.757   2.846  25.440  0.00  0.00    +0.251 A 
ATOM     15  N   UNL     1      -1.315   2.617  24.782  0.00  0.00    -0.190 NA
ATOM     16  C   UNL     1      -0.758   2.062  25.029  0.00  0.00    +0.205 A 
ATOM     17  N   UNL     1      -0.854   1.948  25.840  0.00  0.00    -0.056 NA
ATOM     18  O   UNL     1      -1.471   2.431  26.094  0.00  0.00    -0.336 OA
ENDROOT
BRANCH  16  19
ATOM     19  C   UNL     1      -0.200   1.687  24.549  0.00  0.00    +0.058 A 
ATOM     20  C   UNL     1      -0.360   0.940  24.239  0.00  0.00    +0.006 A 
ATOM     21  C   UNL     1       0.197   0.565  23.759  0.00  0.00    +0.019 A 
ATOM     22  C   UNL     1       0.913   0.938  23.590  0.00  0.00    +0.084 A 
ATOM     23  N   UNL     1       1.073   1.685  23.900  0.00  0.00    -0.244 NA
ATOM     24  C   UNL     1       0.516   2.060  24.380  0.00  0.00    +0.102 A 
BRANCH  22  25
ATOM     25  C   UNL     1       1.471   0.563  23.110  0.00  0.00    +0.056 A 
ATOM     26  C   UNL     1       1.227  -0.000  22.559  0.00  0.00    +0.104 A 
ATOM     27  N   UNL     1       1.784  -0.375  22.079  0.00  0.00    -0.222 NA
ATOM     28  C   UNL     1       2.584  -0.186  22.151  0.00  0.00    +0.199 A 
ATOM     29  N   UNL     1       2.827   0.378  22.702  0.00  0.00    -0.222 NA
ATOM     30  C   UNL     1       2.270   0.752  23.181  0.00  0.00    +0.104 A 
ENDBRANCH  22  25
ENDBRANCH  16  19
BRANCH  14  13
ATOM      9  N   UNL     1      -3.172   3.223  25.317  0.00  0.00    -0.263 NA
ATOM     10  C   UNL     1      -3.595   3.929  25.369  0.00  0.00    +0.073 C 
ATOM     11  C   UNL     1      -3.058   4.536  25.528  0.00  0.00    +0.019 C 
ATOM     12  C   UNL     1      -2.304   4.203  25.575  0.00  0.00    +0.027 C 
ATOM     13  C   UNL     1      -2.375   3.392  25.444  0.00  0.00    +0.138 C 
BRANCH   9   8
ATOM      8  C   UNL     1      -3.491   2.478  25.164  0.00  0.00    +0.102 C 
BRANCH   8   7
ATOM      1  F   UNL     1      -4.227   1.583  23.989  0.00  0.00    -0.204 F 
ATOM      2  C   UNL     1      -4.677   1.920  24.593  0.00  0.00    +0.137 A 
ATOM      3  C   UNL     1      -5.495   1.811  24.610  0.00  0.00    +0.029 A 
ATOM      4  C   UNL     1      -5.944   2.147  25.214  0.00  0.00    +0.002 A 
ATOM      5  C   UNL     1      -5.576   2.594  25.802  0.00  0.00    -0.000 A 
ATOM      6  C   UNL     1      -4.758   2.705  25.786  0.00  0.00    -0.001 A 
ATOM      7  C   UNL     1      -4.309   2.367  25.181  0.00  0.00    +0.021 A 
ENDBRANCH   8   7
ENDBRANCH   9   8
ENDBRANCH  14  13
TORSDOF 5
ENDMDL
