MODEL 1
REMARK VINA RESULT:     -11.3      0.000      0.000
REMARK  Name = 
REMARK  8 active torsions:
REMARK  status: ('A' for Active; 'I' for Inactive)
REMARK    1  A    between atoms: C_2  and  C_4
REMARK    2  A    between atoms: C_6  and  C_7
REMARK    3  A    between atoms: C_7  and  C_8
REMARK    4  A    between atoms: N_10  and  C_12
REMARK    5  A    between atoms: C_12  and  C_13
REMARK    6  A    between atoms: C_22  and  C_23
REMARK    7  A    between atoms: C_23  and  N_24
REMARK    8  A    between atoms: C_25  and  C_27
REMARK                            x       y       z     vdW  Elec       q    Type
REMARK                         _______ _______ _______ _____ _____    ______ ____
ROOT
ATOM      4  C   UNL     1      -3.427   1.476  23.890  0.00  0.00    +0.006 C 
ATOM      5  C   UNL     1      -3.524   2.218  24.237  0.00  0.00    +0.005 C 
ATOM      6  C   UNL     1      -4.137   2.344  24.776  0.00  0.00    +0.027 C 
ATOM     19  C   UNL     1      -4.652   1.729  24.967  0.00  0.00    -0.048 C 
ATOM     20  C   UNL     1      -5.264   1.855  25.505  0.00  0.00    +0.026 C 
ATOM     21  C   UNL     1      -4.554   0.986  24.620  0.00  0.00    -0.033 C 
ATOM     22  C   UNL     1      -3.942   0.860  24.082  0.00  0.00    +0.043 C 
ENDROOT
BRANCH   4   2
ATOM      1  C   UNL     1      -2.944   1.470  22.545  0.00  0.00    +0.000 C 
ATOM      2  C   UNL     1      -2.815   1.350  23.352  0.00  0.00    +0.000 C 
ATOM      3  C   UNL     1      -2.074   1.104  23.619  0.00  0.00    +0.000 C 
ENDBRANCH   4   2
BRANCH   6   7
ATOM      7  C   UNL     1      -4.233   3.087  25.122  0.00  0.00    +0.089 C 
BRANCH   7   8
ATOM      8  C   UNL     1      -3.627   3.409  25.581  0.00  0.00    +0.226 C 
ATOM      9  O   UNL     1      -3.349   3.003  26.243  0.00  0.00    -0.275 OA
ATOM     10  N   UNL     1      -3.300   4.139  25.376  0.00  0.00    -0.274 N 
ATOM     11  C   UNL     1      -3.578   4.545  24.714  0.00  0.00    +0.115 C 
BRANCH  10  12
ATOM     12  C   UNL     1      -2.694   4.461  25.835  0.00  0.00    +0.120 C 
BRANCH  12  13
ATOM     13  C   UNL     1      -1.982   4.681  25.480  0.00  0.00    -0.002 A 
ATOM     14  C   UNL     1      -1.895   5.437  25.162  0.00  0.00    -0.003 A 
ATOM     15  C   UNL     1      -1.182   5.655  24.808  0.00  0.00    -0.000 A 
ATOM     16  C   UNL     1      -0.558   5.118  24.772  0.00  0.00    -0.000 A 
ATOM     17  C   UNL     1      -0.645   4.362  25.091  0.00  0.00    -0.000 A 
ATOM     18  C   UNL     1      -1.357   4.143  25.445  0.00  0.00    -0.003 A 
ENDBRANCH  12  13
ENDBRANCH  10  12
ENDBRANCH   7   8
ENDBRANCH   6   7
BRANCH  22  23
ATOM     23  C   UNL     1      -3.845   0.118  23.735  0.00  0.00    +0.120 C 
BRANCH  23  24
ATOM     24  N   UNL     1      -3.655  -0.535  24.204  0.00  0.00    -0.201 NA
ATOM     25  C   UNL     1      -3.869  -1.294  23.961  0.00  0.00    +0.266 C 
ATOM     26  O   UNL     1      -4.272  -1.401  23.249  0.00  0.00    -0.268 OA
BRANCH  25  27
ATOM     27  C   UNL     1      -3.679  -1.945  24.430  0.00  0.00    +0.074 A 
ATOM     28  C   UNL     1      -3.688  -2.703  24.104  0.00  0.00    +0.103 A 
ATOM     29  N   UNL     1      -3.498  -3.356  24.574  0.00  0.00    -0.242 NA
ATOM     30  C   UNL     1      -3.298  -3.249  25.367  0.00  0.00    +0.099 A 
ATOM     31  C   UNL     1      -3.289  -2.490  25.692  0.00  0.00    +0.021 A 
ATOM     32  C   UNL     1      -3.479  -1.839  25.223  0.00  0.00    +0.008 A 
ENDBRANCH  25  27
ENDBRANCH  23  24
ENDBRANCH  22  23
TORSDOF 8
ENDMDL
MODEL 2
REMARK VINA RESULT:     -11.2      2.732      4.397
REMARK  Name = 
REMARK  8 active torsions:
REMARK  status: ('A' for Active; 'I' for Inactive)
REMARK    1  A    between atoms: C_2  and  C_4
REMARK    2  A    between atoms: C_6  and  C_7
REMARK    3  A    between atoms: C_7  and  C_8
REMARK    4  A    between atoms: N_10  and  C_12
REMARK    5  A    between atoms: C_12  and  C_13
REMARK    6  A    between atoms: C_22  and  C_23
REMARK    7  A    between atoms: C_23  and  N_24
REMARK    8  A    between atoms: C_25  and  C_27
REMARK                            x       y       z     vdW  Elec       q    Type
REMARK                         _______ _______ _______ _____ _____    ______ ____
ROOT
ATOM      4  C   UNL     1      -1.521   1.011  24.667  0.00  0.00    +0.006 C 
ATOM      5  C   UNL     1      -1.974   1.670  24.870  0.00  0.00    +0.005 C 
ATOM      6  C   UNL     1      -1.681   2.430  24.734  0.00  0.00    +0.027 C 
ATOM     19  C   UNL     1      -0.935   2.530  24.396  0.00  0.00    -0.048 C 
ATOM     20  C   UNL     1      -0.641   3.288  24.260  0.00  0.00    +0.026 C 
ATOM     21  C   UNL     1      -0.482   1.870  24.193  0.00  0.00    -0.033 C 
ATOM     22  C   UNL     1      -0.775   1.111  24.329  0.00  0.00    +0.043 C 
ENDROOT
BRANCH   4   2
ATOM      1  C   UNL     1      -2.285  -0.116  24.233  0.00  0.00    +0.000 C 
ATOM      2  C   UNL     1      -1.815   0.253  24.803  0.00  0.00    +0.000 C 
ATOM      3  C   UNL     1      -1.640  -0.138  25.509  0.00  0.00    +0.000 C 
ENDBRANCH   4   2
BRANCH   6   7
ATOM      7  C   UNL     1      -2.134   3.089  24.937  0.00  0.00    +0.089 C 
BRANCH   7   8
ATOM      8  C   UNL     1      -2.894   3.177  24.628  0.00  0.00    +0.226 C 
ATOM      9  O   UNL     1      -3.026   3.075  23.820  0.00  0.00    -0.275 OA
ATOM     10  N   UNL     1      -3.522   3.366  25.128  0.00  0.00    -0.274 N 
ATOM     11  C   UNL     1      -3.391   3.467  25.936  0.00  0.00    +0.115 C 
BRANCH  10  12
ATOM     12  C   UNL     1      -4.283   3.453  24.820  0.00  0.00    +0.120 C 
BRANCH  12  13
ATOM     13  C   UNL     1      -4.899   2.985  25.104  0.00  0.00    -0.002 A 
ATOM     14  C   UNL     1      -5.229   3.140  25.844  0.00  0.00    -0.003 A 
ATOM     15  C   UNL     1      -5.845   2.670  26.128  0.00  0.00    -0.000 A 
ATOM     16  C   UNL     1      -6.132   2.046  25.671  0.00  0.00    -0.000 A 
ATOM     17  C   UNL     1      -5.803   1.891  24.931  0.00  0.00    -0.000 A 
ATOM     18  C   UNL     1      -5.187   2.360  24.647  0.00  0.00    -0.003 A 
ENDBRANCH  12  13
ENDBRANCH  10  12
ENDBRANCH   7   8
ENDBRANCH   6   7
BRANCH  22  23
ATOM     23  C   UNL     1      -0.322   0.452  24.126  0.00  0.00    +0.120 C 
BRANCH  23  24
ATOM     24  N   UNL     1       0.329   0.538  23.627  0.00  0.00    -0.201 NA
ATOM     25  C   UNL     1       0.798  -0.117  23.443  0.00  0.00    +0.266 C 
ATOM     26  O   UNL     1       0.614  -0.857  23.759  0.00  0.00    -0.268 OA
BRANCH  25  27
ATOM     27  C   UNL     1       1.449  -0.031  22.944  0.00  0.00    +0.074 A 
ATOM     28  C   UNL     1       1.396  -0.263  22.155  0.00  0.00    +0.103 A 
ATOM     29  N   UNL     1       2.047  -0.177  21.655  0.00  0.00    -0.242 NA
ATOM     30  C   UNL     1       2.750   0.142  21.945  0.00  0.00    +0.099 A 
ATOM     31  C   UNL     1       2.803   0.375  22.736  0.00  0.00    +0.021 A 
ATOM     32  C   UNL     1       2.152   0.288  23.235  0.00  0.00    +0.008 A 
ENDBRANCH  25  27
ENDBRANCH  23  24
ENDBRANCH  22  23
TORSDOF 8
ENDMDL
MODEL 3
REMARK VINA RESULT:     -10.6      0.998      5.849
REMARK  Name = 
REMARK  8 active torsions:
REMARK  status: ('A' for Active; 'I' for Inactive)
REMARK    1  A    between atoms: C_2  and  C_4
REMARK    2  A    between atoms: C_6  and  C_7
REMARK    3  A    between atoms: C_7  and  C_8
REMARK    4  A    between atoms: N_10  and  C_12
REMARK    5  A    between atoms: C_12  and  C_13
REMARK    6  A    between atoms: C_22  and  C_23
REMARK    7  A    between atoms: C_23  and  N_24
REMARK    8  A    between atoms: C_25  and  C_27
REMARK                            x       y       z     vdW  Elec       q    Type
REMARK                         _______ _______ _______ _____ _____    ______ ____
ROOT
ATOM      4  C   UNL     1      -4.642   2.314  25.170  0.00  0.00    +0.006 C 
ATOM      5  C   UNL     1      -4.808   1.549  24.911  0.00  0.00    +0.005 C 
ATOM      6  C   UNL     1      -4.258   1.141  24.450  0.00  0.00    +0.027 C 
ATOM     19  C   UNL     1      -3.542   1.499  24.248  0.00  0.00    -0.048 C 
ATOM     20  C   UNL     1      -2.993   1.092  23.787  0.00  0.00    +0.026 C 
ATOM     21  C   UNL     1      -3.376   2.265  24.508  0.00  0.00    -0.033 C 
ATOM     22  C   UNL     1      -3.926   2.672  24.968  0.00  0.00    +0.043 C 
ENDROOT
BRANCH   4   2
ATOM      1  C   UNL     1      -5.684   3.285  25.283  0.00  0.00    +0.000 C 
ATOM      2  C   UNL     1      -5.192   2.721  25.631  0.00  0.00    +0.000 C 
ATOM      3  C   UNL     1      -5.250   2.565  26.439  0.00  0.00    +0.000 C 
ENDBRANCH   4   2
BRANCH   6   7
ATOM      7  C   UNL     1      -4.424   0.376  24.191  0.00  0.00    +0.089 C 
BRANCH   7   8
ATOM      8  C   UNL     1      -4.296  -0.267  24.694  0.00  0.00    +0.226 C 
ATOM      9  O   UNL     1      -4.242  -0.148  25.509  0.00  0.00    -0.275 OA
ATOM     10  N   UNL     1      -4.222  -1.026  24.381  0.00  0.00    -0.274 N 
ATOM     11  C   UNL     1      -4.276  -1.144  23.566  0.00  0.00    +0.115 C 
BRANCH  10  12
ATOM     12  C   UNL     1      -4.093  -1.668  24.884  0.00  0.00    +0.120 C 
BRANCH  12  13
ATOM     13  C   UNL     1      -3.491  -2.207  24.717  0.00  0.00    -0.002 A 
ATOM     14  C   UNL     1      -3.655  -2.886  24.278  0.00  0.00    -0.003 A 
ATOM     15  C   UNL     1      -3.051  -3.425  24.112  0.00  0.00    -0.000 A 
ATOM     16  C   UNL     1      -2.286  -3.285  24.386  0.00  0.00    -0.000 A 
ATOM     17  C   UNL     1      -2.123  -2.606  24.825  0.00  0.00    -0.000 A 
ATOM     18  C   UNL     1      -2.725  -2.067  24.991  0.00  0.00    -0.003 A 
ENDBRANCH  12  13
ENDBRANCH  10  12
ENDBRANCH   7   8
ENDBRANCH   6   7
BRANCH  22  23
ATOM     23  C   UNL     1      -3.760   3.437  25.227  0.00  0.00    +0.120 C 
BRANCH  23  24
ATOM     24  N   UNL     1      -3.065   3.812  24.985  0.00  0.00    -0.201 NA
ATOM     25  C   UNL     1      -2.661   4.308  25.507  0.00  0.00    +0.266 C 
ATOM     26  O   UNL     1      -2.951   4.429  26.270  0.00  0.00    -0.268 OA
BRANCH  25  27
ATOM     27  C   UNL     1      -1.967   4.683  25.265  0.00  0.00    +0.074 A 
ATOM     28  C   UNL     1      -1.969   5.493  25.112  0.00  0.00    +0.103 A 
ATOM     29  N   UNL     1      -1.274   5.868  24.869  0.00  0.00    -0.242 NA
ATOM     30  C   UNL     1      -0.579   5.433  24.780  0.00  0.00    +0.099 A 
ATOM     31  C   UNL     1      -0.578   4.621  24.934  0.00  0.00    +0.021 A 
ATOM     32  C   UNL     1      -1.272   4.247  25.176  0.00  0.00    +0.008 A 
ENDBRANCH  25  27
ENDBRANCH  23  24
ENDBRANCH  22  23
TORSDOF 8
ENDMDL
MODEL 4
REMARK VINA RESULT:     -10.3      1.194      2.132
REMARK  Name = 
REMARK  8 active torsions:
REMARK  status: ('A' for Active; 'I' for Inactive)
REMARK    1  A    between atoms: C_2  and  C_4
REMARK    2  A    between atoms: C_6  and  C_7
REMARK    3  A    between atoms: C_7  and  C_8
REMARK    4  A    between atoms: N_10  and  C_12
REMARK    5  A    between atoms: C_12  and  C_13
REMARK    6  A    between atoms: C_22  and  C_23
REMARK    7  A    between atoms: C_23  and  N_24
REMARK    8  A    between atoms: C_25  and  C_27
REMARK                            x       y       z     vdW  Elec       q    Type
REMARK                         _______ _______ _______ _____ _____    ______ ____
ROOT
ATOM      4  C   UNL     1      -2.721   1.319  24.254  0.00  0.00    +0.006 C 
ATOM      5  C   UNL     1      -2.043   1.777  24.359  0.00  0.00    +0.005 C 
ATOM      6  C   UNL     1      -1.325   1.414  24.547  0.00  0.00    +0.027 C 
ATOM     19  C   UNL     1      -1.287   0.594  24.630  0.00  0.00    -0.048 C 
ATOM     20  C   UNL     1      -0.570   0.231  24.817  0.00  0.00    +0.026 C 
ATOM     21  C   UNL     1      -1.966   0.136  24.525  0.00  0.00    -0.033 C 
ATOM     22  C   UNL     1      -2.683   0.499  24.337  0.00  0.00    +0.043 C 
ENDROOT
BRANCH   4   2
ATOM      1  C   UNL     1      -3.980   1.856  24.664  0.00  0.00    +0.000 C 
ATOM      2  C   UNL     1      -3.438   1.682  24.067  0.00  0.00    +0.000 C 
ATOM      3  C   UNL     1      -3.612   1.871  23.283  0.00  0.00    +0.000 C 
ENDBRANCH   4   2
BRANCH   6   7
ATOM      7  C   UNL     1      -0.647   1.872  24.651  0.00  0.00    +0.089 C 
BRANCH   7   8
ATOM      8  C   UNL     1      -0.658   2.511  25.174  0.00  0.00    +0.226 C 
ATOM      9  O   UNL     1      -0.863   2.393  25.965  0.00  0.00    -0.275 OA
ATOM     10  N   UNL     1      -0.463   3.266  24.906  0.00  0.00    -0.274 N 
ATOM     11  C   UNL     1      -0.258   3.383  24.116  0.00  0.00    +0.115 C 
BRANCH  10  12
ATOM     12  C   UNL     1      -0.474   3.905  25.429  0.00  0.00    +0.120 C 
BRANCH  12  13
ATOM     13  C   UNL     1      -0.916   4.577  25.250  0.00  0.00    -0.002 A 
ATOM     14  C   UNL     1      -1.681   4.660  25.548  0.00  0.00    -0.003 A 
ATOM     15  C   UNL     1      -2.123   5.333  25.367  0.00  0.00    -0.000 A 
ATOM     16  C   UNL     1      -1.801   5.922  24.889  0.00  0.00    -0.000 A 
ATOM     17  C   UNL     1      -1.036   5.840  24.591  0.00  0.00    -0.000 A 
ATOM     18  C   UNL     1      -0.593   5.167  24.771  0.00  0.00    -0.003 A 
ENDBRANCH  12  13
ENDBRANCH  10  12
ENDBRANCH   7   8
ENDBRANCH   6   7
BRANCH  22  23
ATOM     23  C   UNL     1      -3.361   0.041  24.233  0.00  0.00    +0.120 C 
BRANCH  23  24
ATOM     24  N   UNL     1      -3.304  -0.782  24.219  0.00  0.00    -0.201 NA
ATOM     25  C   UNL     1      -3.988  -1.244  24.249  0.00  0.00    +0.266 C 
ATOM     26  O   UNL     1      -4.728  -0.882  24.292  0.00  0.00    -0.268 OA
BRANCH  25  27
ATOM     27  C   UNL     1      -3.930  -2.067  24.235  0.00  0.00    +0.074 A 
ATOM     28  C   UNL     1      -4.289  -2.494  23.628  0.00  0.00    +0.103 A 
ATOM     29  N   UNL     1      -4.231  -3.318  23.614  0.00  0.00    -0.242 NA
ATOM     30  C   UNL     1      -3.816  -3.712  24.207  0.00  0.00    +0.099 A 
ATOM     31  C   UNL     1      -3.458  -3.284  24.815  0.00  0.00    +0.021 A 
ATOM     32  C   UNL     1      -3.515  -2.462  24.829  0.00  0.00    +0.008 A 
ENDBRANCH  25  27
ENDBRANCH  23  24
ENDBRANCH  22  23
TORSDOF 8
ENDMDL
MODEL 5
REMARK VINA RESULT:     -10.1      1.325      5.887
REMARK  Name = 
REMARK  8 active torsions:
REMARK  status: ('A' for Active; 'I' for Inactive)
REMARK    1  A    between atoms: C_2  and  C_4
REMARK    2  A    between atoms: C_6  and  C_7
REMARK    3  A    between atoms: C_7  and  C_8
REMARK    4  A    between atoms: N_10  and  C_12
REMARK    5  A    between atoms: C_12  and  C_13
REMARK    6  A    between atoms: C_22  and  C_23
REMARK    7  A    between atoms: C_23  and  N_24
REMARK    8  A    between atoms: C_25  and  C_27
REMARK                            x       y       z     vdW  Elec       q    Type
REMARK                         _______ _______ _______ _____ _____    ______ ____
ROOT
ATOM      4  C   UNL     1      -2.096   1.078  24.755  0.00  0.00    +0.006 C 
ATOM      5  C   UNL     1      -2.734   0.599  24.544  0.00  0.00    +0.005 C 
ATOM      6  C   UNL     1      -3.486   0.928  24.461  0.00  0.00    +0.027 C 
ATOM     19  C   UNL     1      -3.600   1.735  24.589  0.00  0.00    -0.048 C 
ATOM     20  C   UNL     1      -4.352   2.064  24.506  0.00  0.00    +0.026 C 
ATOM     21  C   UNL     1      -2.962   2.214  24.800  0.00  0.00    -0.033 C 
ATOM     22  C   UNL     1      -2.210   1.885  24.883  0.00  0.00    +0.043 C 
ENDROOT
BRANCH   4   2
ATOM      1  C   UNL     1      -0.848   0.683  24.181  0.00  0.00    +0.000 C 
ATOM      2  C   UNL     1      -1.344   0.749  24.838  0.00  0.00    +0.000 C 
ATOM      3  C   UNL     1      -1.088   0.485  25.577  0.00  0.00    +0.000 C 
ENDBRANCH   4   2
BRANCH   6   7
ATOM      7  C   UNL     1      -4.124   0.449  24.250  0.00  0.00    +0.089 C 
BRANCH   7   8
ATOM      8  C   UNL     1      -4.263  -0.255  24.657  0.00  0.00    +0.226 C 
ATOM      9  O   UNL     1      -4.361  -0.246  25.477  0.00  0.00    -0.275 OA
ATOM     10  N   UNL     1      -4.304  -0.969  24.245  0.00  0.00    -0.274 N 
ATOM     11  C   UNL     1      -4.206  -0.978  23.426  0.00  0.00    +0.115 C 
BRANCH  10  12
ATOM     12  C   UNL     1      -4.443  -1.673  24.653  0.00  0.00    +0.120 C 
BRANCH  12  13
ATOM     13  C   UNL     1      -3.928  -2.311  24.561  0.00  0.00    -0.002 A 
ATOM     14  C   UNL     1      -3.969  -2.780  23.883  0.00  0.00    -0.003 A 
ATOM     15  C   UNL     1      -3.453  -3.418  23.792  0.00  0.00    -0.000 A 
ATOM     16  C   UNL     1      -2.898  -3.586  24.378  0.00  0.00    -0.000 A 
ATOM     17  C   UNL     1      -2.857  -3.117  25.055  0.00  0.00    -0.000 A 
ATOM     18  C   UNL     1      -3.372  -2.479  25.147  0.00  0.00    -0.003 A 
ENDBRANCH  12  13
ENDBRANCH  10  12
ENDBRANCH   7   8
ENDBRANCH   6   7
BRANCH  22  23
ATOM     23  C   UNL     1      -1.573   2.364  25.094  0.00  0.00    +0.120 C 
BRANCH  23  24
ATOM     24  N   UNL     1      -1.587   3.170  24.918  0.00  0.00    -0.201 NA
ATOM     25  C   UNL     1      -1.063   3.684  25.297  0.00  0.00    +0.266 C 
ATOM     26  O   UNL     1      -0.526   3.392  25.850  0.00  0.00    -0.268 OA
BRANCH  25  27
ATOM     27  C   UNL     1      -1.078   4.490  25.121  0.00  0.00    +0.074 A 
ATOM     28  C   UNL     1      -0.445   4.835  24.720  0.00  0.00    +0.103 A 
ATOM     29  N   UNL     1      -0.460   5.642  24.543  0.00  0.00    -0.242 NA
ATOM     30  C   UNL     1      -1.106   6.102  24.768  0.00  0.00    +0.099 A 
ATOM     31  C   UNL     1      -1.740   5.756  25.169  0.00  0.00    +0.021 A 
ATOM     32  C   UNL     1      -1.725   4.950  25.345  0.00  0.00    +0.008 A 
ENDBRANCH  25  27
ENDBRANCH  23  24
ENDBRANCH  22  23
TORSDOF 8
ENDMDL
MODEL 6
REMARK VINA RESULT:      -9.9      3.382      5.051
REMARK  Name = 
REMARK  8 active torsions:
REMARK  status: ('A' for Active; 'I' for Inactive)
REMARK    1  A    between atoms: C_2  and  C_4
REMARK    2  A    between atoms: C_6  and  C_7
REMARK    3  A    between atoms: C_7  and  C_8
REMARK    4  A    between atoms: N_10  and  C_12
REMARK    5  A    between atoms: C_12  and  C_13
REMARK    6  A    between atoms: C_22  and  C_23
REMARK    7  A    between atoms: C_23  and  N_24
REMARK    8  A    between atoms: C_25  and  C_27
REMARK                            x       y       z     vdW  Elec       q    Type
REMARK                         _______ _______ _______ _____ _____    ______ ____
ROOT
ATOM      4  C   UNL     1      -1.318  -0.140  24.616  0.00  0.00    +0.006 C 
ATOM      5  C   UNL     1      -0.558   0.089  24.391  0.00  0.00    +0.005 C 
ATOM      6  C   UNL     1      -0.446   0.793  23.974  0.00  0.00    +0.027 C 
ATOM     19  C   UNL     1      -1.094   1.267  23.783  0.00  0.00    -0.048 C 
ATOM     20  C   UNL     1      -0.983   1.970  23.366  0.00  0.00    +0.026 C 
ATOM     21  C   UNL     1      -1.855   1.037  24.007  0.00  0.00    -0.033 C 
ATOM     22  C   UNL     1      -1.966   0.334  24.424  0.00  0.00    +0.043 C 
ENDROOT
BRANCH   4   2
ATOM      1  C   UNL     1      -1.603  -1.540  24.625  0.00  0.00    +0.000 C 
ATOM      2  C   UNL     1      -1.429  -0.843  25.032  0.00  0.00    +0.000 C 
ATOM      3  C   UNL     1      -1.367  -0.850  25.855  0.00  0.00    +0.000 C 
ENDBRANCH   4   2
BRANCH   6   7
ATOM      7  C   UNL     1       0.314   1.023  23.750  0.00  0.00    +0.089 C 
BRANCH   7   8
ATOM      8  C   UNL     1       0.780   0.516  23.294  0.00  0.00    +0.226 C 
ATOM      9  O   UNL     1       0.431  -0.113  22.890  0.00  0.00    -0.275 OA
ATOM     10  N   UNL     1       1.594   0.638  23.244  0.00  0.00    -0.274 N 
ATOM     11  C   UNL     1       1.943   1.267  23.649  0.00  0.00    +0.115 C 
BRANCH  10  12
ATOM     12  C   UNL     1       2.060   0.131  22.789  0.00  0.00    +0.120 C 
BRANCH  12  13
ATOM     13  C   UNL     1       2.882   0.166  22.844  0.00  0.00    -0.002 A 
ATOM     14  C   UNL     1       3.294  -0.421  23.252  0.00  0.00    -0.003 A 
ATOM     15  C   UNL     1       4.117  -0.384  23.307  0.00  0.00    -0.000 A 
ATOM     16  C   UNL     1       4.527   0.238  22.954  0.00  0.00    -0.000 A 
ATOM     17  C   UNL     1       4.115   0.825  22.546  0.00  0.00    -0.000 A 
ATOM     18  C   UNL     1       3.292   0.790  22.491  0.00  0.00    -0.003 A 
ENDBRANCH  12  13
ENDBRANCH  10  12
ENDBRANCH   7   8
ENDBRANCH   6   7
BRANCH  22  23
ATOM     23  C   UNL     1      -2.726   0.104  24.648  0.00  0.00    +0.120 C 
BRANCH  23  24
ATOM     24  N   UNL     1      -3.299   0.677  24.807  0.00  0.00    -0.201 NA
ATOM     25  C   UNL     1      -4.100   0.477  24.779  0.00  0.00    +0.266 C 
ATOM     26  O   UNL     1      -4.327  -0.294  24.593  0.00  0.00    -0.268 OA
BRANCH  25  27
ATOM     27  C   UNL     1      -4.672   1.050  24.937  0.00  0.00    +0.074 A 
ATOM     28  C   UNL     1      -5.197   0.944  25.565  0.00  0.00    +0.103 A 
ATOM     29  N   UNL     1      -5.770   1.517  25.724  0.00  0.00    -0.242 NA
ATOM     30  C   UNL     1      -5.818   2.194  25.255  0.00  0.00    +0.099 A 
ATOM     31  C   UNL     1      -5.292   2.300  24.627  0.00  0.00    +0.021 A 
ATOM     32  C   UNL     1      -4.720   1.727  24.469  0.00  0.00    +0.008 A 
ENDBRANCH  25  27
ENDBRANCH  23  24
ENDBRANCH  22  23
TORSDOF 8
ENDMDL
MODEL 7
REMARK VINA RESULT:      -9.7      3.002      5.149
REMARK  Name = 
REMARK  8 active torsions:
REMARK  status: ('A' for Active; 'I' for Inactive)
REMARK    1  A    between atoms: C_2  and  C_4
REMARK    2  A    between atoms: C_6  and  C_7
REMARK    3  A    between atoms: C_7  and  C_8
REMARK    4  A    between atoms: N_10  and  C_12
REMARK    5  A    between atoms: C_12  and  C_13
REMARK    6  A    between atoms: C_22  and  C_23
REMARK    7  A    between atoms: C_23  and  N_24
REMARK    8  A    between atoms: C_25  and  C_27
REMARK                            x       y       z     vdW  Elec       q    Type
REMARK                         _______ _______ _______ _____ _____    ______ ____
ROOT
ATOM      4  C   UNL     1      -1.124   2.207  24.684  0.00  0.00    +0.006 C 
ATOM      5  C   UNL     1      -0.572   1.632  24.474  0.00  0.00    +0.005 C 
ATOM      6  C   UNL     1      -0.824   0.873  24.269  0.00  0.00    +0.027 C 
ATOM     19  C   UNL     1      -1.628   0.690  24.276  0.00  0.00    -0.048 C 
ATOM     20  C   UNL     1      -1.881  -0.068  24.072  0.00  0.00    +0.026 C 
ATOM     21  C   UNL     1      -2.181   1.266  24.486  0.00  0.00    -0.033 C 
ATOM     22  C   UNL     1      -1.929   2.024  24.690  0.00  0.00    +0.043 C 
ENDROOT
BRANCH   4   2
ATOM      1  C   UNL     1      -0.821   3.552  24.310  0.00  0.00    +0.000 C 
ATOM      2  C   UNL     1      -0.871   2.965  24.888  0.00  0.00    +0.000 C 
ATOM      3  C   UNL     1      -0.669   3.137  25.669  0.00  0.00    +0.000 C 
ENDBRANCH   4   2
BRANCH   6   7
ATOM      7  C   UNL     1      -0.271   0.298  24.059  0.00  0.00    +0.089 C 
BRANCH   7   8
ATOM      8  C   UNL     1       0.191   0.398  23.382  0.00  0.00    +0.226 C 
ATOM      9  O   UNL     1      -0.097   0.840  22.748  0.00  0.00    -0.275 OA
ATOM     10  N   UNL     1       0.940   0.056  23.341  0.00  0.00    -0.274 N 
ATOM     11  C   UNL     1       1.228  -0.386  23.975  0.00  0.00    +0.115 C 
BRANCH  10  12
ATOM     12  C   UNL     1       1.402   0.157  22.664  0.00  0.00    +0.120 C 
BRANCH  12  13
ATOM     13  C   UNL     1       2.220   0.243  22.732  0.00  0.00    -0.002 A 
ATOM     14  C   UNL     1       2.710  -0.419  22.691  0.00  0.00    -0.003 A 
ATOM     15  C   UNL     1       3.527  -0.332  22.759  0.00  0.00    -0.000 A 
ATOM     16  C   UNL     1       3.855   0.417  22.870  0.00  0.00    -0.000 A 
ATOM     17  C   UNL     1       3.364   1.079  22.912  0.00  0.00    -0.000 A 
ATOM     18  C   UNL     1       2.547   0.993  22.843  0.00  0.00    -0.003 A 
ENDBRANCH  12  13
ENDBRANCH  10  12
ENDBRANCH   7   8
ENDBRANCH   6   7
BRANCH  22  23
ATOM     23  C   UNL     1      -2.481   2.599  24.901  0.00  0.00    +0.120 C 
BRANCH  23  24
ATOM     24  N   UNL     1      -3.256   2.379  25.085  0.00  0.00    -0.201 NA
ATOM     25  C   UNL     1      -3.857   2.944  25.080  0.00  0.00    +0.266 C 
ATOM     26  O   UNL     1      -3.685   3.729  24.892  0.00  0.00    -0.268 OA
BRANCH  25  27
ATOM     27  C   UNL     1      -4.631   2.724  25.264  0.00  0.00    +0.074 A 
ATOM     28  C   UNL     1      -4.995   3.026  25.939  0.00  0.00    +0.103 A 
ATOM     29  N   UNL     1      -5.769   2.806  26.124  0.00  0.00    -0.242 NA
ATOM     30  C   UNL     1      -6.178   2.283  25.633  0.00  0.00    +0.099 A 
ATOM     31  C   UNL     1      -5.812   1.981  24.957  0.00  0.00    +0.021 A 
ATOM     32  C   UNL     1      -5.039   2.201  24.773  0.00  0.00    +0.008 A 
ENDBRANCH  25  27
ENDBRANCH  23  24
ENDBRANCH  22  23
TORSDOF 8
ENDMDL
MODEL 8
REMARK VINA RESULT:      -9.6      2.901      4.919
REMARK  Name = 
REMARK  8 active torsions:
REMARK  status: ('A' for Active; 'I' for Inactive)
REMARK    1  A    between atoms: C_2  and  C_4
REMARK    2  A    between atoms: C_6  and  C_7
REMARK    3  A    between atoms: C_7  and  C_8
REMARK    4  A    between atoms: N_10  and  C_12
REMARK    5  A    between atoms: C_12  and  C_13
REMARK    6  A    between atoms: C_22  and  C_23
REMARK    7  A    between atoms: C_23  and  N_24
REMARK    8  A    between atoms: C_25  and  C_27
REMARK                            x       y       z     vdW  Elec       q    Type
REMARK                         _______ _______ _______ _____ _____    ______ ____
ROOT
ATOM      4  C   UNL     1      -1.188   1.399  24.673  0.00  0.00    +0.006 C 
ATOM      5  C   UNL     1      -1.944   1.099  24.813  0.00  0.00    +0.005 C 
ATOM      6  C   UNL     1      -2.099   0.298  24.684  0.00  0.00    +0.027 C 
ATOM     19  C   UNL     1      -1.500  -0.201  24.415  0.00  0.00    -0.048 C 
ATOM     20  C   UNL     1      -1.655  -1.000  24.285  0.00  0.00    +0.026 C 
ATOM     21  C   UNL     1      -0.744   0.100  24.274  0.00  0.00    -0.033 C 
ATOM     22  C   UNL     1      -0.589   0.900  24.404  0.00  0.00    +0.043 C 
ENDROOT
BRANCH   4   2
ATOM      1  C   UNL     1      -0.789   2.456  25.548  0.00  0.00    +0.000 C 
ATOM      2  C   UNL     1      -1.033   2.199  24.802  0.00  0.00    +0.000 C 
ATOM      3  C   UNL     1      -1.122   2.741  24.187  0.00  0.00    +0.000 C 
ENDBRANCH   4   2
BRANCH   6   7
ATOM      7  C   UNL     1      -2.855  -0.002  24.825  0.00  0.00    +0.089 C 
BRANCH   7   8
ATOM      8  C   UNL     1      -3.513   0.363  24.485  0.00  0.00    +0.226 C 
ATOM      9  O   UNL     1      -3.502   0.574  23.688  0.00  0.00    -0.275 OA
ATOM     10  N   UNL     1      -4.181   0.515  24.944  0.00  0.00    -0.274 N 
ATOM     11  C   UNL     1      -4.192   0.304  25.741  0.00  0.00    +0.115 C 
BRANCH  10  12
ATOM     12  C   UNL     1      -4.840   0.880  24.604  0.00  0.00    +0.120 C 
BRANCH  12  13
ATOM     13  C   UNL     1      -5.177   1.540  24.966  0.00  0.00    -0.002 A 
ATOM     14  C   UNL     1      -5.736   1.443  25.565  0.00  0.00    -0.003 A 
ATOM     15  C   UNL     1      -6.072   2.104  25.926  0.00  0.00    -0.000 A 
ATOM     16  C   UNL     1      -5.850   2.862  25.689  0.00  0.00    -0.000 A 
ATOM     17  C   UNL     1      -5.291   2.959  25.090  0.00  0.00    -0.000 A 
ATOM     18  C   UNL     1      -4.954   2.299  24.729  0.00  0.00    -0.003 A 
ENDBRANCH  12  13
ENDBRANCH  10  12
ENDBRANCH   7   8
ENDBRANCH   6   7
BRANCH  22  23
ATOM     23  C   UNL     1       0.166   1.200  24.263  0.00  0.00    +0.120 C 
BRANCH  23  24
ATOM     24  N   UNL     1       0.677   0.807  23.747  0.00  0.00    -0.201 NA
ATOM     25  C   UNL     1       1.435   1.105  23.610  0.00  0.00    +0.266 C 
ATOM     26  O   UNL     1       1.681   1.796  23.987  0.00  0.00    -0.268 OA
BRANCH  25  27
ATOM     27  C   UNL     1       1.945   0.711  23.094  0.00  0.00    +0.074 A 
ATOM     28  C   UNL     1       1.643   0.167  22.553  0.00  0.00    +0.103 A 
ATOM     29  N   UNL     1       2.153  -0.227  22.037  0.00  0.00    -0.242 NA
ATOM     30  C   UNL     1       2.963  -0.077  22.063  0.00  0.00    +0.099 A 
ATOM     31  C   UNL     1       3.265   0.467  22.606  0.00  0.00    +0.021 A 
ATOM     32  C   UNL     1       2.755   0.861  23.121  0.00  0.00    +0.008 A 
ENDBRANCH  25  27
ENDBRANCH  23  24
ENDBRANCH  22  23
TORSDOF 8
ENDMDL
