MODEL 1
REMARK VINA RESULT:     -11.1      0.000      0.000
REMARK  Name = 
REMARK  6 active torsions:
REMARK  status: ('A' for Active; 'I' for Inactive)
REMARK    1  A    between atoms: C_2  and  C_3
REMARK    2  A    between atoms: C_3  and  O_4
REMARK    3  A    between atoms: O_4  and  C_5
REMARK    4  A    between atoms: N_18  and  C_22
REMARK    5  A    between atoms: C_25  and  O_26
REMARK    6  A    between atoms: O_26  and  C_27
REMARK                            x       y       z     vdW  Elec       q    Type
REMARK                         _______ _______ _______ _____ _____    ______ ____
ROOT
ATOM      1  O   UNL     1      -3.633   0.767  24.715  0.00  0.00    -0.271 OA
ATOM      2  C   UNL     1      -4.388   0.434  24.730  0.00  0.00    +0.271 C 
ATOM     11  N   UNL     1      -5.040   0.899  24.927  0.00  0.00    -0.269 N 
ATOM     12  C   UNL     1      -5.824   0.644  24.965  0.00  0.00    +0.096 C 
ATOM     13  C   UNL     1      -6.292   1.288  25.182  0.00  0.00    +0.045 C 
ATOM     14  C   UNL     1      -5.797   1.940  25.278  0.00  0.00    +0.126 C 
ATOM     15  N   UNL     1      -5.950   2.724  25.489  0.00  0.00    -0.187 NA
ATOM     16  C   UNL     1      -5.331   3.265  25.542  0.00  0.00    +0.333 C 
ATOM     17  O   UNL     1      -5.484   4.048  25.753  0.00  0.00    -0.250 OA
ATOM     18  N   UNL     1      -4.558   3.025  25.384  0.00  0.00    -0.190 N 
ATOM     19  C   UNL     1      -4.404   2.243  25.173  0.00  0.00    +0.256 C 
ATOM     20  O   UNL     1      -3.630   2.002  25.016  0.00  0.00    -0.272 OA
ATOM     21  C   UNL     1      -5.024   1.700  25.121  0.00  0.00    +0.173 C 
ENDROOT
BRANCH  18  22
ATOM     22  C   UNL     1      -3.938   3.568  25.437  0.00  0.00    +0.062 A 
ATOM     23  C   UNL     1      -3.529   3.657  26.148  0.00  0.00    +0.018 A 
ATOM     24  C   UNL     1      -2.909   4.200  26.201  0.00  0.00    +0.039 A 
ATOM     25  C   UNL     1      -2.699   4.652  25.543  0.00  0.00    +0.145 A 
ATOM     33  C   UNL     1      -3.108   4.561  24.833  0.00  0.00    +0.039 A 
ATOM     34  C   UNL     1      -3.728   4.019  24.780  0.00  0.00    +0.018 A 
BRANCH  25  26
ATOM     26  O   UNL     1      -2.079   5.193  25.597  0.00  0.00    -0.453 OA
BRANCH  26  27
ATOM     27  C   UNL     1      -1.367   5.044  25.208  0.00  0.00    +0.145 A 
ATOM     28  C   UNL     1      -1.063   5.597  24.675  0.00  0.00    +0.037 A 
ATOM     29  C   UNL     1      -0.351   5.448  24.287  0.00  0.00    +0.003 A 
ATOM     30  C   UNL     1       0.058   4.746  24.432  0.00  0.00    +0.000 A 
ATOM     31  C   UNL     1      -0.244   4.194  24.964  0.00  0.00    +0.003 A 
ATOM     32  C   UNL     1      -0.957   4.343  25.352  0.00  0.00    +0.037 A 
ENDBRANCH  26  27
ENDBRANCH  25  26
ENDBRANCH  18  22
BRANCH   2   3
ATOM      3  C   UNL     1      -4.491  -0.365  24.548  0.00  0.00    +0.290 C 
BRANCH   3   4
ATOM      4  O   UNL     1      -3.888  -0.782  24.169  0.00  0.00    -0.466 OA
BRANCH   4   5
ATOM      5  C   UNL     1      -3.836  -1.601  24.255  0.00  0.00    +0.139 A 
ATOM      6  C   UNL     1      -4.233  -2.097  23.730  0.00  0.00    +0.037 A 
ATOM      7  C   UNL     1      -4.181  -2.916  23.816  0.00  0.00    +0.003 A 
ATOM      8  C   UNL     1      -3.731  -3.239  24.427  0.00  0.00    +0.000 A 
ATOM      9  C   UNL     1      -3.333  -2.742  24.953  0.00  0.00    +0.003 A 
ATOM     10  C   UNL     1      -3.386  -1.924  24.867  0.00  0.00    +0.037 A 
ENDBRANCH   4   5
ENDBRANCH   3   4
ENDBRANCH   2   3
TORSDOF 6
ENDMDL
MODEL 2
REMARK VINA RESULT:     -10.7      1.040      5.561
REMARK  Name = 
REMARK  6 active torsions:
REMARK  status: ('A' for Active; 'I' for Inactive)
REMARK    1  A    between atoms: C_2  and  C_3
REMARK    2  A    between atoms: C_3  and  O_4
REMARK    3  A    between atoms: O_4  and  C_5
REMARK    4  A    between atoms: N_18  and  C_22
REMARK    5  A    between atoms: C_25  and  O_26
REMARK    6  A    between atoms: O_26  and  C_27
REMARK                            x       y       z     vdW  Elec       q    Type
REMARK                         _______ _______ _______ _____ _____    ______ ____
ROOT
ATOM      1  O   UNL     1      -2.665   2.510  25.238  0.00  0.00    -0.271 OA
ATOM      2  C   UNL     1      -3.152   3.175  25.270  0.00  0.00    +0.271 C 
ATOM     11  N   UNL     1      -3.971   3.089  25.225  0.00  0.00    -0.269 N 
ATOM     12  C   UNL     1      -4.525   3.700  25.249  0.00  0.00    +0.096 C 
ATOM     13  C   UNL     1      -5.277   3.365  25.186  0.00  0.00    +0.045 C 
ATOM     14  C   UNL     1      -5.187   2.548  25.123  0.00  0.00    +0.126 C 
ATOM     15  N   UNL     1      -5.736   1.937  25.046  0.00  0.00    -0.187 NA
ATOM     16  C   UNL     1      -5.479   1.155  24.994  0.00  0.00    +0.333 C 
ATOM     17  O   UNL     1      -6.027   0.544  24.917  0.00  0.00    -0.250 OA
ATOM     18  N   UNL     1      -4.672   0.984  25.017  0.00  0.00    -0.190 N 
ATOM     19  C   UNL     1      -4.123   1.595  25.094  0.00  0.00    +0.256 C 
ATOM     20  O   UNL     1      -3.316   1.424  25.118  0.00  0.00    -0.272 OA
ATOM     21  C   UNL     1      -4.381   2.377  25.147  0.00  0.00    +0.173 C 
ENDROOT
BRANCH  18  22
ATOM     22  C   UNL     1      -4.414   0.202  24.965  0.00  0.00    +0.062 A 
ATOM     23  C   UNL     1      -4.213  -0.213  25.649  0.00  0.00    +0.018 A 
ATOM     24  C   UNL     1      -3.955  -0.995  25.596  0.00  0.00    +0.039 A 
ATOM     25  C   UNL     1      -3.898  -1.362  24.860  0.00  0.00    +0.145 A 
ATOM     33  C   UNL     1      -4.099  -0.946  24.176  0.00  0.00    +0.039 A 
ATOM     34  C   UNL     1      -4.357  -0.165  24.228  0.00  0.00    +0.018 A 
BRANCH  25  26
ATOM     26  O   UNL     1      -3.640  -2.143  24.807  0.00  0.00    -0.453 OA
BRANCH  26  27
ATOM     27  C   UNL     1      -2.841  -2.306  24.685  0.00  0.00    +0.145 A 
ATOM     28  C   UNL     1      -2.286  -2.111  25.264  0.00  0.00    +0.037 A 
ATOM     29  C   UNL     1      -1.487  -2.274  25.142  0.00  0.00    +0.003 A 
ATOM     30  C   UNL     1      -1.242  -2.633  24.440  0.00  0.00    +0.000 A 
ATOM     31  C   UNL     1      -1.796  -2.828  23.861  0.00  0.00    +0.003 A 
ATOM     32  C   UNL     1      -2.595  -2.665  23.984  0.00  0.00    +0.037 A 
ENDBRANCH  26  27
ENDBRANCH  25  26
ENDBRANCH  18  22
BRANCH   2   3
ATOM      3  C   UNL     1      -2.820   3.926  25.348  0.00  0.00    +0.290 C 
BRANCH   3   4
ATOM      4  O   UNL     1      -2.047   4.009  25.627  0.00  0.00    -0.466 OA
BRANCH   4   5
ATOM      5  C   UNL     1      -1.536   4.550  25.271  0.00  0.00    +0.139 A 
ATOM      6  C   UNL     1      -1.743   5.347  25.228  0.00  0.00    +0.037 A 
ATOM      7  C   UNL     1      -1.232   5.888  24.873  0.00  0.00    +0.003 A 
ATOM      8  C   UNL     1      -0.513   5.632  24.560  0.00  0.00    +0.000 A 
ATOM      9  C   UNL     1      -0.305   4.834  24.603  0.00  0.00    +0.003 A 
ATOM     10  C   UNL     1      -0.817   4.294  24.958  0.00  0.00    +0.037 A 
ENDBRANCH   4   5
ENDBRANCH   3   4
ENDBRANCH   2   3
TORSDOF 6
ENDMDL
MODEL 3
REMARK VINA RESULT:     -10.4      3.366      6.148
REMARK  Name = 
REMARK  6 active torsions:
REMARK  status: ('A' for Active; 'I' for Inactive)
REMARK    1  A    between atoms: C_2  and  C_3
REMARK    2  A    between atoms: C_3  and  O_4
REMARK    3  A    between atoms: O_4  and  C_5
REMARK    4  A    between atoms: N_18  and  C_22
REMARK    5  A    between atoms: C_25  and  O_26
REMARK    6  A    between atoms: O_26  and  C_27
REMARK                            x       y       z     vdW  Elec       q    Type
REMARK                         _______ _______ _______ _____ _____    ______ ____
ROOT
ATOM      1  O   UNL     1       0.327   0.364  23.678  0.00  0.00    -0.271 OA
ATOM      2  C   UNL     1       0.743   1.074  23.722  0.00  0.00    +0.271 C 
ATOM     11  N   UNL     1       0.373   1.752  24.013  0.00  0.00    -0.269 N 
ATOM     12  C   UNL     1       0.718   2.498  24.090  0.00  0.00    +0.096 C 
ATOM     13  C   UNL     1       0.151   3.010  24.402  0.00  0.00    +0.045 C 
ATOM     14  C   UNL     1      -0.543   2.581  24.518  0.00  0.00    +0.126 C 
ATOM     15  N   UNL     1      -1.283   2.797  24.812  0.00  0.00    -0.187 NA
ATOM     16  C   UNL     1      -1.886   2.236  24.866  0.00  0.00    +0.333 C 
ATOM     17  O   UNL     1      -2.626   2.452  25.160  0.00  0.00    -0.250 OA
ATOM     18  N   UNL     1      -1.748   1.459  24.625  0.00  0.00    -0.190 N 
ATOM     19  C   UNL     1      -1.009   1.242  24.332  0.00  0.00    +0.256 C 
ATOM     20  O   UNL     1      -0.872   0.465  24.091  0.00  0.00    -0.272 OA
ATOM     21  C   UNL     1      -0.406   1.804  24.278  0.00  0.00    +0.173 C 
ENDROOT
BRANCH  18  22
ATOM     22  C   UNL     1      -2.351   0.898  24.679  0.00  0.00    +0.062 A 
ATOM     23  C   UNL     1      -2.412   0.421  25.350  0.00  0.00    +0.018 A 
ATOM     24  C   UNL     1      -3.015  -0.140  25.403  0.00  0.00    +0.039 A 
ATOM     25  C   UNL     1      -3.557  -0.224  24.786  0.00  0.00    +0.145 A 
ATOM     33  C   UNL     1      -3.495   0.253  24.116  0.00  0.00    +0.039 A 
ATOM     34  C   UNL     1      -2.893   0.813  24.062  0.00  0.00    +0.018 A 
BRANCH  25  26
ATOM     26  O   UNL     1      -4.159  -0.785  24.840  0.00  0.00    -0.453 OA
BRANCH  26  27
ATOM     27  C   UNL     1      -4.022  -1.561  24.596  0.00  0.00    +0.145 A 
ATOM     28  C   UNL     1      -3.631  -2.089  25.097  0.00  0.00    +0.037 A 
ATOM     29  C   UNL     1      -3.494  -2.865  24.853  0.00  0.00    +0.003 A 
ATOM     30  C   UNL     1      -3.749  -3.114  24.108  0.00  0.00    +0.000 A 
ATOM     31  C   UNL     1      -4.140  -2.588  23.608  0.00  0.00    +0.003 A 
ATOM     32  C   UNL     1      -4.276  -1.811  23.852  0.00  0.00    +0.037 A 
ENDBRANCH  26  27
ENDBRANCH  25  26
ENDBRANCH  18  22
BRANCH   2   3
ATOM      3  C   UNL     1       1.530   1.108  23.476  0.00  0.00    +0.290 C 
BRANCH   3   4
ATOM      4  O   UNL     1       1.865   0.468  23.077  0.00  0.00    -0.466 OA
BRANCH   4   5
ATOM      5  C   UNL     1       2.684   0.416  22.994  0.00  0.00    +0.139 A 
ATOM      6  C   UNL     1       3.116   1.073  22.748  0.00  0.00    +0.037 A 
ATOM      7  C   UNL     1       3.936   1.021  22.664  0.00  0.00    +0.003 A 
ATOM      8  C   UNL     1       4.322   0.311  22.827  0.00  0.00    +0.000 A 
ATOM      9  C   UNL     1       3.890  -0.348  23.073  0.00  0.00    +0.003 A 
ATOM     10  C   UNL     1       3.071  -0.295  23.156  0.00  0.00    +0.037 A 
ENDBRANCH   4   5
ENDBRANCH   3   4
ENDBRANCH   2   3
TORSDOF 6
ENDMDL
MODEL 4
REMARK VINA RESULT:     -10.4      3.583      5.536
REMARK  Name = 
REMARK  6 active torsions:
REMARK  status: ('A' for Active; 'I' for Inactive)
REMARK    1  A    between atoms: C_2  and  C_3
REMARK    2  A    between atoms: C_3  and  O_4
REMARK    3  A    between atoms: O_4  and  C_5
REMARK    4  A    between atoms: N_18  and  C_22
REMARK    5  A    between atoms: C_25  and  O_26
REMARK    6  A    between atoms: O_26  and  C_27
REMARK                            x       y       z     vdW  Elec       q    Type
REMARK                         _______ _______ _______ _____ _____    ______ ____
ROOT
ATOM      1  O   UNL     1       0.204   0.756  23.278  0.00  0.00    -0.271 OA
ATOM      2  C   UNL     1       0.562   0.054  23.524  0.00  0.00    +0.271 C 
ATOM     11  N   UNL     1       0.151  -0.470  24.011  0.00  0.00    -0.269 N 
ATOM     12  C   UNL     1       0.436  -1.188  24.299  0.00  0.00    +0.096 C 
ATOM     13  C   UNL     1      -0.156  -1.530  24.762  0.00  0.00    +0.045 C 
ATOM     14  C   UNL     1      -0.806  -1.023  24.759  0.00  0.00    +0.126 C 
ATOM     15  N   UNL     1      -1.547  -1.072  25.119  0.00  0.00    -0.187 NA
ATOM     16  C   UNL     1      -2.097  -0.467  25.016  0.00  0.00    +0.333 C 
ATOM     17  O   UNL     1      -2.838  -0.517  25.376  0.00  0.00    -0.250 OA
ATOM     18  N   UNL     1      -1.908   0.188  24.552  0.00  0.00    -0.190 N 
ATOM     19  C   UNL     1      -1.167   0.238  24.191  0.00  0.00    +0.256 C 
ATOM     20  O   UNL     1      -0.978   0.894  23.728  0.00  0.00    -0.272 OA
ATOM     21  C   UNL     1      -0.616  -0.368  24.295  0.00  0.00    +0.173 C 
ENDROOT
BRANCH  18  22
ATOM     22  C   UNL     1      -2.459   0.794  24.448  0.00  0.00    +0.062 A 
ATOM     23  C   UNL     1      -3.052   0.718  23.880  0.00  0.00    +0.018 A 
ATOM     24  C   UNL     1      -3.603   1.324  23.776  0.00  0.00    +0.039 A 
ATOM     25  C   UNL     1      -3.560   2.005  24.240  0.00  0.00    +0.145 A 
ATOM     33  C   UNL     1      -2.966   2.079  24.808  0.00  0.00    +0.039 A 
ATOM     34  C   UNL     1      -2.416   1.475  24.912  0.00  0.00    +0.018 A 
BRANCH  25  26
ATOM     26  O   UNL     1      -4.110   2.610  24.136  0.00  0.00    -0.453 OA
BRANCH  26  27
ATOM     27  C   UNL     1      -4.729   2.701  24.674  0.00  0.00    +0.145 A 
ATOM     28  C   UNL     1      -4.735   3.344  25.192  0.00  0.00    +0.037 A 
ATOM     29  C   UNL     1      -5.353   3.436  25.730  0.00  0.00    +0.003 A 
ATOM     30  C   UNL     1      -5.967   2.884  25.750  0.00  0.00    +0.000 A 
ATOM     31  C   UNL     1      -5.961   2.242  25.234  0.00  0.00    +0.003 A 
ATOM     32  C   UNL     1      -5.343   2.150  24.696  0.00  0.00    +0.037 A 
ENDBRANCH  26  27
ENDBRANCH  25  26
ENDBRANCH  18  22
BRANCH   2   3
ATOM      3  C   UNL     1       1.331  -0.123  23.283  0.00  0.00    +0.290 C 
BRANCH   3   4
ATOM      4  O   UNL     1       1.747   0.408  22.809  0.00  0.00    -0.466 OA
BRANCH   4   5
ATOM      5  C   UNL     1       2.573   0.401  22.808  0.00  0.00    +0.139 A 
ATOM      6  C   UNL     1       2.979  -0.315  22.772  0.00  0.00    +0.037 A 
ATOM      7  C   UNL     1       3.804  -0.323  22.770  0.00  0.00    +0.003 A 
ATOM      8  C   UNL     1       4.223   0.387  22.805  0.00  0.00    +0.000 A 
ATOM      9  C   UNL     1       3.816   1.105  22.841  0.00  0.00    +0.003 A 
ATOM     10  C   UNL     1       2.991   1.111  22.842  0.00  0.00    +0.037 A 
ENDBRANCH   4   5
ENDBRANCH   3   4
ENDBRANCH   2   3
TORSDOF 6
ENDMDL
MODEL 5
REMARK VINA RESULT:      -9.7      3.779      5.470
REMARK  Name = 
REMARK  6 active torsions:
REMARK  status: ('A' for Active; 'I' for Inactive)
REMARK    1  A    between atoms: C_2  and  C_3
REMARK    2  A    between atoms: C_3  and  O_4
REMARK    3  A    between atoms: O_4  and  C_5
REMARK    4  A    between atoms: N_18  and  C_22
REMARK    5  A    between atoms: C_25  and  O_26
REMARK    6  A    between atoms: O_26  and  C_27
REMARK                            x       y       z     vdW  Elec       q    Type
REMARK                         _______ _______ _______ _____ _____    ______ ____
ROOT
ATOM      1  O   UNL     1      -2.331   1.313  23.959  0.00  0.00    -0.271 OA
ATOM      2  C   UNL     1      -2.804   0.911  24.503  0.00  0.00    +0.271 C 
ATOM     11  N   UNL     1      -2.516   0.235  24.879  0.00  0.00    -0.269 N 
ATOM     12  C   UNL     1      -2.922  -0.221  25.432  0.00  0.00    +0.096 C 
ATOM     13  C   UNL     1      -2.429  -0.841  25.663  0.00  0.00    +0.045 C 
ATOM     14  C   UNL     1      -1.718  -0.767  25.253  0.00  0.00    +0.126 C 
ATOM     15  N   UNL     1      -1.027  -1.219  25.257  0.00  0.00    -0.187 NA
ATOM     16  C   UNL     1      -0.392  -1.006  24.777  0.00  0.00    +0.333 C 
ATOM     17  O   UNL     1       0.299  -1.458  24.781  0.00  0.00    -0.250 OA
ATOM     18  N   UNL     1      -0.445  -0.340  24.293  0.00  0.00    -0.190 N 
ATOM     19  C   UNL     1      -1.135   0.112  24.288  0.00  0.00    +0.256 C 
ATOM     20  O   UNL     1      -1.189   0.778  23.803  0.00  0.00    -0.272 OA
ATOM     21  C   UNL     1      -1.772  -0.101  24.768  0.00  0.00    +0.173 C 
ENDROOT
BRANCH  18  22
ATOM     22  C   UNL     1       0.191  -0.127  23.812  0.00  0.00    +0.062 A 
ATOM     23  C   UNL     1       0.370  -0.575  23.143  0.00  0.00    +0.018 A 
ATOM     24  C   UNL     1       1.007  -0.361  22.662  0.00  0.00    +0.039 A 
ATOM     25  C   UNL     1       1.463   0.300  22.852  0.00  0.00    +0.145 A 
ATOM     33  C   UNL     1       1.283   0.747  23.521  0.00  0.00    +0.039 A 
ATOM     34  C   UNL     1       0.648   0.534  24.001  0.00  0.00    +0.018 A 
BRANCH  25  26
ATOM     26  O   UNL     1       2.099   0.512  22.372  0.00  0.00    -0.453 OA
BRANCH  26  27
ATOM     27  C   UNL     1       2.872   0.399  22.637  0.00  0.00    +0.145 A 
ATOM     28  C   UNL     1       3.374   1.047  22.736  0.00  0.00    +0.037 A 
ATOM     29  C   UNL     1       4.147   0.933  23.001  0.00  0.00    +0.003 A 
ATOM     30  C   UNL     1       4.418   0.172  23.167  0.00  0.00    +0.000 A 
ATOM     31  C   UNL     1       3.917  -0.475  23.068  0.00  0.00    +0.003 A 
ATOM     32  C   UNL     1       3.144  -0.362  22.803  0.00  0.00    +0.037 A 
ENDBRANCH  26  27
ENDBRANCH  25  26
ENDBRANCH  18  22
BRANCH   2   3
ATOM      3  C   UNL     1      -3.564   1.184  24.671  0.00  0.00    +0.290 C 
BRANCH   3   4
ATOM      4  O   UNL     1      -3.796   1.937  24.423  0.00  0.00    -0.466 OA
BRANCH   4   5
ATOM      5  C   UNL     1      -4.432   2.314  24.789  0.00  0.00    +0.139 A 
ATOM      6  C   UNL     1      -5.176   1.960  24.791  0.00  0.00    +0.037 A 
ATOM      7  C   UNL     1      -5.813   2.337  25.156  0.00  0.00    +0.003 A 
ATOM      8  C   UNL     1      -5.704   3.069  25.520  0.00  0.00    +0.000 A 
ATOM      9  C   UNL     1      -4.958   3.424  25.519  0.00  0.00    +0.003 A 
ATOM     10  C   UNL     1      -4.323   3.046  25.153  0.00  0.00    +0.037 A 
ENDBRANCH   4   5
ENDBRANCH   3   4
ENDBRANCH   2   3
TORSDOF 6
ENDMDL
MODEL 6
REMARK VINA RESULT:      -9.5      2.567      3.866
REMARK  Name = 
REMARK  6 active torsions:
REMARK  status: ('A' for Active; 'I' for Inactive)
REMARK    1  A    between atoms: C_2  and  C_3
REMARK    2  A    between atoms: C_3  and  O_4
REMARK    3  A    between atoms: O_4  and  C_5
REMARK    4  A    between atoms: N_18  and  C_22
REMARK    5  A    between atoms: C_25  and  O_26
REMARK    6  A    between atoms: O_26  and  C_27
REMARK                            x       y       z     vdW  Elec       q    Type
REMARK                         _______ _______ _______ _____ _____    ______ ____
ROOT
ATOM      1  O   UNL     1      -1.995  -0.108  24.993  0.00  0.00    -0.271 OA
ATOM      2  C   UNL     1      -1.632  -0.778  24.676  0.00  0.00    +0.271 C 
ATOM     11  N   UNL     1      -0.881  -0.719  24.339  0.00  0.00    -0.269 N 
ATOM     12  C   UNL     1      -0.452  -1.338  24.002  0.00  0.00    +0.096 C 
ATOM     13  C   UNL     1       0.267  -1.033  23.734  0.00  0.00    +0.045 C 
ATOM     14  C   UNL     1       0.281  -0.227  23.905  0.00  0.00    +0.126 C 
ATOM     15  N   UNL     1       0.848   0.357  23.769  0.00  0.00    -0.187 NA
ATOM     16  C   UNL     1       0.706   1.134  24.006  0.00  0.00    +0.333 C 
ATOM     17  O   UNL     1       1.273   1.718  23.870  0.00  0.00    -0.250 OA
ATOM     18  N   UNL     1      -0.004   1.328  24.380  0.00  0.00    -0.190 N 
ATOM     19  C   UNL     1      -0.571   0.745  24.516  0.00  0.00    +0.256 C 
ATOM     20  O   UNL     1      -1.281   0.939  24.890  0.00  0.00    -0.272 OA
ATOM     21  C   UNL     1      -0.429  -0.033  24.279  0.00  0.00    +0.173 C 
ENDROOT
BRANCH  18  22
ATOM     22  C   UNL     1      -0.146   2.106  24.617  0.00  0.00    +0.062 A 
ATOM     23  C   UNL     1      -0.431   2.656  24.074  0.00  0.00    +0.018 A 
ATOM     24  C   UNL     1      -0.574   3.434  24.311  0.00  0.00    +0.039 A 
ATOM     25  C   UNL     1      -0.431   3.660  25.092  0.00  0.00    +0.145 A 
ATOM     33  C   UNL     1      -0.146   3.108  25.635  0.00  0.00    +0.039 A 
ATOM     34  C   UNL     1      -0.003   2.331  25.398  0.00  0.00    +0.018 A 
BRANCH  25  26
ATOM     26  O   UNL     1      -0.573   4.437  25.329  0.00  0.00    -0.453 OA
BRANCH  26  27
ATOM     27  C   UNL     1      -1.348   4.709  25.404  0.00  0.00    +0.145 A 
ATOM     28  C   UNL     1      -1.585   5.396  25.012  0.00  0.00    +0.037 A 
ATOM     29  C   UNL     1      -2.360   5.669  25.087  0.00  0.00    +0.003 A 
ATOM     30  C   UNL     1      -2.898   5.254  25.555  0.00  0.00    +0.000 A 
ATOM     31  C   UNL     1      -2.663   4.568  25.947  0.00  0.00    +0.003 A 
ATOM     32  C   UNL     1      -1.888   4.296  25.872  0.00  0.00    +0.037 A 
ENDBRANCH  26  27
ENDBRANCH  25  26
ENDBRANCH  18  22
BRANCH   2   3
ATOM      3  C   UNL     1      -2.020  -1.506  24.696  0.00  0.00    +0.290 C 
BRANCH   3   4
ATOM      4  O   UNL     1      -2.795  -1.552  24.974  0.00  0.00    -0.466 OA
BRANCH   4   5
ATOM      5  C   UNL     1      -3.337  -2.054  24.605  0.00  0.00    +0.139 A 
ATOM      6  C   UNL     1      -3.287  -2.869  24.718  0.00  0.00    +0.037 A 
ATOM      7  C   UNL     1      -3.828  -3.371  24.350  0.00  0.00    +0.003 A 
ATOM      8  C   UNL     1      -4.419  -3.057  23.868  0.00  0.00    +0.000 A 
ATOM      9  C   UNL     1      -4.469  -2.241  23.754  0.00  0.00    +0.003 A 
ATOM     10  C   UNL     1      -3.928  -1.740  24.124  0.00  0.00    +0.037 A 
ENDBRANCH   4   5
ENDBRANCH   3   4
ENDBRANCH   2   3
TORSDOF 6
ENDMDL
MODEL 7
REMARK VINA RESULT:      -9.0      2.529      5.941
REMARK  Name = 
REMARK  6 active torsions:
REMARK  status: ('A' for Active; 'I' for Inactive)
REMARK    1  A    between atoms: C_2  and  C_3
REMARK    2  A    between atoms: C_3  and  O_4
REMARK    3  A    between atoms: O_4  and  C_5
REMARK    4  A    between atoms: N_18  and  C_22
REMARK    5  A    between atoms: C_25  and  O_26
REMARK    6  A    between atoms: O_26  and  C_27
REMARK                            x       y       z     vdW  Elec       q    Type
REMARK                         _______ _______ _______ _____ _____    ______ ____
ROOT
ATOM      1  O   UNL     1      -0.690   1.704  26.410  0.00  0.00    -0.271 OA
ATOM      2  C   UNL     1      -0.387   2.470  26.367  0.00  0.00    +0.271 C 
ATOM     11  N   UNL     1      -0.732   3.023  25.860  0.00  0.00    -0.269 N 
ATOM     12  C   UNL     1      -0.490   3.805  25.759  0.00  0.00    +0.096 C 
ATOM     13  C   UNL     1      -0.988   4.155  25.201  0.00  0.00    +0.045 C 
ATOM     14  C   UNL     1      -1.536   3.589  24.959  0.00  0.00    +0.126 C 
ATOM     15  N   UNL     1      -2.160   3.620  24.420  0.00  0.00    -0.187 NA
ATOM     16  C   UNL     1      -2.626   2.953  24.288  0.00  0.00    +0.333 C 
ATOM     17  O   UNL     1      -3.250   2.984  23.749  0.00  0.00    -0.250 OA
ATOM     18  N   UNL     1      -2.467   2.253  24.695  0.00  0.00    -0.190 N 
ATOM     19  C   UNL     1      -1.844   2.221  25.234  0.00  0.00    +0.256 C 
ATOM     20  O   UNL     1      -1.685   1.521  25.641  0.00  0.00    -0.272 OA
ATOM     21  C   UNL     1      -1.378   2.890  25.366  0.00  0.00    +0.173 C 
ENDROOT
BRANCH  18  22
ATOM     22  C   UNL     1      -2.933   1.584  24.563  0.00  0.00    +0.062 A 
ATOM     23  C   UNL     1      -3.589   1.438  25.041  0.00  0.00    +0.018 A 
ATOM     24  C   UNL     1      -4.055   0.769  24.909  0.00  0.00    +0.039 A 
ATOM     25  C   UNL     1      -3.864   0.247  24.300  0.00  0.00    +0.145 A 
ATOM     33  C   UNL     1      -3.207   0.394  23.822  0.00  0.00    +0.039 A 
ATOM     34  C   UNL     1      -2.742   1.062  23.953  0.00  0.00    +0.018 A 
BRANCH  25  26
ATOM     26  O   UNL     1      -4.329  -0.420  24.168  0.00  0.00    -0.453 OA
BRANCH  26  27
ATOM     27  C   UNL     1      -4.049  -1.167  24.382  0.00  0.00    +0.145 A 
ATOM     28  C   UNL     1      -3.826  -1.315  25.163  0.00  0.00    +0.037 A 
ATOM     29  C   UNL     1      -3.547  -2.061  25.377  0.00  0.00    +0.003 A 
ATOM     30  C   UNL     1      -3.490  -2.659  24.811  0.00  0.00    +0.000 A 
ATOM     31  C   UNL     1      -3.713  -2.510  24.031  0.00  0.00    +0.003 A 
ATOM     32  C   UNL     1      -3.992  -1.764  23.817  0.00  0.00    +0.037 A 
ENDBRANCH  26  27
ENDBRANCH  25  26
ENDBRANCH  18  22
BRANCH   2   3
ATOM      3  C   UNL     1       0.261   2.685  26.830  0.00  0.00    +0.290 C 
BRANCH   3   4
ATOM      4  O   UNL     1       0.602   2.135  27.343  0.00  0.00    -0.466 OA
BRANCH   4   5
ATOM      5  C   UNL     1       1.071   2.391  27.971  0.00  0.00    +0.139 A 
ATOM      6  C   UNL     1       1.794   2.758  27.824  0.00  0.00    +0.037 A 
ATOM      7  C   UNL     1       2.264   3.014  28.452  0.00  0.00    +0.003 A 
ATOM      8  C   UNL     1       2.009   2.903  29.229  0.00  0.00    +0.000 A 
ATOM      9  C   UNL     1       1.285   2.535  29.377  0.00  0.00    +0.003 A 
ATOM     10  C   UNL     1       0.816   2.280  28.748  0.00  0.00    +0.037 A 
ENDBRANCH   4   5
ENDBRANCH   3   4
ENDBRANCH   2   3
TORSDOF 6
ENDMDL
MODEL 8
REMARK VINA RESULT:      -8.2      2.613      4.830
REMARK  Name = 
REMARK  6 active torsions:
REMARK  status: ('A' for Active; 'I' for Inactive)
REMARK    1  A    between atoms: C_2  and  C_3
REMARK    2  A    between atoms: C_3  and  O_4
REMARK    3  A    between atoms: O_4  and  C_5
REMARK    4  A    between atoms: N_18  and  C_22
REMARK    5  A    between atoms: C_25  and  O_26
REMARK    6  A    between atoms: O_26  and  C_27
REMARK                            x       y       z     vdW  Elec       q    Type
REMARK                         _______ _______ _______ _____ _____    ______ ____
ROOT
ATOM      1  O   UNL     1      -1.165   1.710  24.326  0.00  0.00    -0.271 OA
ATOM      2  C   UNL     1      -0.416   2.054  24.288  0.00  0.00    +0.271 C 
ATOM     11  N   UNL     1      -0.318   2.853  24.472  0.00  0.00    -0.269 N 
ATOM     12  C   UNL     1       0.393   3.270  24.459  0.00  0.00    +0.096 C 
ATOM     13  C   UNL     1       0.236   4.049  24.681  0.00  0.00    +0.045 C 
ATOM     14  C   UNL     1      -0.572   4.113  24.831  0.00  0.00    +0.126 C 
ATOM     15  N   UNL     1      -1.042   4.749  25.069  0.00  0.00    -0.187 NA
ATOM     16  C   UNL     1      -1.853   4.645  25.177  0.00  0.00    +0.333 C 
ATOM     17  O   UNL     1      -2.322   5.281  25.414  0.00  0.00    -0.250 OA
ATOM     18  N   UNL     1      -2.195   3.906  25.048  0.00  0.00    -0.190 N 
ATOM     19  C   UNL     1      -1.727   3.270  24.810  0.00  0.00    +0.256 C 
ATOM     20  O   UNL     1      -2.069   2.530  24.681  0.00  0.00    -0.272 OA
ATOM     21  C   UNL     1      -0.915   3.373  24.702  0.00  0.00    +0.173 C 
ENDROOT
BRANCH  18  22
ATOM     22  C   UNL     1      -3.007   3.802  25.156  0.00  0.00    +0.062 A 
ATOM     23  C   UNL     1      -3.310   3.688  25.915  0.00  0.00    +0.018 A 
ATOM     24  C   UNL     1      -4.122   3.585  26.023  0.00  0.00    +0.039 A 
ATOM     25  C   UNL     1      -4.630   3.595  25.373  0.00  0.00    +0.145 A 
ATOM     33  C   UNL     1      -4.325   3.710  24.615  0.00  0.00    +0.039 A 
ATOM     34  C   UNL     1      -3.515   3.813  24.506  0.00  0.00    +0.018 A 
BRANCH  25  26
ATOM     26  O   UNL     1      -5.440   3.492  25.482  0.00  0.00    -0.453 OA
BRANCH  26  27
ATOM     27  C   UNL     1      -5.756   2.731  25.527  0.00  0.00    +0.145 A 
ATOM     28  C   UNL     1      -5.878   2.293  24.838  0.00  0.00    +0.037 A 
ATOM     29  C   UNL     1      -6.194   1.532  24.884  0.00  0.00    +0.003 A 
ATOM     30  C   UNL     1      -6.389   1.210  25.618  0.00  0.00    +0.000 A 
ATOM     31  C   UNL     1      -6.267   1.647  26.306  0.00  0.00    +0.003 A 
ATOM     32  C   UNL     1      -5.951   2.408  26.261  0.00  0.00    +0.037 A 
ENDBRANCH  26  27
ENDBRANCH  25  26
ENDBRANCH  18  22
BRANCH   2   3
ATOM      3  C   UNL     1       0.236   1.600  24.066  0.00  0.00    +0.290 C 
BRANCH   3   4
ATOM      4  O   UNL     1       0.131   0.816  23.830  0.00  0.00    -0.466 OA
BRANCH   4   5
ATOM      5  C   UNL     1       0.696   0.449  23.354  0.00  0.00    +0.139 A 
ATOM      6  C   UNL     1       1.497   0.616  23.460  0.00  0.00    +0.037 A 
ATOM      7  C   UNL     1       2.062   0.249  22.984  0.00  0.00    +0.003 A 
ATOM      8  C   UNL     1       1.826  -0.286  22.402  0.00  0.00    +0.000 A 
ATOM      9  C   UNL     1       1.025  -0.454  22.296  0.00  0.00    +0.003 A 
ATOM     10  C   UNL     1       0.461  -0.086  22.772  0.00  0.00    +0.037 A 
ENDBRANCH   4   5
ENDBRANCH   3   4
ENDBRANCH   2   3
TORSDOF 6
ENDMDL
MODEL 9
REMARK VINA RESULT:      -8.0      2.277      5.862
REMARK  Name = 
REMARK  6 active torsions:
REMARK  status: ('A' for Active; 'I' for Inactive)
REMARK    1  A    between atoms: C_2  and  C_3
REMARK    2  A    between atoms: C_3  and  O_4
REMARK    3  A    between atoms: O_4  and  C_5
REMARK    4  A    between atoms: N_18  and  C_22
REMARK    5  A    between atoms: C_25  and  O_26
REMARK    6  A    between atoms: O_26  and  C_27
REMARK                            x       y       z     vdW  Elec       q    Type
REMARK                         _______ _______ _______ _____ _____    ______ ____
ROOT
ATOM      1  O   UNL     1      -3.188   2.389  25.023  0.00  0.00    -0.271 OA
ATOM      2  C   UNL     1      -2.918   3.168  25.054  0.00  0.00    +0.271 C 
ATOM     11  N   UNL     1      -2.108   3.324  25.083  0.00  0.00    -0.269 N 
ATOM     12  C   UNL     1      -1.759   4.070  25.116  0.00  0.00    +0.096 C 
ATOM     13  C   UNL     1      -0.940   3.968  25.138  0.00  0.00    +0.045 C 
ATOM     14  C   UNL     1      -0.784   3.158  25.119  0.00  0.00    +0.126 C 
ATOM     15  N   UNL     1      -0.078   2.731  25.129  0.00  0.00    -0.187 NA
ATOM     16  C   UNL     1      -0.094   1.907  25.104  0.00  0.00    +0.333 C 
ATOM     17  O   UNL     1       0.612   1.480  25.113  0.00  0.00    -0.250 OA
ATOM     18  N   UNL     1      -0.816   1.509  25.070  0.00  0.00    -0.190 N 
ATOM     19  C   UNL     1      -1.522   1.935  25.061  0.00  0.00    +0.256 C 
ATOM     20  O   UNL     1      -2.244   1.537  25.027  0.00  0.00    -0.272 OA
ATOM     21  C   UNL     1      -1.506   2.760  25.086  0.00  0.00    +0.173 C 
ENDROOT
BRANCH  18  22
ATOM     22  C   UNL     1      -0.831   0.684  25.045  0.00  0.00    +0.062 A 
ATOM     23  C   UNL     1      -0.736   0.292  24.326  0.00  0.00    +0.018 A 
ATOM     24  C   UNL     1      -0.752  -0.533  24.301  0.00  0.00    +0.039 A 
ATOM     25  C   UNL     1      -0.863  -0.965  24.996  0.00  0.00    +0.145 A 
ATOM     33  C   UNL     1      -0.959  -0.571  25.715  0.00  0.00    +0.039 A 
ATOM     34  C   UNL     1      -0.943   0.253  25.740  0.00  0.00    +0.018 A 
BRANCH  25  26
ATOM     26  O   UNL     1      -0.879  -1.789  24.971  0.00  0.00    -0.453 OA
BRANCH  26  27
ATOM     27  C   UNL     1      -1.588  -2.183  24.819  0.00  0.00    +0.145 A 
ATOM     28  C   UNL     1      -2.198  -2.164  25.375  0.00  0.00    +0.037 A 
ATOM     29  C   UNL     1      -2.907  -2.558  25.224  0.00  0.00    +0.003 A 
ATOM     30  C   UNL     1      -3.005  -2.972  24.516  0.00  0.00    +0.000 A 
ATOM     31  C   UNL     1      -2.396  -2.991  23.961  0.00  0.00    +0.003 A 
ATOM     32  C   UNL     1      -1.687  -2.597  24.113  0.00  0.00    +0.037 A 
ENDBRANCH  26  27
ENDBRANCH  25  26
ENDBRANCH  18  22
BRANCH   2   3
ATOM      3  C   UNL     1      -3.457   3.792  25.056  0.00  0.00    +0.290 C 
BRANCH   3   4
ATOM      4  O   UNL     1      -4.179   3.715  24.662  0.00  0.00    -0.466 OA
BRANCH   4   5
ATOM      5  C   UNL     1      -4.884   3.888  25.054  0.00  0.00    +0.139 A 
ATOM      6  C   UNL     1      -5.119   4.672  25.154  0.00  0.00    +0.037 A 
ATOM      7  C   UNL     1      -5.823   4.846  25.546  0.00  0.00    +0.003 A 
ATOM      8  C   UNL     1      -6.294   4.235  25.839  0.00  0.00    +0.000 A 
ATOM      9  C   UNL     1      -6.059   3.450  25.739  0.00  0.00    +0.003 A 
ATOM     10  C   UNL     1      -5.354   3.277  25.347  0.00  0.00    +0.037 A 
ENDBRANCH   4   5
ENDBRANCH   3   4
ENDBRANCH   2   3
TORSDOF 6
ENDMDL
MODEL 10
REMARK VINA RESULT:      -7.8      2.704      6.907
REMARK  Name = 
REMARK  6 active torsions:
REMARK  status: ('A' for Active; 'I' for Inactive)
REMARK    1  A    between atoms: C_2  and  C_3
REMARK    2  A    between atoms: C_3  and  O_4
REMARK    3  A    between atoms: O_4  and  C_5
REMARK    4  A    between atoms: N_18  and  C_22
REMARK    5  A    between atoms: C_25  and  O_26
REMARK    6  A    between atoms: O_26  and  C_27
REMARK                            x       y       z     vdW  Elec       q    Type
REMARK                         _______ _______ _______ _____ _____    ______ ____
ROOT
ATOM      1  O   UNL     1      -1.190   1.921  25.135  0.00  0.00    -0.271 OA
ATOM      2  C   UNL     1      -0.561   2.387  24.874  0.00  0.00    +0.271 C 
ATOM     11  N   UNL     1       0.064   2.043  24.459  0.00  0.00    -0.269 N 
ATOM     12  C   UNL     1       0.726   2.437  24.166  0.00  0.00    +0.096 C 
ATOM     13  C   UNL     1       1.207   1.882  23.790  0.00  0.00    +0.045 C 
ATOM     14  C   UNL     1       0.842   1.145  23.852  0.00  0.00    +0.126 C 
ATOM     15  N   UNL     1       1.062   0.396  23.585  0.00  0.00    -0.187 NA
ATOM     16  C   UNL     1       0.575  -0.253  23.732  0.00  0.00    +0.333 C 
ATOM     17  O   UNL     1       0.795  -1.003  23.465  0.00  0.00    -0.250 OA
ATOM     18  N   UNL     1      -0.132  -0.154  24.145  0.00  0.00    -0.190 N 
ATOM     19  C   UNL     1      -0.352   0.595  24.412  0.00  0.00    +0.256 C 
ATOM     20  O   UNL     1      -1.059   0.694  24.826  0.00  0.00    -0.272 OA
ATOM     21  C   UNL     1       0.136   1.245  24.266  0.00  0.00    +0.173 C 
ENDROOT
BRANCH  18  22
ATOM     22  C   UNL     1      -0.619  -0.804  24.292  0.00  0.00    +0.062 A 
ATOM     23  C   UNL     1      -1.088  -1.112  23.688  0.00  0.00    +0.018 A 
ATOM     24  C   UNL     1      -1.576  -1.762  23.834  0.00  0.00    +0.039 A 
ATOM     25  C   UNL     1      -1.593  -2.103  24.585  0.00  0.00    +0.145 A 
ATOM     33  C   UNL     1      -1.124  -1.794  25.190  0.00  0.00    +0.039 A 
ATOM     34  C   UNL     1      -0.637  -1.145  25.043  0.00  0.00    +0.018 A 
BRANCH  25  26
ATOM     26  O   UNL     1      -2.080  -2.752  24.732  0.00  0.00    -0.453 OA
BRANCH  26  27
ATOM     27  C   UNL     1      -2.887  -2.709  24.563  0.00  0.00    +0.145 A 
ATOM     28  C   UNL     1      -3.377  -2.218  25.011  0.00  0.00    +0.037 A 
ATOM     29  C   UNL     1      -4.183  -2.175  24.842  0.00  0.00    +0.003 A 
ATOM     30  C   UNL     1      -4.499  -2.623  24.225  0.00  0.00    +0.000 A 
ATOM     31  C   UNL     1      -4.010  -3.112  23.777  0.00  0.00    +0.003 A 
ATOM     32  C   UNL     1      -3.204  -3.155  23.946  0.00  0.00    +0.037 A 
ENDBRANCH  26  27
ENDBRANCH  25  26
ENDBRANCH  18  22
BRANCH   2   3
ATOM      3  C   UNL     1      -0.557   3.198  25.028  0.00  0.00    +0.290 C 
BRANCH   3   4
ATOM      4  O   UNL     1      -1.157   3.534  25.484  0.00  0.00    -0.466 OA
BRANCH   4   5
ATOM      5  C   UNL     1      -1.400   4.309  25.340  0.00  0.00    +0.139 A 
ATOM      6  C   UNL     1      -0.869   4.857  25.026  0.00  0.00    +0.037 A 
ATOM      7  C   UNL     1      -1.112   5.632  24.882  0.00  0.00    +0.003 A 
ATOM      8  C   UNL     1      -1.886   5.860  25.053  0.00  0.00    +0.000 A 
ATOM      9  C   UNL     1      -2.417   5.312  25.367  0.00  0.00    +0.003 A 
ATOM     10  C   UNL     1      -2.174   4.537  25.510  0.00  0.00    +0.037 A 
ENDBRANCH   4   5
ENDBRANCH   3   4
ENDBRANCH   2   3
TORSDOF 6
ENDMDL
