MODEL 1
REMARK VINA RESULT:     -11.1      0.000      0.000
REMARK  Name = 
REMARK  5 active torsions:
REMARK  status: ('A' for Active; 'I' for Inactive)
REMARK    1  A    between atoms: C_4  and  C_21
REMARK    2  A    between atoms: C_6  and  C_7
REMARK    3  A    between atoms: C_14  and  C_15
REMARK    4  A    between atoms: C_15  and  N_16
REMARK    5  A    between atoms: N_16  and  S_17
REMARK                            x       y       z     vdW  Elec       q    Type
REMARK                         _______ _______ _______ _____ _____    ______ ____
ROOT
ATOM      7  C   UNL     1      -3.469   1.537  24.681  0.00  0.00    +0.056 C 
ATOM      8  C   UNL     1      -3.502   1.947  25.342  0.00  0.00    +0.078 C 
ATOM      9  N   UNL     1      -3.130   2.179  24.642  0.00  0.00    -0.272 NA
ATOM     10  C   UNL     1      -3.267   1.407  23.947  0.00  0.00    +0.072 C 
ATOM     11  C   UNL     1      -3.176   1.157  23.350  0.00  0.00    +0.018 C 
ATOM     12  C   UNL     1      -3.101   1.772  23.998  0.00  0.00    +0.010 C 
ATOM     13  C   UNL     1      -2.657   2.500  23.790  0.00  0.00    +0.018 C 
ATOM     14  C   UNL     1      -2.667   2.933  24.419  0.00  0.00    +0.077 C 
ENDROOT
BRANCH   7   6
ATOM      1  C   UNL     1      -5.226   1.237  24.894  0.00  0.00    +0.153 C 
ATOM      2  N   UNL     1      -4.647   0.662  24.773  0.00  0.00    -0.253 N 
ATOM      3  N   UNL     1      -4.774  -0.152  24.728  0.00  0.00    -0.174 NA
ATOM      4  C   UNL     1      -4.045  -0.518  24.602  0.00  0.00    +0.079 A 
ATOM      5  C   UNL     1      -3.468   0.071  24.569  0.00  0.00    +0.031 A 
ATOM      6  C   UNL     1      -3.840   0.799  24.675  0.00  0.00    +0.058 A 
BRANCH   4  21
ATOM     21  C   UNL     1      -3.916  -1.329  24.523  0.00  0.00    +0.042 C 
ATOM     22  C   UNL     1      -4.189  -1.806  23.908  0.00  0.00    +0.006 C 
ATOM     23  C   UNL     1      -3.934  -2.577  24.051  0.00  0.00    +0.000 C 
ATOM     24  C   UNL     1      -3.503  -2.576  24.755  0.00  0.00    +0.000 C 
ATOM     25  C   UNL     1      -3.492  -1.805  25.047  0.00  0.00    +0.006 C 
ENDBRANCH   4  21
ENDBRANCH   7   6
BRANCH  14  15
ATOM     15  C   UNL     1      -2.410   3.657  24.718  0.00  0.00    +0.131 C 
BRANCH  15  16
ATOM     16  N   UNL     1      -1.613   3.769  24.900  0.00  0.00    -0.081 NA
BRANCH  16  17
ATOM     17  S   UNL     1      -1.317   4.532  25.000  0.00  0.00    +0.059 S 
ATOM     18  C   UNL     1      -1.020   5.296  25.099  0.00  0.00    +0.197 C 
ATOM     19  O   UNL     1      -1.966   4.724  25.471  0.00  0.00    -0.156 OA
ATOM     20  O   UNL     1      -0.667   4.341  24.528  0.00  0.00    -0.156 OA
ENDBRANCH  16  17
ENDBRANCH  15  16
ENDBRANCH  14  15
TORSDOF 5
ENDMDL
MODEL 2
REMARK VINA RESULT:     -11.1      2.610      4.914
REMARK  Name = 
REMARK  5 active torsions:
REMARK  status: ('A' for Active; 'I' for Inactive)
REMARK    1  A    between atoms: C_4  and  C_21
REMARK    2  A    between atoms: C_6  and  C_7
REMARK    3  A    between atoms: C_14  and  C_15
REMARK    4  A    between atoms: C_15  and  N_16
REMARK    5  A    between atoms: N_16  and  S_17
REMARK                            x       y       z     vdW  Elec       q    Type
REMARK                         _______ _______ _______ _____ _____    ______ ____
ROOT
ATOM      7  C   UNL     1      -3.462   1.572  24.726  0.00  0.00    +0.056 C 
ATOM      8  C   UNL     1      -3.688   1.129  25.325  0.00  0.00    +0.078 C 
ATOM      9  N   UNL     1      -3.598   0.882  24.542  0.00  0.00    -0.272 NA
ATOM     10  C   UNL     1      -3.283   1.715  23.989  0.00  0.00    +0.072 C 
ATOM     11  C   UNL     1      -3.106   1.986  23.421  0.00  0.00    +0.018 C 
ATOM     12  C   UNL     1      -3.376   1.322  23.961  0.00  0.00    +0.010 C 
ATOM     13  C   UNL     1      -3.497   0.541  23.580  0.00  0.00    +0.018 C 
ATOM     14  C   UNL     1      -3.722   0.073  24.140  0.00  0.00    +0.077 C 
ENDROOT
BRANCH   7   6
ATOM      1  C   UNL     1      -4.650   2.824  25.221  0.00  0.00    +0.153 C 
ATOM      2  N   UNL     1      -3.841   2.940  25.112  0.00  0.00    -0.253 N 
ATOM      3  N   UNL     1      -3.435   3.651  25.211  0.00  0.00    -0.174 NA
ATOM      4  C   UNL     1      -2.639   3.516  25.045  0.00  0.00    +0.079 A 
ATOM      5  C   UNL     1      -2.552   2.721  24.843  0.00  0.00    +0.031 A 
ATOM      6  C   UNL     1      -3.295   2.365  24.885  0.00  0.00    +0.058 A 
BRANCH   4  21
ATOM     21  C   UNL     1      -2.035   4.078  25.076  0.00  0.00    +0.042 C 
ATOM     22  C   UNL     1      -1.226   3.920  25.104  0.00  0.00    +0.006 C 
ATOM     23  C   UNL     1      -0.827   4.642  25.130  0.00  0.00    +0.000 C 
ATOM     24  C   UNL     1      -1.389   5.245  25.117  0.00  0.00    +0.000 C 
ATOM     25  C   UNL     1      -2.136   4.897  25.084  0.00  0.00    +0.006 C 
ENDBRANCH   4  21
ENDBRANCH   7   6
BRANCH  14  15
ATOM     15  C   UNL     1      -3.946  -0.706  24.291  0.00  0.00    +0.131 C 
BRANCH  15  16
ATOM     16  N   UNL     1      -3.521  -1.330  23.958  0.00  0.00    -0.081 NA
BRANCH  16  17
ATOM     17  S   UNL     1      -3.684  -2.107  24.184  0.00  0.00    +0.059 S 
ATOM     18  C   UNL     1      -3.846  -2.883  24.410  0.00  0.00    +0.197 C 
ATOM     19  O   UNL     1      -4.416  -2.064  23.807  0.00  0.00    -0.156 OA
ATOM     20  O   UNL     1      -2.951  -2.149  24.561  0.00  0.00    -0.156 OA
ENDBRANCH  16  17
ENDBRANCH  15  16
ENDBRANCH  14  15
TORSDOF 5
ENDMDL
MODEL 3
REMARK VINA RESULT:     -10.3      2.762      5.198
REMARK  Name = 
REMARK  5 active torsions:
REMARK  status: ('A' for Active; 'I' for Inactive)
REMARK    1  A    between atoms: C_4  and  C_21
REMARK    2  A    between atoms: C_6  and  C_7
REMARK    3  A    between atoms: C_14  and  C_15
REMARK    4  A    between atoms: C_15  and  N_16
REMARK    5  A    between atoms: N_16  and  S_17
REMARK                            x       y       z     vdW  Elec       q    Type
REMARK                         _______ _______ _______ _____ _____    ______ ____
ROOT
ATOM      7  C   UNL     1      -1.993   1.215  24.740  0.00  0.00    +0.056 C 
ATOM      8  C   UNL     1      -1.858   0.691  25.300  0.00  0.00    +0.078 C 
ATOM      9  N   UNL     1      -2.382   0.605  24.668  0.00  0.00    -0.272 NA
ATOM     10  C   UNL     1      -2.329   1.484  24.099  0.00  0.00    +0.072 C 
ATOM     11  C   UNL     1      -2.519   1.841  23.586  0.00  0.00    +0.018 C 
ATOM     12  C   UNL     1      -2.509   1.122  24.123  0.00  0.00    +0.010 C 
ATOM     13  C   UNL     1      -3.043   0.464  23.897  0.00  0.00    +0.018 C 
ATOM     14  C   UNL     1      -2.940  -0.076  24.427  0.00  0.00    +0.077 C 
ENDROOT
BRANCH   7   6
ATOM      1  C   UNL     1      -0.217   1.404  24.551  0.00  0.00    +0.153 C 
ATOM      2  N   UNL     1      -0.757   2.011  24.690  0.00  0.00    -0.253 N 
ATOM      3  N   UNL     1      -0.577   2.813  24.767  0.00  0.00    -0.174 NA
ATOM      4  C   UNL     1      -1.281   3.221  24.902  0.00  0.00    +0.079 A 
ATOM      5  C   UNL     1      -1.896   2.673  24.908  0.00  0.00    +0.031 A 
ATOM      6  C   UNL     1      -1.573   1.925  24.777  0.00  0.00    +0.058 A 
BRANCH   4  21
ATOM     21  C   UNL     1      -1.355   4.036  25.011  0.00  0.00    +0.042 C 
ATOM     22  C   UNL     1      -0.829   4.611  24.743  0.00  0.00    +0.006 C 
ATOM     23  C   UNL     1      -1.118   5.349  24.974  0.00  0.00    +0.000 C 
ATOM     24  C   UNL     1      -1.823   5.228  25.385  0.00  0.00    +0.000 C 
ATOM     25  C   UNL     1      -1.970   4.417  25.408  0.00  0.00    +0.006 C 
ENDBRANCH   4  21
ENDBRANCH   7   6
BRANCH  14  15
ATOM     15  C   UNL     1      -3.187  -0.830  24.650  0.00  0.00    +0.131 C 
BRANCH  15  16
ATOM     16  N   UNL     1      -3.261  -1.425  24.083  0.00  0.00    -0.081 NA
BRANCH  16  17
ATOM     17  S   UNL     1      -3.483  -2.186  24.311  0.00  0.00    +0.059 S 
ATOM     18  C   UNL     1      -3.705  -2.947  24.539  0.00  0.00    +0.197 C 
ATOM     19  O   UNL     1      -4.277  -1.962  24.287  0.00  0.00    -0.156 OA
ATOM     20  O   UNL     1      -2.690  -2.409  24.335  0.00  0.00    -0.156 OA
ENDBRANCH  16  17
ENDBRANCH  15  16
ENDBRANCH  14  15
TORSDOF 5
ENDMDL
MODEL 4
REMARK VINA RESULT:     -10.3      1.153      1.507
REMARK  Name = 
REMARK  5 active torsions:
REMARK  status: ('A' for Active; 'I' for Inactive)
REMARK    1  A    between atoms: C_4  and  C_21
REMARK    2  A    between atoms: C_6  and  C_7
REMARK    3  A    between atoms: C_14  and  C_15
REMARK    4  A    between atoms: C_15  and  N_16
REMARK    5  A    between atoms: N_16  and  S_17
REMARK                            x       y       z     vdW  Elec       q    Type
REMARK                         _______ _______ _______ _____ _____    ______ ____
ROOT
ATOM      7  C   UNL     1      -2.349   0.903  24.788  0.00  0.00    +0.056 C 
ATOM      8  C   UNL     1      -1.643   1.140  24.562  0.00  0.00    +0.078 C 
ATOM      9  N   UNL     1      -2.280   1.626  24.759  0.00  0.00    -0.272 NA
ATOM     10  C   UNL     1      -3.080   0.999  25.017  0.00  0.00    +0.072 C 
ATOM     11  C   UNL     1      -3.697   0.917  25.213  0.00  0.00    +0.018 C 
ATOM     12  C   UNL     1      -2.970   1.386  24.979  0.00  0.00    +0.010 C 
ATOM     13  C   UNL     1      -3.051   2.260  24.996  0.00  0.00    +0.018 C 
ATOM     14  C   UNL     1      -2.373   2.534  24.779  0.00  0.00    +0.077 C 
ENDROOT
BRANCH   7   6
ATOM      1  C   UNL     1      -1.406  -0.257  25.783  0.00  0.00    +0.153 C 
ATOM      2  N   UNL     1      -2.043  -0.444  25.294  0.00  0.00    -0.253 N 
ATOM      3  N   UNL     1      -2.359  -1.197  25.175  0.00  0.00    -0.174 NA
ATOM      4  C   UNL     1      -2.987  -1.130  24.645  0.00  0.00    +0.079 A 
ATOM      5  C   UNL     1      -3.059  -0.336  24.435  0.00  0.00    +0.031 A 
ATOM      6  C   UNL     1      -2.476   0.088  24.836  0.00  0.00    +0.058 A 
BRANCH   4  21
ATOM     21  C   UNL     1      -3.459  -1.749  24.372  0.00  0.00    +0.042 C 
ATOM     22  C   UNL     1      -4.063  -1.689  23.814  0.00  0.00    +0.006 C 
ATOM     23  C   UNL     1      -4.387  -2.440  23.707  0.00  0.00    +0.000 C 
ATOM     24  C   UNL     1      -3.983  -2.964  24.200  0.00  0.00    +0.000 C 
ATOM     25  C   UNL     1      -3.409  -2.538  24.611  0.00  0.00    +0.006 C 
ENDBRANCH   4  21
ENDBRANCH   7   6
BRANCH  14  15
ATOM     15  C   UNL     1      -1.964   3.237  24.643  0.00  0.00    +0.131 C 
BRANCH  15  16
ATOM     16  N   UNL     1      -1.842   3.770  25.260  0.00  0.00    -0.081 NA
BRANCH  16  17
ATOM     17  S   UNL     1      -1.463   4.488  25.115  0.00  0.00    +0.059 S 
ATOM     18  C   UNL     1      -1.082   5.206  24.971  0.00  0.00    +0.197 C 
ATOM     19  O   UNL     1      -2.190   4.842  24.958  0.00  0.00    -0.156 OA
ATOM     20  O   UNL     1      -0.734   4.133  25.273  0.00  0.00    -0.156 OA
ENDBRANCH  16  17
ENDBRANCH  15  16
ENDBRANCH  14  15
TORSDOF 5
ENDMDL
