MODEL 1
REMARK VINA RESULT:     -10.9      0.000      0.000
REMARK  Name = 
REMARK  7 active torsions:
REMARK  status: ('A' for Active; 'I' for Inactive)
REMARK    1  A    between atoms: O_2  and  C_3
REMARK    2  A    between atoms: C_6  and  S_9
REMARK    3  A    between atoms: S_9  and  N_12
REMARK    4  A    between atoms: N_12  and  C_13
REMARK    5  A    between atoms: C_13  and  C_14
REMARK    6  A    between atoms: C_21  and  C_22
REMARK    7  A    between atoms: C_22  and  N_23
REMARK                            x       y       z     vdW  Elec       q    Type
REMARK                         _______ _______ _______ _____ _____    ______ ____
ROOT
ATOM     14  C   UNL     1      -1.043   1.312  23.684  0.00  0.00    +0.077 C 
ATOM     15  C   UNL     1      -1.664   1.435  23.230  0.00  0.00    +0.018 C 
ATOM     16  C   UNL     1      -2.404   1.636  23.488  0.00  0.00    +0.005 C 
ATOM     17  C   UNL     1      -2.980   1.732  22.807  0.00  0.00    +0.017 C 
ATOM     18  C   UNL     1      -2.401   1.608  23.085  0.00  0.00    +0.072 C 
ATOM     19  N   UNL     1      -1.802   1.517  23.939  0.00  0.00    -0.272 NA
ATOM     20  C   UNL     1      -2.149   1.660  24.771  0.00  0.00    +0.073 C 
ATOM     21  C   UNL     1      -2.732   1.772  24.291  0.00  0.00    +0.032 C 
ENDROOT
BRANCH  14  13
ATOM     13  C   UNL     1      -0.251   1.125  23.812  0.00  0.00    +0.131 C 
BRANCH  13  12
ATOM     12  N   UNL     1       0.087   0.476  23.429  0.00  0.00    -0.076 NA
BRANCH  12   9
ATOM      9  S   UNL     1       0.889   0.482  23.237  0.00  0.00    +0.077 S 
ATOM     10  O   UNL     1       0.751  -0.075  22.643  0.00  0.00    -0.152 OA
ATOM     11  O   UNL     1       1.027   1.037  23.830  0.00  0.00    -0.152 OA
BRANCH   9   6
ATOM      3  C   UNL     1       3.296   0.498  22.660  0.00  0.00    +0.139 A 
ATOM      4  C   UNL     1       2.811  -0.114  22.392  0.00  0.00    +0.038 A 
ATOM      5  C   UNL     1       2.009  -0.119  22.584  0.00  0.00    +0.023 A 
ATOM      6  C   UNL     1       1.691   0.487  23.044  0.00  0.00    +0.124 A 
ATOM      7  C   UNL     1       2.176   1.099  23.312  0.00  0.00    +0.023 A 
ATOM      8  C   UNL     1       2.978   1.104  23.120  0.00  0.00    +0.038 A 
BRANCH   3   2
ATOM      1  C   UNL     1       4.665   0.435  23.062  0.00  0.00    +0.252 C 
ATOM      2  O   UNL     1       4.098   0.504  22.467  0.00  0.00    -0.471 OA
ENDBRANCH   3   2
ENDBRANCH   9   6
ENDBRANCH  12   9
ENDBRANCH  13  12
ENDBRANCH  14  13
BRANCH  21  22
ATOM     22  C   UNL     1      -3.506   1.976  24.487  0.00  0.00    +0.073 C 
BRANCH  22  23
ATOM     23  N   UNL     1      -3.679   2.743  24.738  0.00  0.00    -0.272 NA
ATOM     24  C   UNL     1      -3.576   3.562  24.868  0.00  0.00    +0.074 C 
ATOM     25  C   UNL     1      -4.430   3.766  25.321  0.00  0.00    +0.039 C 
ATOM     26  C   UNL     1      -5.073   4.092  25.700  0.00  0.00    +0.011 C 
ATOM     27  C   UNL     1      -4.874   3.461  25.467  0.00  0.00    +0.054 C 
ATOM     28  C   UNL     1      -4.044   3.280  25.030  0.00  0.00    +0.078 C 
ATOM     29  C   UNL     1      -5.160   2.590  25.412  0.00  0.00    +0.041 A 
ATOM     30  C   UNL     1      -5.802   2.112  25.614  0.00  0.00    +0.013 A 
ATOM     31  C   UNL     1      -5.791   1.308  25.433  0.00  0.00    +0.006 A 
ATOM     32  C   UNL     1      -5.138   0.980  25.049  0.00  0.00    +0.061 A 
ATOM     33  C   UNL     1      -4.496   1.458  24.846  0.00  0.00    +0.261 A 
ATOM     34  O   UNL     1      -3.843   1.130  24.462  0.00  0.00    -0.267 OA
ATOM     35  N   UNL     1      -4.508   2.262  25.028  0.00  0.00    -0.299 N 
ATOM     36  C   UNL     1      -4.721   2.853  25.260  0.00  0.00    +0.110 C 
ENDBRANCH  22  23
ENDBRANCH  21  22
TORSDOF 7
ENDMDL
MODEL 2
REMARK VINA RESULT:     -10.7      2.992      4.560
REMARK  Name = 
REMARK  7 active torsions:
REMARK  status: ('A' for Active; 'I' for Inactive)
REMARK    1  A    between atoms: O_2  and  C_3
REMARK    2  A    between atoms: C_6  and  S_9
REMARK    3  A    between atoms: S_9  and  N_12
REMARK    4  A    between atoms: N_12  and  C_13
REMARK    5  A    between atoms: C_13  and  C_14
REMARK    6  A    between atoms: C_21  and  C_22
REMARK    7  A    between atoms: C_22  and  N_23
REMARK                            x       y       z     vdW  Elec       q    Type
REMARK                         _______ _______ _______ _____ _____    ______ ____
ROOT
ATOM     14  C   UNL     1      -0.617   0.616  25.151  0.00  0.00    +0.077 C 
ATOM     15  C   UNL     1      -0.286   1.119  25.644  0.00  0.00    +0.018 C 
ATOM     16  C   UNL     1      -0.472   1.904  25.711  0.00  0.00    +0.005 C 
ATOM     17  C   UNL     1       0.023   2.312  26.338  0.00  0.00    +0.017 C 
ATOM     18  C   UNL     1      -0.180   1.809  25.973  0.00  0.00    +0.072 C 
ATOM     19  N   UNL     1      -0.800   1.417  25.226  0.00  0.00    -0.272 NA
ATOM     20  C   UNL     1      -1.404   1.949  24.794  0.00  0.00    +0.073 C 
ATOM     21  C   UNL     1      -1.055   2.409  25.292  0.00  0.00    +0.032 C 
ENDROOT
BRANCH  14  13
ATOM     13  C   UNL     1      -0.710  -0.132  24.816  0.00  0.00    +0.131 C 
BRANCH  13  12
ATOM     12  N   UNL     1      -0.932  -0.771  25.288  0.00  0.00    -0.076 NA
BRANCH  12   9
ATOM      9  S   UNL     1      -1.547  -1.266  25.050  0.00  0.00    +0.077 S 
ATOM     10  O   UNL     1      -1.205  -1.332  24.302  0.00  0.00    -0.152 OA
ATOM     11  O   UNL     1      -1.889  -1.200  25.798  0.00  0.00    -0.152 OA
BRANCH   9   6
ATOM      3  C   UNL     1      -3.393  -2.752  24.335  0.00  0.00    +0.139 A 
ATOM      4  C   UNL     1      -2.611  -3.009  24.279  0.00  0.00    +0.038 A 
ATOM      5  C   UNL     1      -1.996  -2.514  24.518  0.00  0.00    +0.023 A 
ATOM      6  C   UNL     1      -2.163  -1.761  24.812  0.00  0.00    +0.124 A 
ATOM      7  C   UNL     1      -2.945  -1.504  24.868  0.00  0.00    +0.023 A 
ATOM      8  C   UNL     1      -3.560  -1.999  24.629  0.00  0.00    +0.038 A 
BRANCH   3   2
ATOM      1  C   UNL     1      -4.615  -2.952  23.622  0.00  0.00    +0.252 C 
ATOM      2  O   UNL     1      -4.009  -3.247  24.097  0.00  0.00    -0.471 OA
ENDBRANCH   3   2
ENDBRANCH   9   6
ENDBRANCH  12   9
ENDBRANCH  13  12
ENDBRANCH  14  13
BRANCH  21  22
ATOM     22  C   UNL     1      -1.196   3.213  25.411  0.00  0.00    +0.073 C 
BRANCH  22  23
ATOM     23  N   UNL     1      -1.916   3.463  25.727  0.00  0.00    -0.272 NA
ATOM     24  C   UNL     1      -2.649   3.420  26.125  0.00  0.00    +0.074 C 
ATOM     25  C   UNL     1      -2.940   4.360  26.039  0.00  0.00    +0.039 C 
ATOM     26  C   UNL     1      -3.317   5.083  26.054  0.00  0.00    +0.011 C 
ATOM     27  C   UNL     1      -2.717   4.815  25.806  0.00  0.00    +0.054 C 
ATOM     28  C   UNL     1      -2.450   3.903  25.897  0.00  0.00    +0.078 C 
ATOM     29  C   UNL     1      -1.958   5.053  25.345  0.00  0.00    +0.041 A 
ATOM     30  C   UNL     1      -1.603   5.707  24.991  0.00  0.00    +0.013 A 
ATOM     31  C   UNL     1      -0.868   5.629  24.623  0.00  0.00    +0.006 A 
ATOM     32  C   UNL     1      -0.489   4.896  24.610  0.00  0.00    +0.061 A 
ATOM     33  C   UNL     1      -0.845   4.241  24.964  0.00  0.00    +0.261 A 
ATOM     34  O   UNL     1      -0.467   3.508  24.951  0.00  0.00    -0.267 OA
ATOM     35  N   UNL     1      -1.580   4.320  25.332  0.00  0.00    -0.299 N 
ATOM     36  C   UNL     1      -2.144   4.599  25.558  0.00  0.00    +0.110 C 
ENDBRANCH  22  23
ENDBRANCH  21  22
TORSDOF 7
ENDMDL
MODEL 3
REMARK VINA RESULT:     -10.7      0.575      1.426
REMARK  Name = 
REMARK  7 active torsions:
REMARK  status: ('A' for Active; 'I' for Inactive)
REMARK    1  A    between atoms: O_2  and  C_3
REMARK    2  A    between atoms: C_6  and  S_9
REMARK    3  A    between atoms: S_9  and  N_12
REMARK    4  A    between atoms: N_12  and  C_13
REMARK    5  A    between atoms: C_13  and  C_14
REMARK    6  A    between atoms: C_21  and  C_22
REMARK    7  A    between atoms: C_22  and  N_23
REMARK                            x       y       z     vdW  Elec       q    Type
REMARK                         _______ _______ _______ _____ _____    ______ ____
ROOT
ATOM     14  C   UNL     1      -0.718   1.170  23.577  0.00  0.00    +0.077 C 
ATOM     15  C   UNL     1      -1.292   1.430  23.119  0.00  0.00    +0.018 C 
ATOM     16  C   UNL     1      -2.021   1.674  23.372  0.00  0.00    +0.005 C 
ATOM     17  C   UNL     1      -2.540   1.937  22.689  0.00  0.00    +0.017 C 
ATOM     18  C   UNL     1      -1.996   1.707  22.970  0.00  0.00    +0.072 C 
ATOM     19  N   UNL     1      -1.464   1.420  23.826  0.00  0.00    -0.272 NA
ATOM     20  C   UNL     1      -1.845   1.475  24.653  0.00  0.00    +0.073 C 
ATOM     21  C   UNL     1      -2.381   1.724  24.171  0.00  0.00    +0.032 C 
ENDROOT
BRANCH  14  13
ATOM     13  C   UNL     1       0.041   0.875  23.709  0.00  0.00    +0.131 C 
BRANCH  13  12
ATOM     12  N   UNL     1       0.393   0.376  23.153  0.00  0.00    -0.076 NA
BRANCH  12   9
ATOM      9  S   UNL     1       1.212   0.378  23.057  0.00  0.00    +0.077 S 
ATOM     10  O   UNL     1       1.135  -0.096  22.385  0.00  0.00    -0.152 OA
ATOM     11  O   UNL     1       1.289   0.852  23.727  0.00  0.00    -0.152 OA
BRANCH   9   6
ATOM      3  C   UNL     1       3.670   0.384  22.769  0.00  0.00    +0.139 A 
ATOM      4  C   UNL     1       3.269   1.092  22.906  0.00  0.00    +0.038 A 
ATOM      5  C   UNL     1       2.450   1.090  23.002  0.00  0.00    +0.023 A 
ATOM      6  C   UNL     1       2.032   0.380  22.961  0.00  0.00    +0.124 A 
ATOM      7  C   UNL     1       2.433  -0.328  22.824  0.00  0.00    +0.023 A 
ATOM      8  C   UNL     1       3.252  -0.326  22.728  0.00  0.00    +0.038 A 
BRANCH   3   2
ATOM      1  C   UNL     1       4.981   0.217  23.314  0.00  0.00    +0.252 C 
ATOM      2  O   UNL     1       4.490   0.386  22.673  0.00  0.00    -0.471 OA
ENDBRANCH   3   2
ENDBRANCH   9   6
ENDBRANCH  12   9
ENDBRANCH  13  12
ENDBRANCH  14  13
BRANCH  21  22
ATOM     22  C   UNL     1      -3.140   1.985  24.361  0.00  0.00    +0.073 C 
BRANCH  22  23
ATOM     23  N   UNL     1      -3.722   1.440  24.574  0.00  0.00    -0.272 NA
ATOM     24  C   UNL     1      -4.104   0.702  24.664  0.00  0.00    +0.074 C 
ATOM     25  C   UNL     1      -4.934   0.998  25.110  0.00  0.00    +0.039 C 
ATOM     26  C   UNL     1      -5.658   1.076  25.475  0.00  0.00    +0.011 C 
ATOM     27  C   UNL     1      -5.132   1.494  25.272  0.00  0.00    +0.054 C 
ATOM     28  C   UNL     1      -4.334   1.192  24.841  0.00  0.00    +0.078 C 
ATOM     29  C   UNL     1      -4.874   2.376  25.262  0.00  0.00    +0.041 A 
ATOM     30  C   UNL     1      -5.138   3.123  25.490  0.00  0.00    +0.013 A 
ATOM     31  C   UNL     1      -4.670   3.787  25.348  0.00  0.00    +0.006 A 
ATOM     32  C   UNL     1      -3.937   3.704  24.978  0.00  0.00    +0.061 A 
ATOM     33  C   UNL     1      -3.673   2.957  24.750  0.00  0.00    +0.261 A 
ATOM     34  O   UNL     1      -2.940   2.873  24.380  0.00  0.00    -0.267 OA
ATOM     35  N   UNL     1      -4.141   2.293  24.892  0.00  0.00    -0.299 N 
ATOM     36  C   UNL     1      -4.656   1.917  25.095  0.00  0.00    +0.110 C 
ENDBRANCH  22  23
ENDBRANCH  21  22
TORSDOF 7
ENDMDL
MODEL 4
REMARK VINA RESULT:     -10.6      3.546      4.988
REMARK  Name = 
REMARK  7 active torsions:
REMARK  status: ('A' for Active; 'I' for Inactive)
REMARK    1  A    between atoms: O_2  and  C_3
REMARK    2  A    between atoms: C_6  and  S_9
REMARK    3  A    between atoms: S_9  and  N_12
REMARK    4  A    between atoms: N_12  and  C_13
REMARK    5  A    between atoms: C_13  and  C_14
REMARK    6  A    between atoms: C_21  and  C_22
REMARK    7  A    between atoms: C_22  and  N_23
REMARK                            x       y       z     vdW  Elec       q    Type
REMARK                         _______ _______ _______ _____ _____    ______ ____
ROOT
ATOM     14  C   UNL     1      -4.347   2.181  24.773  0.00  0.00    +0.077 C 
ATOM     15  C   UNL     1      -4.892   1.687  25.027  0.00  0.00    +0.018 C 
ATOM     16  C   UNL     1      -4.833   0.879  25.025  0.00  0.00    +0.005 C 
ATOM     17  C   UNL     1      -5.569   0.491  25.360  0.00  0.00    +0.017 C 
ATOM     18  C   UNL     1      -5.190   0.992  25.179  0.00  0.00    +0.072 C 
ATOM     19  N   UNL     1      -4.296   1.357  24.774  0.00  0.00    -0.272 NA
ATOM     20  C   UNL     1      -3.638   0.786  24.501  0.00  0.00    +0.073 C 
ATOM     21  C   UNL     1      -4.197   0.336  24.760  0.00  0.00    +0.032 C 
ENDROOT
BRANCH  14  13
ATOM     13  C   UNL     1      -4.052   2.936  24.621  0.00  0.00    +0.131 C 
BRANCH  13  12
ATOM     12  N   UNL     1      -3.796   3.413  25.245  0.00  0.00    -0.076 NA
BRANCH  12   9
ATOM      9  S   UNL     1      -3.087   3.829  25.182  0.00  0.00    +0.077 S 
ATOM     10  O   UNL     1      -2.911   3.650  25.969  0.00  0.00    -0.152 OA
ATOM     11  O   UNL     1      -3.262   4.008  24.397  0.00  0.00    -0.152 OA
BRANCH   9   6
ATOM      3  C   UNL     1      -0.958   5.078  24.994  0.00  0.00    +0.139 A 
ATOM      4  C   UNL     1      -1.668   5.485  25.104  0.00  0.00    +0.038 A 
ATOM      5  C   UNL     1      -2.377   5.069  25.166  0.00  0.00    +0.023 A 
ATOM      6  C   UNL     1      -2.377   4.245  25.119  0.00  0.00    +0.124 A 
ATOM      7  C   UNL     1      -1.668   3.838  25.010  0.00  0.00    +0.023 A 
ATOM      8  C   UNL     1      -0.959   4.255  24.947  0.00  0.00    +0.038 A 
BRANCH   3   2
ATOM      1  C   UNL     1       0.187   5.464  24.232  0.00  0.00    +0.252 C 
ATOM      2  O   UNL     1      -0.249   5.495  24.932  0.00  0.00    -0.471 OA
ENDBRANCH   3   2
ENDBRANCH   9   6
ENDBRANCH  12   9
ENDBRANCH  13  12
ENDBRANCH  14  13
BRANCH  21  22
ATOM     22  C   UNL     1      -4.202  -0.488  24.786  0.00  0.00    +0.073 C 
BRANCH  22  23
ATOM     23  N   UNL     1      -3.750  -0.886  25.350  0.00  0.00    -0.272 NA
ATOM     24  C   UNL     1      -3.309  -1.010  26.049  0.00  0.00    +0.074 C 
ATOM     25  C   UNL     1      -3.070  -1.961  25.928  0.00  0.00    +0.039 C 
ATOM     26  C   UNL     1      -2.794  -2.726  25.977  0.00  0.00    +0.011 C 
ATOM     27  C   UNL     1      -3.175  -2.339  25.532  0.00  0.00    +0.054 C 
ATOM     28  C   UNL     1      -3.397  -1.420  25.664  0.00  0.00    +0.078 C 
ATOM     29  C   UNL     1      -3.617  -2.392  24.728  0.00  0.00    +0.041 A 
ATOM     30  C   UNL     1      -3.789  -2.929  24.126  0.00  0.00    +0.013 A 
ATOM     31  C   UNL     1      -4.238  -2.690  23.476  0.00  0.00    +0.006 A 
ATOM     32  C   UNL     1      -4.516  -1.914  23.430  0.00  0.00    +0.061 A 
ATOM     33  C   UNL     1      -4.345  -1.378  24.032  0.00  0.00    +0.261 A 
ATOM     34  O   UNL     1      -4.623  -0.602  23.986  0.00  0.00    -0.267 OA
ATOM     35  N   UNL     1      -3.895  -1.617  24.682  0.00  0.00    -0.299 N 
ATOM     36  C   UNL     1      -3.536  -2.007  25.090  0.00  0.00    +0.110 C 
ENDBRANCH  22  23
ENDBRANCH  21  22
TORSDOF 7
ENDMDL
MODEL 5
REMARK VINA RESULT:     -10.5      1.354      1.799
REMARK  Name = 
REMARK  7 active torsions:
REMARK  status: ('A' for Active; 'I' for Inactive)
REMARK    1  A    between atoms: O_2  and  C_3
REMARK    2  A    between atoms: C_6  and  S_9
REMARK    3  A    between atoms: S_9  and  N_12
REMARK    4  A    between atoms: N_12  and  C_13
REMARK    5  A    between atoms: C_13  and  C_14
REMARK    6  A    between atoms: C_21  and  C_22
REMARK    7  A    between atoms: C_22  and  N_23
REMARK                            x       y       z     vdW  Elec       q    Type
REMARK                         _______ _______ _______ _____ _____    ______ ____
ROOT
ATOM     14  C   UNL     1       0.292   1.267  23.873  0.00  0.00    +0.077 C 
ATOM     15  C   UNL     1      -0.330   0.909  24.176  0.00  0.00    +0.018 C 
ATOM     16  C   UNL     1      -1.026   1.267  24.382  0.00  0.00    +0.005 C 
ATOM     17  C   UNL     1      -1.618   0.680  24.713  0.00  0.00    +0.017 C 
ATOM     18  C   UNL     1      -1.046   0.871  24.459  0.00  0.00    +0.072 C 
ATOM     19  N   UNL     1      -0.421   1.624  24.087  0.00  0.00    -0.272 NA
ATOM     20  C   UNL     1      -0.707   2.490  24.046  0.00  0.00    +0.073 C 
ATOM     21  C   UNL     1      -1.294   2.102  24.340  0.00  0.00    +0.032 C 
ENDROOT
BRANCH  14  13
ATOM     13  C   UNL     1       1.060   1.280  23.575  0.00  0.00    +0.131 C 
BRANCH  13  12
ATOM     12  N   UNL     1       1.356   0.625  23.168  0.00  0.00    -0.076 NA
BRANCH  12   9
ATOM      9  S   UNL     1       2.171   0.517  23.098  0.00  0.00    +0.077 S 
ATOM     10  O   UNL     1       2.300   1.235  23.485  0.00  0.00    -0.152 OA
ATOM     11  O   UNL     1       2.042  -0.200  22.712  0.00  0.00    -0.152 OA
BRANCH   9   6
ATOM      3  C   UNL     1       4.616   0.191  22.890  0.00  0.00    +0.139 A 
ATOM      4  C   UNL     1       4.139  -0.424  23.163  0.00  0.00    +0.038 A 
ATOM      5  C   UNL     1       3.325  -0.316  23.232  0.00  0.00    +0.023 A 
ATOM      6  C   UNL     1       2.986   0.408  23.029  0.00  0.00    +0.124 A 
ATOM      7  C   UNL     1       3.463   1.024  22.755  0.00  0.00    +0.023 A 
ATOM      8  C   UNL     1       4.277   0.915  22.686  0.00  0.00    +0.038 A 
BRANCH   3   2
ATOM      1  C   UNL     1       5.898   0.021  23.497  0.00  0.00    +0.252 C 
ATOM      2  O   UNL     1       5.431   0.083  22.820  0.00  0.00    -0.471 OA
ENDBRANCH   3   2
ENDBRANCH   9   6
ENDBRANCH  12   9
ENDBRANCH  13  12
ENDBRANCH  14  13
BRANCH  21  22
ATOM     22  C   UNL     1      -2.026   2.403  24.570  0.00  0.00    +0.073 C 
BRANCH  22  23
ATOM     23  N   UNL     1      -2.076   2.917  25.215  0.00  0.00    -0.272 NA
ATOM     24  C   UNL     1      -1.848   3.318  25.911  0.00  0.00    +0.074 C 
ATOM     25  C   UNL     1      -2.656   3.868  26.057  0.00  0.00    +0.039 C 
ATOM     26  C   UNL     1      -3.237   4.379  26.314  0.00  0.00    +0.011 C 
ATOM     27  C   UNL     1      -3.139   3.927  25.785  0.00  0.00    +0.054 C 
ATOM     28  C   UNL     1      -2.352   3.401  25.658  0.00  0.00    +0.078 C 
ATOM     29  C   UNL     1      -3.556   3.591  25.038  0.00  0.00    +0.041 A 
ATOM     30  C   UNL     1      -4.260   3.655  24.614  0.00  0.00    +0.013 A 
ATOM     31  C   UNL     1      -4.374   3.204  23.933  0.00  0.00    +0.006 A 
ATOM     32  C   UNL     1      -3.784   2.688  23.676  0.00  0.00    +0.061 A 
ATOM     33  C   UNL     1      -3.079   2.624  24.100  0.00  0.00    +0.261 A 
ATOM     34  O   UNL     1      -2.489   2.108  23.843  0.00  0.00    -0.267 OA
ATOM     35  N   UNL     1      -2.965   3.075  24.781  0.00  0.00    -0.299 N 
ATOM     36  C   UNL     1      -3.083   3.511  25.275  0.00  0.00    +0.110 C 
ENDBRANCH  22  23
ENDBRANCH  21  22
TORSDOF 7
ENDMDL
MODEL 6
REMARK VINA RESULT:     -10.2      0.866      1.314
REMARK  Name = 
REMARK  7 active torsions:
REMARK  status: ('A' for Active; 'I' for Inactive)
REMARK    1  A    between atoms: O_2  and  C_3
REMARK    2  A    between atoms: C_6  and  S_9
REMARK    3  A    between atoms: S_9  and  N_12
REMARK    4  A    between atoms: N_12  and  C_13
REMARK    5  A    between atoms: C_13  and  C_14
REMARK    6  A    between atoms: C_21  and  C_22
REMARK    7  A    between atoms: C_22  and  N_23
REMARK                            x       y       z     vdW  Elec       q    Type
REMARK                         _______ _______ _______ _____ _____    ______ ____
ROOT
ATOM     14  C   UNL     1      -0.049   1.041  24.082  0.00  0.00    +0.077 C 
ATOM     15  C   UNL     1      -0.454   0.742  24.677  0.00  0.00    +0.018 C 
ATOM     16  C   UNL     1      -1.223   0.920  24.860  0.00  0.00    +0.005 C 
ATOM     17  C   UNL     1      -1.506   0.470  25.582  0.00  0.00    +0.017 C 
ATOM     18  C   UNL     1      -1.076   0.651  25.123  0.00  0.00    +0.072 C 
ATOM     19  N   UNL     1      -0.833   1.217  24.276  0.00  0.00    -0.272 NA
ATOM     20  C   UNL     1      -1.446   1.775  23.895  0.00  0.00    +0.073 C 
ATOM     21  C   UNL     1      -1.807   1.459  24.488  0.00  0.00    +0.032 C 
ENDROOT
BRANCH  14  13
ATOM     13  C   UNL     1       0.629   1.120  23.621  0.00  0.00    +0.131 C 
BRANCH  13  12
ATOM     12  N   UNL     1       0.973   0.454  23.275  0.00  0.00    -0.076 NA
BRANCH  12   9
ATOM      9  S   UNL     1       1.789   0.423  23.161  0.00  0.00    +0.077 S 
ATOM     10  O   UNL     1       1.866   1.171  23.504  0.00  0.00    -0.152 OA
ATOM     11  O   UNL     1       1.713  -0.323  22.818  0.00  0.00    -0.152 OA
BRANCH   9   6
ATOM      3  C   UNL     1       4.239   0.333  22.819  0.00  0.00    +0.139 A 
ATOM      4  C   UNL     1       3.830  -0.343  23.060  0.00  0.00    +0.038 A 
ATOM      5  C   UNL     1       3.014  -0.312  23.173  0.00  0.00    +0.023 A 
ATOM      6  C   UNL     1       2.606   0.393  23.047  0.00  0.00    +0.124 A 
ATOM      7  C   UNL     1       3.015   1.069  22.806  0.00  0.00    +0.023 A 
ATOM      8  C   UNL     1       3.831   1.038  22.692  0.00  0.00    +0.038 A 
BRANCH   3   2
ATOM      1  C   UNL     1       5.552   0.093  23.329  0.00  0.00    +0.252 C 
ATOM      2  O   UNL     1       5.056   0.303  22.705  0.00  0.00    -0.471 OA
ENDBRANCH   3   2
ENDBRANCH   9   6
ENDBRANCH  12   9
ENDBRANCH  13  12
ENDBRANCH  14  13
BRANCH  21  22
ATOM     22  C   UNL     1      -2.584   1.595  24.729  0.00  0.00    +0.073 C 
BRANCH  22  23
ATOM     23  N   UNL     1      -2.811   2.347  24.982  0.00  0.00    -0.272 NA
ATOM     24  C   UNL     1      -2.736   3.137  25.243  0.00  0.00    +0.074 C 
ATOM     25  C   UNL     1      -3.691   3.372  25.339  0.00  0.00    +0.039 C 
ATOM     26  C   UNL     1      -4.418   3.716  25.467  0.00  0.00    +0.011 C 
ATOM     27  C   UNL     1      -4.168   3.095  25.256  0.00  0.00    +0.054 C 
ATOM     28  C   UNL     1      -3.241   2.884  25.169  0.00  0.00    +0.078 C 
ATOM     29  C   UNL     1      -4.444   2.262  24.984  0.00  0.00    +0.041 A 
ATOM     30  C   UNL     1      -5.132   1.826  24.852  0.00  0.00    +0.013 A 
ATOM     31  C   UNL     1      -5.082   1.045  24.592  0.00  0.00    +0.006 A 
ATOM     32  C   UNL     1      -4.344   0.699  24.464  0.00  0.00    +0.061 A 
ATOM     33  C   UNL     1      -3.656   1.135  24.596  0.00  0.00    +0.261 A 
ATOM     34  O   UNL     1      -2.918   0.789  24.467  0.00  0.00    -0.267 OA
ATOM     35  N   UNL     1      -3.706   1.916  24.856  0.00  0.00    -0.299 N 
ATOM     36  C   UNL     1      -3.970   2.498  25.054  0.00  0.00    +0.110 C 
ENDBRANCH  22  23
ENDBRANCH  21  22
TORSDOF 7
ENDMDL
MODEL 7
REMARK VINA RESULT:     -10.2      2.057      2.868
REMARK  Name = 
REMARK  7 active torsions:
REMARK  status: ('A' for Active; 'I' for Inactive)
REMARK    1  A    between atoms: O_2  and  C_3
REMARK    2  A    between atoms: C_6  and  S_9
REMARK    3  A    between atoms: S_9  and  N_12
REMARK    4  A    between atoms: N_12  and  C_13
REMARK    5  A    between atoms: C_13  and  C_14
REMARK    6  A    between atoms: C_21  and  C_22
REMARK    7  A    between atoms: C_22  and  N_23
REMARK                            x       y       z     vdW  Elec       q    Type
REMARK                         _______ _______ _______ _____ _____    ______ ____
ROOT
ATOM     14  C   UNL     1       0.563   0.382  23.571  0.00  0.00    +0.077 C 
ATOM     15  C   UNL     1       0.151   0.913  23.964  0.00  0.00    +0.018 C 
ATOM     16  C   UNL     1      -0.599   0.810  24.251  0.00  0.00    +0.005 C 
ATOM     17  C   UNL     1      -0.897   1.542  24.675  0.00  0.00    +0.017 C 
ATOM     18  C   UNL     1      -0.466   1.180  24.341  0.00  0.00    +0.072 C 
ATOM     19  N   UNL     1      -0.202   0.285  23.867  0.00  0.00    -0.272 NA
ATOM     20  C   UNL     1      -0.783  -0.418  23.839  0.00  0.00    +0.073 C 
ATOM     21  C   UNL     1      -1.153   0.130  24.220  0.00  0.00    +0.032 C 
ENDROOT
BRANCH  14  13
ATOM     13  C   UNL     1       1.235   0.120  23.172  0.00  0.00    +0.131 C 
BRANCH  13  12
ATOM     12  N   UNL     1       1.783   0.667  22.883  0.00  0.00    -0.076 NA
BRANCH  12   9
ATOM      9  S   UNL     1       2.590   0.513  22.944  0.00  0.00    +0.077 S 
ATOM     10  O   UNL     1       2.476  -0.229  22.600  0.00  0.00    -0.152 OA
ATOM     11  O   UNL     1       2.705   1.253  23.288  0.00  0.00    -0.152 OA
BRANCH   9   6
ATOM      3  C   UNL     1       5.015   0.051  23.127  0.00  0.00    +0.139 A 
ATOM      4  C   UNL     1       4.754   0.789  22.867  0.00  0.00    +0.038 A 
ATOM      5  C   UNL     1       3.946   0.943  22.806  0.00  0.00    +0.023 A 
ATOM      6  C   UNL     1       3.399   0.359  23.005  0.00  0.00    +0.124 A 
ATOM      7  C   UNL     1       3.660  -0.380  23.265  0.00  0.00    +0.023 A 
ATOM      8  C   UNL     1       4.468  -0.533  23.326  0.00  0.00    +0.038 A 
BRANCH   3   2
ATOM      1  C   UNL     1       6.150  -0.312  23.916  0.00  0.00    +0.252 C 
ATOM      2  O   UNL     1       5.824  -0.103  23.188  0.00  0.00    -0.471 OA
ENDBRANCH   3   2
ENDBRANCH   9   6
ENDBRANCH  12   9
ENDBRANCH  13  12
ENDBRANCH  14  13
BRANCH  21  22
ATOM     22  C   UNL     1      -1.913   0.091  24.536  0.00  0.00    +0.073 C 
BRANCH  22  23
ATOM     23  N   UNL     1      -2.083  -0.449  25.138  0.00  0.00    -0.272 NA
ATOM     24  C   UNL     1      -1.948  -0.991  25.759  0.00  0.00    +0.074 C 
ATOM     25  C   UNL     1      -2.881  -1.230  25.976  0.00  0.00    +0.039 C 
ATOM     26  C   UNL     1      -3.580  -1.526  26.273  0.00  0.00    +0.011 C 
ATOM     27  C   UNL     1      -3.378  -1.076  25.774  0.00  0.00    +0.054 C 
ATOM     28  C   UNL     1      -2.470  -0.856  25.576  0.00  0.00    +0.078 C 
ATOM     29  C   UNL     1      -3.716  -0.519  25.126  0.00  0.00    +0.041 A 
ATOM     30  C   UNL     1      -4.435  -0.272  24.806  0.00  0.00    +0.013 A 
ATOM     31  C   UNL     1      -4.445   0.274  24.188  0.00  0.00    +0.006 A 
ATOM     32  C   UNL     1      -3.735   0.573  23.890  0.00  0.00    +0.061 A 
ATOM     33  C   UNL     1      -3.017   0.325  24.210  0.00  0.00    +0.261 A 
ATOM     34  O   UNL     1      -2.308   0.624  23.911  0.00  0.00    -0.267 OA
ATOM     35  N   UNL     1      -3.007  -0.221  24.828  0.00  0.00    -0.299 N 
ATOM     36  C   UNL     1      -3.226  -0.646  25.297  0.00  0.00    +0.110 C 
ENDBRANCH  22  23
ENDBRANCH  21  22
TORSDOF 7
ENDMDL
