MODEL 1
REMARK VINA RESULT:     -10.4      0.000      0.000
REMARK  Name = 
REMARK  8 active torsions:
REMARK  status: ('A' for Active; 'I' for Inactive)
REMARK    1  A    between atoms: C_4  and  C_29
REMARK    2  A    between atoms: C_6  and  C_7
REMARK    3  A    between atoms: C_14  and  C_15
REMARK    4  A    between atoms: C_15  and  N_16
REMARK    5  A    between atoms: C_17  and  C_19
REMARK    6  A    between atoms: C_19  and  C_20
REMARK    7  A    between atoms: C_20  and  C_21
REMARK    8  A    between atoms: C_21  and  C_22
REMARK                            x       y       z     vdW  Elec       q    Type
REMARK                         _______ _______ _______ _____ _____    ______ ____
ROOT
ATOM      7  C   UNL     1      -3.358   2.566  25.004  0.00  0.00    +0.056 C 
ATOM      8  C   UNL     1      -3.214   1.943  25.448  0.00  0.00    +0.078 C 
ATOM      9  N   UNL     1      -3.688   1.961  24.772  0.00  0.00    -0.272 NA
ATOM     10  C   UNL     1      -3.674   2.945  24.411  0.00  0.00    +0.072 C 
ATOM     11  C   UNL     1      -3.862   3.392  23.973  0.00  0.00    +0.018 C 
ATOM     12  C   UNL     1      -3.824   2.576  24.342  0.00  0.00    +0.010 C 
ATOM     13  C   UNL     1      -4.283   1.947  23.937  0.00  0.00    +0.018 C 
ATOM     14  C   UNL     1      -4.167   1.313  24.346  0.00  0.00    +0.079 C 
ENDROOT
BRANCH   7   6
ATOM      1  C   UNL     1      -3.872   3.620  26.364  0.00  0.00    +0.153 C 
ATOM      2  N   UNL     1      -3.242   3.763  25.852  0.00  0.00    -0.253 N 
ATOM      3  N   UNL     1      -2.736   4.415  25.874  0.00  0.00    -0.166 NA
ATOM      4  C   UNL     1      -2.187   4.333  25.264  0.00  0.00    +0.136 A 
ATOM      5  C   UNL     1      -2.353   3.631  24.864  0.00  0.00    +0.038 A 
ATOM      6  C   UNL     1      -3.005   3.279  25.227  0.00  0.00    +0.058 A 
BRANCH   4  29
ATOM     29  C   UNL     1      -1.579   4.862  25.085  0.00  0.00    +0.165 A 
ATOM     30  C   UNL     1      -0.797   4.662  24.916  0.00  0.00    +0.042 A 
ATOM     31  C   UNL     1      -0.382   5.360  24.771  0.00  0.00    +0.044 A 
ATOM     32  C   UNL     1      -0.908   5.990  24.850  0.00  0.00    +0.180 A 
ATOM     33  O   UNL     1      -1.648   5.683  25.045  0.00  0.00    -0.449 OA
ENDBRANCH   4  29
ENDBRANCH   7   6
BRANCH  14  15
ATOM     15  C   UNL     1      -4.362   0.512  24.381  0.00  0.00    +0.131 C 
BRANCH  15  16
ATOM     16  N   UNL     1      -3.842  -0.053  24.079  0.00  0.00    -0.204 NA
ATOM     17  C   UNL     1      -3.952  -0.850  24.257  0.00  0.00    +0.241 C 
ATOM     18  O   UNL     1      -4.582  -1.084  24.736  0.00  0.00    -0.273 OA
BRANCH  17  19
ATOM     19  C   UNL     1      -3.432  -1.416  23.955  0.00  0.00    +0.087 C 
BRANCH  19  20
ATOM     20  C   UNL     1      -3.316  -2.127  24.358  0.00  0.00    +0.019 C 
ATOM     25  C   UNL     1      -3.962  -2.383  23.913  0.00  0.00    +0.001 C 
ATOM     26  C   UNL     1      -4.115  -3.168  24.115  0.00  0.00    +0.000 C 
ATOM     27  C   UNL     1      -3.565  -3.397  24.685  0.00  0.00    +0.000 C 
ATOM     28  C   UNL     1      -3.071  -2.753  24.836  0.00  0.00    +0.001 C 
BRANCH  20  21
ATOM     21  C   UNL     1      -2.695  -1.721  24.719  0.00  0.00    +0.115 C 
BRANCH  21  22
ATOM     22  C   UNL     1      -1.918  -1.976  24.610  0.00  0.00    +0.365 C 
ATOM     23  O   UNL     1      -1.435  -2.118  25.264  0.00  0.00    -0.246 OA
ATOM     24  O   UNL     1      -1.624  -2.088  23.848  0.00  0.00    -0.246 OA
ENDBRANCH  21  22
ENDBRANCH  20  21
ENDBRANCH  19  20
ENDBRANCH  17  19
ENDBRANCH  15  16
ENDBRANCH  14  15
TORSDOF 8
ENDMDL
MODEL 2
REMARK VINA RESULT:     -10.0      1.874      2.643
REMARK  Name = 
REMARK  8 active torsions:
REMARK  status: ('A' for Active; 'I' for Inactive)
REMARK    1  A    between atoms: C_4  and  C_29
REMARK    2  A    between atoms: C_6  and  C_7
REMARK    3  A    between atoms: C_14  and  C_15
REMARK    4  A    between atoms: C_15  and  N_16
REMARK    5  A    between atoms: C_17  and  C_19
REMARK    6  A    between atoms: C_19  and  C_20
REMARK    7  A    between atoms: C_20  and  C_21
REMARK    8  A    between atoms: C_21  and  C_22
REMARK                            x       y       z     vdW  Elec       q    Type
REMARK                         _______ _______ _______ _____ _____    ______ ____
ROOT
ATOM      7  C   UNL     1      -0.649   1.555  25.211  0.00  0.00    +0.056 C 
ATOM      8  C   UNL     1      -1.089   1.117  25.680  0.00  0.00    +0.078 C 
ATOM      9  N   UNL     1      -0.686   0.858  25.008  0.00  0.00    -0.272 NA
ATOM     10  C   UNL     1      -0.190   1.689  24.605  0.00  0.00    +0.072 C 
ATOM     11  C   UNL     1       0.196   1.954  24.149  0.00  0.00    +0.018 C 
ATOM     12  C   UNL     1      -0.256   1.293  24.553  0.00  0.00    +0.010 C 
ATOM     13  C   UNL     1      -0.198   0.501  24.179  0.00  0.00    +0.018 C 
ATOM     14  C   UNL     1      -0.621   0.037  24.614  0.00  0.00    +0.079 C 
ENDROOT
BRANCH   7   6
ATOM      1  C   UNL     1       0.300   2.236  26.575  0.00  0.00    +0.153 C 
ATOM      2  N   UNL     1      -0.139   2.668  26.027  0.00  0.00    -0.253 N 
ATOM      3  N   UNL     1      -0.220   3.489  26.009  0.00  0.00    -0.166 NA
ATOM      4  C   UNL     1      -0.706   3.684  25.371  0.00  0.00    +0.136 A 
ATOM      5  C   UNL     1      -0.926   2.983  24.995  0.00  0.00    +0.038 A 
ATOM      6  C   UNL     1      -0.575   2.356  25.400  0.00  0.00    +0.058 A 
BRANCH   4  29
ATOM     29  C   UNL     1      -0.932   4.445  25.150  0.00  0.00    +0.165 A 
ATOM     30  C   UNL     1      -1.663   4.797  25.298  0.00  0.00    +0.042 A 
ATOM     31  C   UNL     1      -1.650   5.558  24.981  0.00  0.00    +0.044 A 
ATOM     32  C   UNL     1      -0.910   5.676  24.635  0.00  0.00    +0.180 A 
ATOM     33  O   UNL     1      -0.466   4.989  24.739  0.00  0.00    -0.449 OA
ENDBRANCH   4  29
ENDBRANCH   7   6
BRANCH  14  15
ATOM     15  C   UNL     1      -0.871  -0.745  24.685  0.00  0.00    +0.131 C 
BRANCH  15  16
ATOM     16  N   UNL     1      -1.620  -0.913  24.987  0.00  0.00    -0.204 NA
ATOM     17  C   UNL     1      -2.014  -1.599  24.753  0.00  0.00    +0.241 C 
ATOM     18  O   UNL     1      -1.660  -2.116  24.217  0.00  0.00    -0.273 OA
BRANCH  17  19
ATOM     19  C   UNL     1      -2.763  -1.767  25.055  0.00  0.00    +0.087 C 
BRANCH  19  20
ATOM     20  C   UNL     1      -3.385  -1.942  24.542  0.00  0.00    +0.019 C 
ATOM     25  C   UNL     1      -3.155  -2.723  24.668  0.00  0.00    +0.001 C 
ATOM     26  C   UNL     1      -3.656  -3.211  24.229  0.00  0.00    +0.000 C 
ATOM     27  C   UNL     1      -4.196  -2.730  23.832  0.00  0.00    +0.000 C 
ATOM     28  C   UNL     1      -4.029  -1.945  24.026  0.00  0.00    +0.001 C 
BRANCH  20  21
ATOM     21  C   UNL     1      -3.486  -1.123  24.524  0.00  0.00    +0.115 C 
BRANCH  21  22
ATOM     22  C   UNL     1      -4.154  -0.782  24.867  0.00  0.00    +0.365 C 
ATOM     23  O   UNL     1      -4.248  -0.792  25.687  0.00  0.00    -0.246 OA
ATOM     24  O   UNL     1      -4.729  -0.430  24.390  0.00  0.00    -0.246 OA
ENDBRANCH  21  22
ENDBRANCH  20  21
ENDBRANCH  19  20
ENDBRANCH  17  19
ENDBRANCH  15  16
ENDBRANCH  14  15
TORSDOF 8
ENDMDL
MODEL 3
REMARK VINA RESULT:      -9.7      3.516      5.146
REMARK  Name = 
REMARK  8 active torsions:
REMARK  status: ('A' for Active; 'I' for Inactive)
REMARK    1  A    between atoms: C_4  and  C_29
REMARK    2  A    between atoms: C_6  and  C_7
REMARK    3  A    between atoms: C_14  and  C_15
REMARK    4  A    between atoms: C_15  and  N_16
REMARK    5  A    between atoms: C_17  and  C_19
REMARK    6  A    between atoms: C_19  and  C_20
REMARK    7  A    between atoms: C_20  and  C_21
REMARK    8  A    between atoms: C_21  and  C_22
REMARK                            x       y       z     vdW  Elec       q    Type
REMARK                         _______ _______ _______ _____ _____    ______ ____
ROOT
ATOM      7  C   UNL     1      -0.445   1.143  23.691  0.00  0.00    +0.056 C 
ATOM      8  C   UNL     1      -1.064   0.962  23.257  0.00  0.00    +0.078 C 
ATOM      9  N   UNL     1      -1.034   1.540  23.845  0.00  0.00    -0.272 NA
ATOM     10  C   UNL     1      -0.061   1.533  24.237  0.00  0.00    +0.072 C 
ATOM     11  C   UNL     1       0.385   1.766  24.652  0.00  0.00    +0.018 C 
ATOM     12  C   UNL     1      -0.423   1.712  24.267  0.00  0.00    +0.010 C 
ATOM     13  C   UNL     1      -1.032   2.267  24.569  0.00  0.00    +0.018 C 
ATOM     14  C   UNL     1      -1.662   2.120  24.164  0.00  0.00    +0.079 C 
ENDROOT
BRANCH   7   6
ATOM      1  C   UNL     1      -0.210  -0.617  23.962  0.00  0.00    +0.153 C 
ATOM      2  N   UNL     1       0.358  -0.090  23.679  0.00  0.00    -0.253 N 
ATOM      3  N   UNL     1       1.134  -0.279  23.470  0.00  0.00    -0.166 NA
ATOM      4  C   UNL     1       1.505   0.413  23.217  0.00  0.00    +0.136 A 
ATOM      5  C   UNL     1       0.960   1.029  23.269  0.00  0.00    +0.038 A 
ATOM      6  C   UNL     1       0.251   0.718  23.554  0.00  0.00    +0.058 A 
BRANCH   4  29
ATOM     29  C   UNL     1       2.286   0.476  22.957  0.00  0.00    +0.165 A 
ATOM     30  C   UNL     1       2.661  -0.026  22.420  0.00  0.00    +0.042 A 
ATOM     31  C   UNL     1       3.435   0.241  22.320  0.00  0.00    +0.044 A 
ATOM     32  C   UNL     1       3.538   0.907  22.796  0.00  0.00    +0.180 A 
ATOM     33  O   UNL     1       2.829   1.053  23.190  0.00  0.00    -0.449 OA
ENDBRANCH   4  29
ENDBRANCH   7   6
BRANCH  14  15
ATOM     15  C   UNL     1      -2.448   2.350  24.070  0.00  0.00    +0.131 C 
BRANCH  15  16
ATOM     16  N   UNL     1      -2.961   2.343  24.716  0.00  0.00    -0.204 NA
ATOM     17  C   UNL     1      -3.763   2.500  24.608  0.00  0.00    +0.241 C 
ATOM     18  O   UNL     1      -4.053   2.664  23.853  0.00  0.00    -0.273 OA
BRANCH  17  19
ATOM     19  C   UNL     1      -4.275   2.494  25.255  0.00  0.00    +0.087 C 
BRANCH  19  20
ATOM     20  C   UNL     1      -5.076   2.327  25.145  0.00  0.00    +0.019 C 
ATOM     25  C   UNL     1      -4.825   1.541  25.165  0.00  0.00    +0.001 C 
ATOM     26  C   UNL     1      -5.488   1.059  25.068  0.00  0.00    +0.000 C 
ATOM     27  C   UNL     1      -6.148   1.547  24.989  0.00  0.00    +0.000 C 
ATOM     28  C   UNL     1      -5.894   2.331  25.036  0.00  0.00    +0.001 C 
BRANCH  20  21
ATOM     21  C   UNL     1      -5.159   3.148  25.148  0.00  0.00    +0.115 C 
BRANCH  21  22
ATOM     22  C   UNL     1      -5.518   3.523  25.789  0.00  0.00    +0.365 C 
ATOM     23  O   UNL     1      -5.966   4.206  25.669  0.00  0.00    -0.246 OA
ATOM     24  O   UNL     1      -5.430   3.216  26.550  0.00  0.00    -0.246 OA
ENDBRANCH  21  22
ENDBRANCH  20  21
ENDBRANCH  19  20
ENDBRANCH  17  19
ENDBRANCH  15  16
ENDBRANCH  14  15
TORSDOF 8
ENDMDL
MODEL 4
REMARK VINA RESULT:      -9.4      1.874      6.391
REMARK  Name = 
REMARK  8 active torsions:
REMARK  status: ('A' for Active; 'I' for Inactive)
REMARK    1  A    between atoms: C_4  and  C_29
REMARK    2  A    between atoms: C_6  and  C_7
REMARK    3  A    between atoms: C_14  and  C_15
REMARK    4  A    between atoms: C_15  and  N_16
REMARK    5  A    between atoms: C_17  and  C_19
REMARK    6  A    between atoms: C_19  and  C_20
REMARK    7  A    between atoms: C_20  and  C_21
REMARK    8  A    between atoms: C_21  and  C_22
REMARK                            x       y       z     vdW  Elec       q    Type
REMARK                         _______ _______ _______ _____ _____    ______ ____
ROOT
ATOM      7  C   UNL     1      -1.277  -0.232  24.874  0.00  0.00    +0.056 C 
ATOM      8  C   UNL     1      -1.116   0.282  24.312  0.00  0.00    +0.078 C 
ATOM      9  N   UNL     1      -1.016   0.399  25.123  0.00  0.00    -0.272 NA
ATOM     10  C   UNL     1      -1.324  -0.481  25.603  0.00  0.00    +0.072 C 
ATOM     11  C   UNL     1      -1.421  -0.826  26.149  0.00  0.00    +0.018 C 
ATOM     12  C   UNL     1      -1.176  -0.110  25.668  0.00  0.00    +0.010 C 
ATOM     13  C   UNL     1      -0.879   0.578  26.124  0.00  0.00    +0.018 C 
ATOM     14  C   UNL     1      -0.708   1.111  25.604  0.00  0.00    +0.079 C 
ENDROOT
BRANCH   7   6
ATOM      1  C   UNL     1      -0.321  -1.606  24.225  0.00  0.00    +0.153 C 
ATOM      2  N   UNL     1      -1.137  -1.596  24.342  0.00  0.00    -0.253 N 
ATOM      3  N   UNL     1      -1.658  -2.216  24.182  0.00  0.00    -0.166 NA
ATOM      4  C   UNL     1      -2.419  -1.968  24.380  0.00  0.00    +0.136 A 
ATOM      5  C   UNL     1      -2.369  -1.194  24.663  0.00  0.00    +0.038 A 
ATOM      6  C   UNL     1      -1.577  -0.965  24.640  0.00  0.00    +0.058 A 
BRANCH   4  29
ATOM     29  C   UNL     1      -3.109  -2.414  24.308  0.00  0.00    +0.165 A 
ATOM     30  C   UNL     1      -3.809  -2.171  23.946  0.00  0.00    +0.042 A 
ATOM     31  C   UNL     1      -4.352  -2.790  24.000  0.00  0.00    +0.044 A 
ATOM     32  C   UNL     1      -3.987  -3.415  24.394  0.00  0.00    +0.180 A 
ATOM     33  O   UNL     1      -3.219  -3.184  24.585  0.00  0.00    -0.449 OA
ENDBRANCH   4  29
ENDBRANCH   7   6
BRANCH  14  15
ATOM     15  C   UNL     1      -0.416   1.878  25.525  0.00  0.00    +0.131 C 
BRANCH  15  16
ATOM     16  N   UNL     1      -0.823   2.511  25.861  0.00  0.00    -0.204 NA
ATOM     17  C   UNL     1      -0.830   3.244  25.483  0.00  0.00    +0.241 C 
ATOM     18  O   UNL     1      -0.430   3.344  24.768  0.00  0.00    -0.273 OA
BRANCH  17  19
ATOM     19  C   UNL     1      -1.236   3.878  25.820  0.00  0.00    +0.087 C 
BRANCH  19  20
ATOM     20  C   UNL     1      -1.662   4.397  25.340  0.00  0.00    +0.019 C 
ATOM     25  C   UNL     1      -0.954   4.820  25.319  0.00  0.00    +0.001 C 
ATOM     26  C   UNL     1      -1.071   5.490  24.851  0.00  0.00    +0.000 C 
ATOM     27  C   UNL     1      -1.852   5.481  24.584  0.00  0.00    +0.000 C 
ATOM     28  C   UNL     1      -2.218   4.805  24.886  0.00  0.00    +0.001 C 
BRANCH  20  21
ATOM     21  C   UNL     1      -2.281   3.865  25.462  0.00  0.00    +0.115 C 
BRANCH  21  22
ATOM     22  C   UNL     1      -2.967   4.113  25.849  0.00  0.00    +0.365 C 
ATOM     23  O   UNL     1      -2.922   4.412  26.617  0.00  0.00    -0.246 OA
ATOM     24  O   UNL     1      -3.697   4.062  25.468  0.00  0.00    -0.246 OA
ENDBRANCH  21  22
ENDBRANCH  20  21
ENDBRANCH  19  20
ENDBRANCH  17  19
ENDBRANCH  15  16
ENDBRANCH  14  15
TORSDOF 8
ENDMDL
MODEL 5
REMARK VINA RESULT:      -9.0      1.245      5.913
REMARK  Name = 
REMARK  8 active torsions:
REMARK  status: ('A' for Active; 'I' for Inactive)
REMARK    1  A    between atoms: C_4  and  C_29
REMARK    2  A    between atoms: C_6  and  C_7
REMARK    3  A    between atoms: C_14  and  C_15
REMARK    4  A    between atoms: C_15  and  N_16
REMARK    5  A    between atoms: C_17  and  C_19
REMARK    6  A    between atoms: C_19  and  C_20
REMARK    7  A    between atoms: C_20  and  C_21
REMARK    8  A    between atoms: C_21  and  C_22
REMARK                            x       y       z     vdW  Elec       q    Type
REMARK                         _______ _______ _______ _____ _____    ______ ____
ROOT
ATOM      7  C   UNL     1      -3.582   0.452  24.887  0.00  0.00    +0.056 C 
ATOM      8  C   UNL     1      -2.922   0.854  24.793  0.00  0.00    +0.078 C 
ATOM      9  N   UNL     1      -3.677   1.173  24.894  0.00  0.00    -0.272 NA
ATOM     10  C   UNL     1      -4.342   0.368  24.992  0.00  0.00    +0.072 C 
ATOM     11  C   UNL     1      -4.948   0.139  25.078  0.00  0.00    +0.018 C 
ATOM     12  C   UNL     1      -4.319   0.772  24.985  0.00  0.00    +0.010 C 
ATOM     13  C   UNL     1      -4.600   1.603  25.016  0.00  0.00    +0.018 C 
ATOM     14  C   UNL     1      -3.977   2.034  24.927  0.00  0.00    +0.079 C 
ENDROOT
BRANCH   7   6
ATOM      1  C   UNL     1      -2.639  -0.542  26.048  0.00  0.00    +0.153 C 
ATOM      2  N   UNL     1      -3.092  -0.828  25.421  0.00  0.00    -0.253 N 
ATOM      3  N   UNL     1      -3.192  -1.621  25.216  0.00  0.00    -0.166 NA
ATOM      4  C   UNL     1      -3.686  -1.655  24.557  0.00  0.00    +0.136 A 
ATOM      5  C   UNL     1      -3.892  -0.883  24.354  0.00  0.00    +0.038 A 
ATOM      6  C   UNL     1      -3.525  -0.372  24.887  0.00  0.00    +0.058 A 
BRANCH   4  29
ATOM     29  C   UNL     1      -3.931  -2.341  24.170  0.00  0.00    +0.165 A 
ATOM     30  C   UNL     1      -3.666  -3.107  24.324  0.00  0.00    +0.042 A 
ATOM     31  C   UNL     1      -4.056  -3.620  23.809  0.00  0.00    +0.044 A 
ATOM     32  C   UNL     1      -4.562  -3.171  23.337  0.00  0.00    +0.180 A 
ATOM     33  O   UNL     1      -4.485  -2.381  23.559  0.00  0.00    -0.449 OA
ENDBRANCH   4  29
ENDBRANCH   7   6
BRANCH  14  15
ATOM     15  C   UNL     1      -3.724   2.817  24.884  0.00  0.00    +0.131 C 
BRANCH  15  16
ATOM     16  N   UNL     1      -3.058   3.060  25.308  0.00  0.00    -0.204 NA
ATOM     17  C   UNL     1      -2.694   3.778  25.128  0.00  0.00    +0.241 C 
ATOM     18  O   UNL     1      -2.994   4.253  24.524  0.00  0.00    -0.273 OA
BRANCH  17  19
ATOM     19  C   UNL     1      -2.029   4.020  25.551  0.00  0.00    +0.087 C 
BRANCH  19  20
ATOM     20  C   UNL     1      -1.388   4.357  25.156  0.00  0.00    +0.019 C 
ATOM     25  C   UNL     1      -1.772   5.068  25.320  0.00  0.00    +0.001 C 
ATOM     26  C   UNL     1      -1.316   5.682  25.008  0.00  0.00    +0.000 C 
ATOM     27  C   UNL     1      -0.651   5.349  24.653  0.00  0.00    +0.000 C 
ATOM     28  C   UNL     1      -0.694   4.530  24.743  0.00  0.00    +0.001 C 
BRANCH  20  21
ATOM     21  C   UNL     1      -1.138   3.575  25.075  0.00  0.00    +0.115 C 
BRANCH  21  22
ATOM     22  C   UNL     1      -0.435   3.328  25.429  0.00  0.00    +0.365 C 
ATOM     23  O   UNL     1      -0.362   3.338  26.251  0.00  0.00    -0.246 OA
ATOM     24  O   UNL     1       0.195   3.072  24.962  0.00  0.00    -0.246 OA
ENDBRANCH  21  22
ENDBRANCH  20  21
ENDBRANCH  19  20
ENDBRANCH  17  19
ENDBRANCH  15  16
ENDBRANCH  14  15
TORSDOF 8
ENDMDL
