MODEL 1
REMARK VINA RESULT:     -11.1      0.000      0.000
REMARK  Name = 
REMARK  8 active torsions:
REMARK  status: ('A' for Active; 'I' for Inactive)
REMARK    1  A    between atoms: O_2  and  C_3
REMARK    2  A    between atoms: C_3  and  C_4
REMARK    3  A    between atoms: C_6  and  C_7
REMARK    4  A    between atoms: C_7  and  C_8
REMARK    5  A    between atoms: C_13  and  C_14
REMARK    6  A    between atoms: C_14  and  N_15
REMARK    7  A    between atoms: N_15  and  C_16
REMARK    8  A    between atoms: C_16  and  C_17
REMARK                            x       y       z     vdW  Elec       q    Type
REMARK                         _______ _______ _______ _____ _____    ______ ____
ROOT
ATOM      8  C   UNL     1      -4.295   3.262  25.011  0.00  0.00    +0.121 C 
ATOM      9  C   UNL     1      -4.879   3.553  25.517  0.00  0.00    +0.033 C 
ATOM     10  C   UNL     1      -5.517   3.075  25.727  0.00  0.00    +0.038 C 
ATOM     11  C   UNL     1      -5.573   2.307  25.433  0.00  0.00    +0.180 C 
ATOM     12  O   UNL     1      -6.212   1.829  25.643  0.00  0.00    -0.220 OA
ATOM     13  C   UNL     1      -4.989   2.015  24.927  0.00  0.00    +0.163 C 
ATOM     24  O   UNL     1      -4.350   2.494  24.716  0.00  0.00    -0.354 OA
ENDROOT
BRANCH   8   7
ATOM      7  C   UNL     1      -3.657   3.739  24.800  0.00  0.00    +0.079 C 
BRANCH   7   6
ATOM      4  C   UNL     1      -1.700   3.489  25.617  0.00  0.00    +0.184 A 
ATOM      5  C   UNL     1      -2.244   3.388  25.004  0.00  0.00    +0.056 A 
ATOM      6  C   UNL     1      -2.961   3.718  25.243  0.00  0.00    +0.103 A 
ATOM     25  N   UNL     1      -2.861   4.023  26.003  0.00  0.00    -0.082 NA
ATOM     26  O   UNL     1      -2.081   3.881  26.234  0.00  0.00    -0.356 OA
BRANCH   4   3
ATOM      3  C   UNL     1      -0.913   3.241  25.612  0.00  0.00    +0.209 C 
BRANCH   3   2
ATOM      1  C   UNL     1       0.131   2.436  26.162  0.00  0.00    +0.175 C 
ATOM      2  O   UNL     1      -0.637   2.736  26.202  0.00  0.00    -0.343 OA
ENDBRANCH   3   2
ENDBRANCH   4   3
ENDBRANCH   7   6
ENDBRANCH   8   7
BRANCH  13  14
ATOM     14  C   UNL     1      -5.045   1.247  24.632  0.00  0.00    +0.121 C 
BRANCH  14  15
ATOM     15  N   UNL     1      -4.469   0.689  24.826  0.00  0.00    -0.211 NA
BRANCH  15  16
ATOM     16  C   UNL     1      -4.220   0.140  24.262  0.00  0.00    +0.115 C 
BRANCH  16  17
ATOM     17  C   UNL     1      -3.993  -0.617  24.497  0.00  0.00    -0.005 A 
ATOM     18  C   UNL     1      -3.590  -0.726  25.208  0.00  0.00    -0.002 A 
ATOM     19  C   UNL     1      -3.364  -1.484  25.442  0.00  0.00    +0.011 A 
ATOM     20  C   UNL     1      -3.539  -2.133  24.965  0.00  0.00    +0.058 A 
ATOM     21 CL   UNL     1      -3.312  -2.891  25.199  0.00  0.00    -0.082 Cl
ATOM     22  C   UNL     1      -3.942  -2.025  24.253  0.00  0.00    +0.011 A 
ATOM     23  C   UNL     1      -4.169  -1.267  24.019  0.00  0.00    -0.002 A 
ENDBRANCH  16  17
ENDBRANCH  15  16
ENDBRANCH  14  15
ENDBRANCH  13  14
TORSDOF 8
ENDMDL
MODEL 2
REMARK VINA RESULT:     -10.9      1.330      1.607
REMARK  Name = 
REMARK  8 active torsions:
REMARK  status: ('A' for Active; 'I' for Inactive)
REMARK    1  A    between atoms: O_2  and  C_3
REMARK    2  A    between atoms: C_3  and  C_4
REMARK    3  A    between atoms: C_6  and  C_7
REMARK    4  A    between atoms: C_7  and  C_8
REMARK    5  A    between atoms: C_13  and  C_14
REMARK    6  A    between atoms: C_14  and  N_15
REMARK    7  A    between atoms: N_15  and  C_16
REMARK    8  A    between atoms: C_16  and  C_17
REMARK                            x       y       z     vdW  Elec       q    Type
REMARK                         _______ _______ _______ _____ _____    ______ ____
ROOT
ATOM      8  C   UNL     1      -2.922   3.145  24.921  0.00  0.00    +0.121 C 
ATOM      9  C   UNL     1      -3.250   3.756  25.368  0.00  0.00    +0.033 C 
ATOM     10  C   UNL     1      -4.015   3.684  25.666  0.00  0.00    +0.038 C 
ATOM     11  C   UNL     1      -4.454   3.002  25.517  0.00  0.00    +0.180 C 
ATOM     12  O   UNL     1      -5.220   2.930  25.815  0.00  0.00    -0.220 OA
ATOM     13  C   UNL     1      -4.127   2.390  25.070  0.00  0.00    +0.163 C 
ATOM     24  O   UNL     1      -3.360   2.462  24.772  0.00  0.00    -0.354 OA
ENDROOT
BRANCH   8   7
ATOM      7  C   UNL     1      -2.156   3.216  24.623  0.00  0.00    +0.079 C 
BRANCH   7   6
ATOM      4  C   UNL     1      -0.697   1.669  24.809  0.00  0.00    +0.184 A 
ATOM      5  C   UNL     1      -1.261   2.078  24.367  0.00  0.00    +0.056 A 
ATOM      6  C   UNL     1      -1.575   2.675  24.844  0.00  0.00    +0.103 A 
ATOM     25  N   UNL     1      -1.204   2.634  25.580  0.00  0.00    -0.082 NA
ATOM     26  O   UNL     1      -0.662   2.012  25.558  0.00  0.00    -0.356 OA
BRANCH   4   3
ATOM      3  C   UNL     1      -0.247   1.029  24.547  0.00  0.00    +0.209 C 
BRANCH   3   2
ATOM      1  C   UNL     1      -0.159  -0.349  24.182  0.00  0.00    +0.175 C 
ATOM      2  O   UNL     1      -0.581   0.276  24.517  0.00  0.00    -0.343 OA
ENDBRANCH   3   2
ENDBRANCH   4   3
ENDBRANCH   7   6
ENDBRANCH   8   7
BRANCH  13  14
ATOM     14  C   UNL     1      -4.565   1.708  24.921  0.00  0.00    +0.121 C 
BRANCH  14  15
ATOM     15  N   UNL     1      -4.192   0.972  24.911  0.00  0.00    -0.211 NA
BRANCH  15  16
ATOM     16  C   UNL     1      -4.637   0.285  24.805  0.00  0.00    +0.115 C 
BRANCH  16  17
ATOM     17  C   UNL     1      -4.261  -0.449  24.782  0.00  0.00    -0.005 A 
ATOM     18  C   UNL     1      -3.881  -0.740  25.453  0.00  0.00    -0.002 A 
ATOM     19  C   UNL     1      -3.505  -1.474  25.429  0.00  0.00    +0.011 A 
ATOM     20  C   UNL     1      -3.510  -1.918  24.734  0.00  0.00    +0.058 A 
ATOM     21 CL   UNL     1      -3.135  -2.652  24.710  0.00  0.00    -0.082 Cl
ATOM     22  C   UNL     1      -3.891  -1.628  24.062  0.00  0.00    +0.011 A 
ATOM     23  C   UNL     1      -4.267  -0.893  24.086  0.00  0.00    -0.002 A 
ENDBRANCH  16  17
ENDBRANCH  15  16
ENDBRANCH  14  15
ENDBRANCH  13  14
TORSDOF 8
ENDMDL
MODEL 3
REMARK VINA RESULT:     -10.6      2.245      4.446
REMARK  Name = 
REMARK  8 active torsions:
REMARK  status: ('A' for Active; 'I' for Inactive)
REMARK    1  A    between atoms: O_2  and  C_3
REMARK    2  A    between atoms: C_3  and  C_4
REMARK    3  A    between atoms: C_6  and  C_7
REMARK    4  A    between atoms: C_7  and  C_8
REMARK    5  A    between atoms: C_13  and  C_14
REMARK    6  A    between atoms: C_14  and  N_15
REMARK    7  A    between atoms: N_15  and  C_16
REMARK    8  A    between atoms: C_16  and  C_17
REMARK                            x       y       z     vdW  Elec       q    Type
REMARK                         _______ _______ _______ _____ _____    ______ ____
ROOT
ATOM      8  C   UNL     1      -4.734   1.396  24.836  0.00  0.00    +0.121 C 
ATOM      9  C   UNL     1      -5.540   1.328  24.999  0.00  0.00    +0.033 C 
ATOM     10  C   UNL     1      -5.929   1.927  25.411  0.00  0.00    +0.038 C 
ATOM     11  C   UNL     1      -5.514   2.595  25.658  0.00  0.00    +0.180 C 
ATOM     12  O   UNL     1      -5.904   3.195  26.070  0.00  0.00    -0.220 OA
ATOM     13  C   UNL     1      -4.708   2.664  25.495  0.00  0.00    +0.163 C 
ATOM     24  O   UNL     1      -4.318   2.064  25.084  0.00  0.00    -0.354 OA
ENDROOT
BRANCH   8   7
ATOM      7  C   UNL     1      -4.344   0.797  24.425  0.00  0.00    +0.079 C 
BRANCH   7   6
ATOM      4  C   UNL     1      -2.859  -0.474  25.282  0.00  0.00    +0.184 A 
ATOM      5  C   UNL     1      -3.076   0.143  24.780  0.00  0.00    +0.056 A 
ATOM      6  C   UNL     1      -3.894   0.241  24.834  0.00  0.00    +0.103 A 
ATOM     25  N   UNL     1      -4.181  -0.316  25.371  0.00  0.00    -0.082 NA
ATOM     26  O   UNL     1      -3.541  -0.758  25.647  0.00  0.00    -0.356 OA
BRANCH   4   3
ATOM      3  C   UNL     1      -2.093  -0.757  25.399  0.00  0.00    +0.209 C 
BRANCH   3   2
ATOM      1  C   UNL     1      -1.030  -1.635  25.026  0.00  0.00    +0.175 C 
ATOM      2  O   UNL     1      -1.812  -1.385  24.945  0.00  0.00    -0.343 OA
ENDBRANCH   3   2
ENDBRANCH   4   3
ENDBRANCH   7   6
ENDBRANCH   8   7
BRANCH  13  14
ATOM     14  C   UNL     1      -4.293   3.332  25.743  0.00  0.00    +0.121 C 
BRANCH  14  15
ATOM     15  N   UNL     1      -3.511   3.443  25.504  0.00  0.00    -0.211 NA
BRANCH  15  16
ATOM     16  C   UNL     1      -3.011   3.934  25.941  0.00  0.00    +0.115 C 
BRANCH  16  17
ATOM     17  C   UNL     1      -2.295   4.185  25.619  0.00  0.00    -0.005 A 
ATOM     18  C   UNL     1      -2.215   4.957  25.342  0.00  0.00    -0.002 A 
ATOM     19  C   UNL     1      -1.498   5.207  25.019  0.00  0.00    +0.011 A 
ATOM     20  C   UNL     1      -0.862   4.685  24.973  0.00  0.00    +0.058 A 
ATOM     21 CL   UNL     1      -0.144   4.936  24.650  0.00  0.00    -0.082 Cl
ATOM     22  C   UNL     1      -0.941   3.912  25.250  0.00  0.00    +0.011 A 
ATOM     23  C   UNL     1      -1.658   3.662  25.573  0.00  0.00    -0.002 A 
ENDBRANCH  16  17
ENDBRANCH  15  16
ENDBRANCH  14  15
ENDBRANCH  13  14
TORSDOF 8
ENDMDL
MODEL 4
REMARK VINA RESULT:     -10.5      2.218      4.948
REMARK  Name = 
REMARK  8 active torsions:
REMARK  status: ('A' for Active; 'I' for Inactive)
REMARK    1  A    between atoms: O_2  and  C_3
REMARK    2  A    between atoms: C_3  and  C_4
REMARK    3  A    between atoms: C_6  and  C_7
REMARK    4  A    between atoms: C_7  and  C_8
REMARK    5  A    between atoms: C_13  and  C_14
REMARK    6  A    between atoms: C_14  and  N_15
REMARK    7  A    between atoms: N_15  and  C_16
REMARK    8  A    between atoms: C_16  and  C_17
REMARK                            x       y       z     vdW  Elec       q    Type
REMARK                         _______ _______ _______ _____ _____    ______ ____
ROOT
ATOM      8  C   UNL     1      -3.043  -0.129  24.676  0.00  0.00    +0.121 C 
ATOM      9  C   UNL     1      -2.929  -0.912  24.910  0.00  0.00    +0.033 C 
ATOM     10  C   UNL     1      -2.230  -1.132  25.289  0.00  0.00    +0.038 C 
ATOM     11  C   UNL     1      -1.645  -0.569  25.433  0.00  0.00    +0.180 C 
ATOM     12  O   UNL     1      -0.945  -0.789  25.812  0.00  0.00    -0.220 OA
ATOM     13  C   UNL     1      -1.758   0.214  25.199  0.00  0.00    +0.163 C 
ATOM     24  O   UNL     1      -2.458   0.434  24.821  0.00  0.00    -0.354 OA
ENDROOT
BRANCH   8   7
ATOM      7  C   UNL     1      -3.742   0.090  24.297  0.00  0.00    +0.079 C 
BRANCH   7   6
ATOM      4  C   UNL     1      -5.075   1.578  25.051  0.00  0.00    +0.184 A 
ATOM      5  C   UNL     1      -4.494   1.334  24.518  0.00  0.00    +0.056 A 
ATOM      6  C   UNL     1      -4.299   0.551  24.694  0.00  0.00    +0.103 A 
ATOM     25  N   UNL     1      -4.758   0.312  25.336  0.00  0.00    -0.082 NA
ATOM     26  O   UNL     1      -5.238   0.947  25.557  0.00  0.00    -0.356 OA
BRANCH   4   3
ATOM      3  C   UNL     1      -5.430   2.322  25.075  0.00  0.00    +0.209 C 
BRANCH   3   2
ATOM      1  C   UNL     1      -5.445   3.671  25.544  0.00  0.00    +0.175 C 
ATOM      2  O   UNL     1      -5.090   2.927  25.520  0.00  0.00    -0.343 OA
ENDBRANCH   3   2
ENDBRANCH   4   3
ENDBRANCH   7   6
ENDBRANCH   8   7
BRANCH  13  14
ATOM     14  C   UNL     1      -1.173   0.777  25.344  0.00  0.00    +0.121 C 
BRANCH  14  15
ATOM     15  N   UNL     1      -1.347   1.580  25.273  0.00  0.00    -0.211 NA
BRANCH  15  16
ATOM     16  C   UNL     1      -0.796   2.145  25.515  0.00  0.00    +0.115 C 
BRANCH  16  17
ATOM     17  C   UNL     1      -0.956   2.947  25.411  0.00  0.00    -0.005 A 
ATOM     18  C   UNL     1      -1.577   3.302  25.821  0.00  0.00    -0.002 A 
ATOM     19  C   UNL     1      -1.736   4.104  25.716  0.00  0.00    +0.011 A 
ATOM     20  C   UNL     1      -1.274   4.553  25.200  0.00  0.00    +0.058 A 
ATOM     21 CL   UNL     1      -1.434   5.356  25.095  0.00  0.00    -0.082 Cl
ATOM     22  C   UNL     1      -0.653   4.199  24.789  0.00  0.00    +0.011 A 
ATOM     23  C   UNL     1      -0.493   3.396  24.894  0.00  0.00    -0.002 A 
ENDBRANCH  16  17
ENDBRANCH  15  16
ENDBRANCH  14  15
ENDBRANCH  13  14
TORSDOF 8
ENDMDL
MODEL 5
REMARK VINA RESULT:     -10.5      2.371      4.173
REMARK  Name = 
REMARK  8 active torsions:
REMARK  status: ('A' for Active; 'I' for Inactive)
REMARK    1  A    between atoms: O_2  and  C_3
REMARK    2  A    between atoms: C_3  and  C_4
REMARK    3  A    between atoms: C_6  and  C_7
REMARK    4  A    between atoms: C_7  and  C_8
REMARK    5  A    between atoms: C_13  and  C_14
REMARK    6  A    between atoms: C_14  and  N_15
REMARK    7  A    between atoms: N_15  and  C_16
REMARK    8  A    between atoms: C_16  and  C_17
REMARK                            x       y       z     vdW  Elec       q    Type
REMARK                         _______ _______ _______ _____ _____    ______ ____
ROOT
ATOM      8  C   UNL     1      -2.297  -1.312  25.101  0.00  0.00    +0.121 C 
ATOM      9  C   UNL     1      -2.297  -2.069  24.773  0.00  0.00    +0.033 C 
ATOM     10  C   UNL     1      -2.968  -2.351  24.385  0.00  0.00    +0.038 C 
ATOM     11  C   UNL     1      -3.640  -1.877  24.326  0.00  0.00    +0.180 C 
ATOM     12  O   UNL     1      -4.312  -2.159  23.938  0.00  0.00    -0.220 OA
ATOM     13  C   UNL     1      -3.641  -1.119  24.653  0.00  0.00    +0.163 C 
ATOM     24  O   UNL     1      -2.969  -0.837  25.041  0.00  0.00    -0.354 OA
ENDROOT
BRANCH   8   7
ATOM      7  C   UNL     1      -1.627  -1.030  25.489  0.00  0.00    +0.079 C 
BRANCH   7   6
ATOM      4  C   UNL     1      -0.528   0.678  24.829  0.00  0.00    +0.184 A 
ATOM      5  C   UNL     1      -1.068   0.322  25.343  0.00  0.00    +0.056 A 
ATOM      6  C   UNL     1      -1.144  -0.470  25.123  0.00  0.00    +0.103 A 
ATOM     25  N   UNL     1      -0.652  -0.603  24.475  0.00  0.00    -0.082 NA
ATOM     26  O   UNL     1      -0.271   0.107  24.293  0.00  0.00    -0.356 OA
BRANCH   4   3
ATOM      3  C   UNL     1      -0.289   1.468  24.849  0.00  0.00    +0.209 C 
BRANCH   3   2
ATOM      1  C   UNL     1      -0.491   2.831  24.476  0.00  0.00    +0.175 C 
ATOM      2  O   UNL     1      -0.713   2.038  24.432  0.00  0.00    -0.343 OA
ENDBRANCH   3   2
ENDBRANCH   4   3
ENDBRANCH   7   6
ENDBRANCH   8   7
BRANCH  13  14
ATOM     14  C   UNL     1      -4.313  -0.645  24.594  0.00  0.00    +0.121 C 
BRANCH  14  15
ATOM     15  N   UNL     1      -4.268   0.159  24.776  0.00  0.00    -0.211 NA
BRANCH  15  16
ATOM     16  C   UNL     1      -4.923   0.647  24.656  0.00  0.00    +0.115 C 
BRANCH  16  17
ATOM     17  C   UNL     1      -4.881   1.447  24.851  0.00  0.00    -0.005 A 
ATOM     18  C   UNL     1      -4.354   1.942  24.455  0.00  0.00    -0.002 A 
ATOM     19  C   UNL     1      -4.313   2.742  24.651  0.00  0.00    +0.011 A 
ATOM     20  C   UNL     1      -4.799   3.047  25.243  0.00  0.00    +0.058 A 
ATOM     21 CL   UNL     1      -4.758   3.848  25.439  0.00  0.00    -0.082 Cl
ATOM     22  C   UNL     1      -5.327   2.553  25.640  0.00  0.00    +0.011 A 
ATOM     23  C   UNL     1      -5.368   1.752  25.444  0.00  0.00    -0.002 A 
ENDBRANCH  16  17
ENDBRANCH  15  16
ENDBRANCH  14  15
ENDBRANCH  13  14
TORSDOF 8
ENDMDL
MODEL 6
REMARK VINA RESULT:     -10.4      1.291      3.304
REMARK  Name = 
REMARK  8 active torsions:
REMARK  status: ('A' for Active; 'I' for Inactive)
REMARK    1  A    between atoms: O_2  and  C_3
REMARK    2  A    between atoms: C_3  and  C_4
REMARK    3  A    between atoms: C_6  and  C_7
REMARK    4  A    between atoms: C_7  and  C_8
REMARK    5  A    between atoms: C_13  and  C_14
REMARK    6  A    between atoms: C_14  and  N_15
REMARK    7  A    between atoms: N_15  and  C_16
REMARK    8  A    between atoms: C_16  and  C_17
REMARK                            x       y       z     vdW  Elec       q    Type
REMARK                         _______ _______ _______ _____ _____    ______ ____
ROOT
ATOM      8  C   UNL     1      -1.349   2.870  25.424  0.00  0.00    +0.121 C 
ATOM      9  C   UNL     1      -0.687   3.087  24.981  0.00  0.00    +0.033 C 
ATOM     10  C   UNL     1      -0.185   2.508  24.678  0.00  0.00    +0.038 C 
ATOM     11  C   UNL     1      -0.343   1.711  24.816  0.00  0.00    +0.180 C 
ATOM     12  O   UNL     1       0.159   1.131  24.513  0.00  0.00    -0.220 OA
ATOM     13  C   UNL     1      -1.005   1.492  25.258  0.00  0.00    +0.163 C 
ATOM     24  O   UNL     1      -1.507   2.072  25.562  0.00  0.00    -0.354 OA
ENDROOT
BRANCH   8   7
ATOM      7  C   UNL     1      -1.851   3.449  25.727  0.00  0.00    +0.079 C 
BRANCH   7   6
ATOM      4  C   UNL     1      -3.927   3.542  25.239  0.00  0.00    +0.184 A 
ATOM      5  C   UNL     1      -3.316   3.334  25.753  0.00  0.00    +0.056 A 
ATOM      6  C   UNL     1      -2.602   3.555  25.403  0.00  0.00    +0.103 A 
ATOM     25  N   UNL     1      -2.772   3.900  24.674  0.00  0.00    -0.082 NA
ATOM     26  O   UNL     1      -3.591   3.892  24.572  0.00  0.00    -0.356 OA
BRANCH   4   3
ATOM      3  C   UNL     1      -4.733   3.422  25.370  0.00  0.00    +0.209 C 
BRANCH   3   2
ATOM      1  C   UNL     1      -5.847   2.530  25.403  0.00  0.00    +0.175 C 
ATOM      2  O   UNL     1      -5.085   2.711  25.146  0.00  0.00    -0.343 OA
ENDBRANCH   3   2
ENDBRANCH   4   3
ENDBRANCH   7   6
ENDBRANCH   8   7
BRANCH  13  14
ATOM     14  C   UNL     1      -1.163   0.695  25.397  0.00  0.00    +0.121 C 
BRANCH  14  15
ATOM     15  N   UNL     1      -1.861   0.358  25.113  0.00  0.00    -0.211 NA
BRANCH  15  16
ATOM     16  C   UNL     1      -2.150  -0.339  25.448  0.00  0.00    +0.115 C 
BRANCH  16  17
ATOM     17  C   UNL     1      -2.721  -0.782  25.050  0.00  0.00    -0.005 A 
ATOM     18  C   UNL     1      -3.462  -0.457  24.896  0.00  0.00    -0.002 A 
ATOM     19  C   UNL     1      -4.032  -0.900  24.498  0.00  0.00    +0.011 A 
ATOM     20  C   UNL     1      -3.861  -1.669  24.254  0.00  0.00    +0.058 A 
ATOM     21 CL   UNL     1      -4.432  -2.113  23.856  0.00  0.00    -0.082 Cl
ATOM     22  C   UNL     1      -3.119  -1.995  24.408  0.00  0.00    +0.011 A 
ATOM     23  C   UNL     1      -2.548  -1.551  24.806  0.00  0.00    -0.002 A 
ENDBRANCH  16  17
ENDBRANCH  15  16
ENDBRANCH  14  15
ENDBRANCH  13  14
TORSDOF 8
ENDMDL
