MODEL 1
REMARK VINA RESULT:     -10.4      0.000      0.000
REMARK  Name = 
REMARK  6 active torsions:
REMARK  status: ('A' for Active; 'I' for Inactive)
REMARK    1  A    between atoms: S_2  and  C_5
REMARK    2  A    between atoms: C_8  and  C_9
REMARK    3  A    between atoms: C_9  and  N_10
REMARK    4  A    between atoms: C_14  and  C_15
REMARK    5  A    between atoms: C_17  and  C_20
REMARK    6  A    between atoms: C_23  and  N_26
REMARK                            x       y       z     vdW  Elec       q    Type
REMARK                         _______ _______ _______ _____ _____    ______ ____
ROOT
ATOM     15  C   UNL     1      -5.170   2.051  25.444  0.00  0.00    +0.251 A 
ATOM     16  N   UNL     1      -4.571   1.548  25.181  0.00  0.00    -0.190 NA
ATOM     17  C   UNL     1      -4.823   0.771  25.292  0.00  0.00    +0.205 A 
ATOM     18  N   UNL     1      -5.578   0.793  25.623  0.00  0.00    -0.056 NA
ATOM     19  O   UNL     1      -5.792   1.583  25.718  0.00  0.00    -0.336 OA
ENDROOT
BRANCH  17  20
ATOM     20  C   UNL     1      -4.395   0.091  25.104  0.00  0.00    +0.058 A 
ATOM     21  C   UNL     1      -4.344  -0.160  24.319  0.00  0.00    +0.008 A 
ATOM     22  C   UNL     1      -3.916  -0.840  24.131  0.00  0.00    +0.034 A 
ATOM     23  C   UNL     1      -3.541  -1.269  24.727  0.00  0.00    +0.132 A 
ATOM     24  N   UNL     1      -3.592  -1.019  25.512  0.00  0.00    -0.229 NA
ATOM     25  C   UNL     1      -4.020  -0.338  25.700  0.00  0.00    +0.103 A 
BRANCH  23  26
ATOM     26  N   UNL     1      -3.113  -1.950  24.539  0.00  0.00    -0.288 N 
ATOM     27  C   UNL     1      -2.289  -1.921  24.502  0.00  0.00    +0.124 C 
ATOM     28  C   UNL     1      -1.862  -2.602  24.314  0.00  0.00    +0.164 C 
ATOM     29  O   UNL     1      -2.258  -3.309  24.163  0.00  0.00    -0.350 OA
ATOM     30  C   UNL     1      -3.081  -3.338  24.201  0.00  0.00    +0.164 C 
ATOM     31  C   UNL     1      -3.509  -2.657  24.389  0.00  0.00    +0.124 C 
ENDBRANCH  23  26
ENDBRANCH  17  20
BRANCH  15  14
ATOM     10  N   UNL     1      -4.484   3.345  25.561  0.00  0.00    -0.263 NA
ATOM     11  C   UNL     1      -4.714   4.135  25.503  0.00  0.00    +0.073 C 
ATOM     12  C   UNL     1      -5.523   4.154  25.341  0.00  0.00    +0.019 C 
ATOM     13  C   UNL     1      -5.792   3.375  25.299  0.00  0.00    +0.027 C 
ATOM     14  C   UNL     1      -5.150   2.875  25.435  0.00  0.00    +0.138 C 
BRANCH  10   9
ATOM      9  C   UNL     1      -3.722   3.073  25.718  0.00  0.00    +0.099 C 
BRANCH   9   8
ATOM      5  C   UNL     1      -1.764   4.477  25.148  0.00  0.00    +0.106 A 
ATOM      6  C   UNL     1      -2.095   3.981  24.579  0.00  0.00    +0.018 A 
ATOM      7  C   UNL     1      -2.748   3.513  24.768  0.00  0.00    -0.002 A 
ATOM      8  C   UNL     1      -3.069   3.541  25.528  0.00  0.00    -0.006 A 
ATOM     32  C   UNL     1      -2.737   4.038  26.098  0.00  0.00    -0.002 A 
ATOM     33  C   UNL     1      -2.085   4.505  25.907  0.00  0.00    +0.018 A 
BRANCH   5   2
ATOM      1  C   UNL     1      -0.459   5.414  24.769  0.00  0.00    +0.182 C 
ATOM      2  S   UNL     1      -1.112   4.945  24.959  0.00  0.00    +0.010 S 
ATOM      3  O   UNL     1      -1.558   5.625  25.098  0.00  0.00    -0.169 OA
ATOM      4  O   UNL     1      -0.665   4.266  24.819  0.00  0.00    -0.169 OA
ENDBRANCH   5   2
ENDBRANCH   9   8
ENDBRANCH  10   9
ENDBRANCH  15  14
TORSDOF 6
ENDMDL
MODEL 2
REMARK VINA RESULT:     -10.1      3.306      4.605
REMARK  Name = 
REMARK  6 active torsions:
REMARK  status: ('A' for Active; 'I' for Inactive)
REMARK    1  A    between atoms: S_2  and  C_5
REMARK    2  A    between atoms: C_8  and  C_9
REMARK    3  A    between atoms: C_9  and  N_10
REMARK    4  A    between atoms: C_14  and  C_15
REMARK    5  A    between atoms: C_17  and  C_20
REMARK    6  A    between atoms: C_23  and  N_26
REMARK                            x       y       z     vdW  Elec       q    Type
REMARK                         _______ _______ _______ _____ _____    ______ ____
ROOT
ATOM     15  C   UNL     1      -2.206  -0.200  24.891  0.00  0.00    +0.251 A 
ATOM     16  N   UNL     1      -1.679  -0.135  24.259  0.00  0.00    -0.190 NA
ATOM     17  C   UNL     1      -0.916  -0.087  24.568  0.00  0.00    +0.205 A 
ATOM     18  N   UNL     1      -0.971  -0.122  25.390  0.00  0.00    -0.056 NA
ATOM     19  O   UNL     1      -1.767  -0.192  25.589  0.00  0.00    -0.336 OA
ENDROOT
BRANCH  17  20
ATOM     20  C   UNL     1      -0.220  -0.015  24.130  0.00  0.00    +0.058 A 
ATOM     21  C   UNL     1       0.083   0.732  23.957  0.00  0.00    +0.008 A 
ATOM     22  C   UNL     1       0.779   0.803  23.519  0.00  0.00    +0.034 A 
ATOM     23  C   UNL     1       1.172   0.127  23.256  0.00  0.00    +0.132 A 
ATOM     24  N   UNL     1       0.869  -0.620  23.430  0.00  0.00    -0.229 NA
ATOM     25  C   UNL     1       0.173  -0.691  23.867  0.00  0.00    +0.103 A 
BRANCH  23  26
ATOM     26  N   UNL     1       1.868   0.199  22.819  0.00  0.00    -0.288 N 
ATOM     27  C   UNL     1       2.513   0.605  23.134  0.00  0.00    +0.124 C 
ATOM     28  C   UNL     1       3.210   0.676  22.697  0.00  0.00    +0.164 C 
ATOM     29  O   UNL     1       3.260   0.341  21.944  0.00  0.00    -0.350 OA
ATOM     30  C   UNL     1       2.615  -0.065  21.629  0.00  0.00    +0.164 C 
ATOM     31  C   UNL     1       1.919  -0.136  22.066  0.00  0.00    +0.124 C 
ENDBRANCH  23  26
ENDBRANCH  17  20
BRANCH  15  14
ATOM     10  N   UNL     1      -3.548   0.350  24.656  0.00  0.00    -0.263 NA
ATOM     11  C   UNL     1      -4.313   0.044  24.657  0.00  0.00    +0.073 C 
ATOM     12  C   UNL     1      -4.265  -0.760  24.835  0.00  0.00    +0.019 C 
ATOM     13  C   UNL     1      -3.470  -0.950  24.945  0.00  0.00    +0.027 C 
ATOM     14  C   UNL     1      -3.026  -0.263  24.834  0.00  0.00    +0.138 C 
BRANCH  10   9
ATOM      9  C   UNL     1      -3.340   1.134  24.504  0.00  0.00    +0.099 C 
BRANCH   9   8
ATOM      5  C   UNL     1      -4.833   2.973  25.225  0.00  0.00    +0.106 A 
ATOM      6  C   UNL     1      -5.041   2.501  24.581  0.00  0.00    +0.018 A 
ATOM      7  C   UNL     1      -4.544   1.888  24.340  0.00  0.00    -0.002 A 
ATOM      8  C   UNL     1      -3.838   1.748  24.745  0.00  0.00    -0.006 A 
ATOM     32  C   UNL     1      -3.630   2.219  25.389  0.00  0.00    -0.002 A 
ATOM     33  C   UNL     1      -4.128   2.832  25.628  0.00  0.00    +0.018 A 
BRANCH   5   2
ATOM      1  C   UNL     1      -5.829   4.198  25.705  0.00  0.00    +0.182 C 
ATOM      2  S   UNL     1      -5.330   3.585  25.465  0.00  0.00    +0.010 S 
ATOM      3  O   UNL     1      -5.751   3.058  25.940  0.00  0.00    -0.169 OA
ATOM      4  O   UNL     1      -4.911   4.113  24.990  0.00  0.00    -0.169 OA
ENDBRANCH   5   2
ENDBRANCH   9   8
ENDBRANCH  10   9
ENDBRANCH  15  14
TORSDOF 6
ENDMDL
MODEL 3
REMARK VINA RESULT:      -9.4      3.067      5.471
REMARK  Name = 
REMARK  6 active torsions:
REMARK  status: ('A' for Active; 'I' for Inactive)
REMARK    1  A    between atoms: S_2  and  C_5
REMARK    2  A    between atoms: C_8  and  C_9
REMARK    3  A    between atoms: C_9  and  N_10
REMARK    4  A    between atoms: C_14  and  C_15
REMARK    5  A    between atoms: C_17  and  C_20
REMARK    6  A    between atoms: C_23  and  N_26
REMARK                            x       y       z     vdW  Elec       q    Type
REMARK                         _______ _______ _______ _____ _____    ______ ____
ROOT
ATOM     15  C   UNL     1      -1.992  -0.543  24.480  0.00  0.00    +0.251 A 
ATOM     16  N   UNL     1      -2.295   0.130  24.850  0.00  0.00    -0.190 NA
ATOM     17  C   UNL     1      -3.029   0.297  24.513  0.00  0.00    +0.205 A 
ATOM     18  N   UNL     1      -3.179  -0.272  23.936  0.00  0.00    -0.056 NA
ATOM     19  O   UNL     1      -2.539  -0.790  23.915  0.00  0.00    -0.336 OA
ENDROOT
BRANCH  17  20
ATOM     20  C   UNL     1      -3.525   0.924  24.718  0.00  0.00    +0.058 A 
ATOM     21  C   UNL     1      -4.317   0.781  24.896  0.00  0.00    +0.008 A 
ATOM     22  C   UNL     1      -4.814   1.408  25.101  0.00  0.00    +0.034 A 
ATOM     23  C   UNL     1      -4.517   2.177  25.128  0.00  0.00    +0.132 A 
ATOM     24  N   UNL     1      -3.724   2.320  24.949  0.00  0.00    -0.229 NA
ATOM     25  C   UNL     1      -3.228   1.693  24.744  0.00  0.00    +0.103 A 
BRANCH  23  26
ATOM     26  N   UNL     1      -5.013   2.804  25.332  0.00  0.00    -0.288 N 
ATOM     27  C   UNL     1      -4.755   3.581  25.238  0.00  0.00    +0.124 C 
ATOM     28  C   UNL     1      -5.251   4.208  25.443  0.00  0.00    +0.164 C 
ATOM     29  O   UNL     1      -6.005   4.057  25.742  0.00  0.00    -0.350 OA
ATOM     30  C   UNL     1      -6.263   3.279  25.836  0.00  0.00    +0.164 C 
ATOM     31  C   UNL     1      -5.767   2.652  25.631  0.00  0.00    +0.124 C 
ENDBRANCH  23  26
ENDBRANCH  17  20
BRANCH  15  14
ATOM     10  N   UNL     1      -0.544  -0.717  24.304  0.00  0.00    -0.263 NA
ATOM     11  C   UNL     1       0.030  -1.212  24.630  0.00  0.00    +0.073 C 
ATOM     12  C   UNL     1      -0.343  -1.706  25.177  0.00  0.00    +0.019 C 
ATOM     13  C   UNL     1      -1.145  -1.515  25.187  0.00  0.00    +0.027 C 
ATOM     14  C   UNL     1      -1.269  -0.904  24.647  0.00  0.00    +0.138 C 
BRANCH  10   9
ATOM      9  C   UNL     1      -0.413  -0.136  23.733  0.00  0.00    +0.099 C 
BRANCH   9   8
ATOM      5  C   UNL     1       1.895   0.392  23.008  0.00  0.00    +0.106 A 
ATOM      6  C   UNL     1       1.538   0.836  23.605  0.00  0.00    +0.018 A 
ATOM      7  C   UNL     1       0.769   0.661  23.847  0.00  0.00    -0.002 A 
ATOM      8  C   UNL     1       0.357   0.040  23.491  0.00  0.00    -0.006 A 
ATOM     32  C   UNL     1       0.713  -0.404  22.894  0.00  0.00    -0.002 A 
ATOM     33  C   UNL     1       1.483  -0.227  22.653  0.00  0.00    +0.018 A 
BRANCH   5   2
ATOM      1  C   UNL     1       3.433   0.744  22.526  0.00  0.00    +0.182 C 
ATOM      2  S   UNL     1       2.663   0.568  22.767  0.00  0.00    +0.010 S 
ATOM      3  O   UNL     1       2.656  -0.087  22.266  0.00  0.00    -0.169 OA
ATOM      4  O   UNL     1       2.671   1.223  23.268  0.00  0.00    -0.169 OA
ENDBRANCH   5   2
ENDBRANCH   9   8
ENDBRANCH  10   9
ENDBRANCH  15  14
TORSDOF 6
ENDMDL
MODEL 4
REMARK VINA RESULT:      -9.0      2.203      3.639
REMARK  Name = 
REMARK  6 active torsions:
REMARK  status: ('A' for Active; 'I' for Inactive)
REMARK    1  A    between atoms: S_2  and  C_5
REMARK    2  A    between atoms: C_8  and  C_9
REMARK    3  A    between atoms: C_9  and  N_10
REMARK    4  A    between atoms: C_14  and  C_15
REMARK    5  A    between atoms: C_17  and  C_20
REMARK    6  A    between atoms: C_23  and  N_26
REMARK                            x       y       z     vdW  Elec       q    Type
REMARK                         _______ _______ _______ _____ _____    ______ ____
ROOT
ATOM     15  C   UNL     1      -0.564   3.140  25.211  0.00  0.00    +0.251 A 
ATOM     16  N   UNL     1      -0.943   2.427  25.043  0.00  0.00    -0.190 NA
ATOM     17  C   UNL     1      -0.411   1.814  25.192  0.00  0.00    +0.205 A 
ATOM     18  N   UNL     1       0.296   2.149  25.451  0.00  0.00    -0.056 NA
ATOM     19  O   UNL     1       0.202   2.967  25.463  0.00  0.00    -0.336 OA
ENDROOT
BRANCH  17  20
ATOM     20  C   UNL     1      -0.561   1.008  25.097  0.00  0.00    +0.058 A 
ATOM     21  C   UNL     1      -0.899   0.577  25.713  0.00  0.00    +0.008 A 
ATOM     22  C   UNL     1      -1.048  -0.229  25.619  0.00  0.00    +0.034 A 
ATOM     23  C   UNL     1      -0.860  -0.603  24.908  0.00  0.00    +0.132 A 
ATOM     24  N   UNL     1      -0.522  -0.172  24.291  0.00  0.00    -0.229 NA
ATOM     25  C   UNL     1      -0.372   0.635  24.386  0.00  0.00    +0.103 A 
BRANCH  23  26
ATOM     26  N   UNL     1      -1.010  -1.409  24.813  0.00  0.00    -0.288 N 
ATOM     27  C   UNL     1      -1.704  -1.659  24.444  0.00  0.00    +0.124 C 
ATOM     28  C   UNL     1      -1.853  -2.465  24.349  0.00  0.00    +0.164 C 
ATOM     29  O   UNL     1      -1.309  -3.021  24.624  0.00  0.00    -0.350 OA
ATOM     30  C   UNL     1      -0.615  -2.771  24.993  0.00  0.00    +0.164 C 
ATOM     31  C   UNL     1      -0.465  -1.965  25.088  0.00  0.00    +0.124 C 
ENDBRANCH  23  26
ENDBRANCH  17  20
BRANCH  15  14
ATOM     10  N   UNL     1      -1.588   4.154  25.499  0.00  0.00    -0.263 NA
ATOM     11  C   UNL     1      -1.711   4.939  25.278  0.00  0.00    +0.073 C 
ATOM     12  C   UNL     1      -1.091   5.164  24.781  0.00  0.00    +0.019 C 
ATOM     13  C   UNL     1      -0.586   4.517  24.696  0.00  0.00    +0.027 C 
ATOM     14  C   UNL     1      -0.894   3.893  25.140  0.00  0.00    +0.138 C 
BRANCH  10   9
ATOM      9  C   UNL     1      -2.075   3.708  25.993  0.00  0.00    +0.099 C 
BRANCH   9   8
ATOM      5  C   UNL     1      -4.533   3.784  25.704  0.00  0.00    +0.106 A 
ATOM      6  C   UNL     1      -4.069   3.350  25.178  0.00  0.00    +0.018 A 
ATOM      7  C   UNL     1      -3.250   3.325  25.273  0.00  0.00    -0.002 A 
ATOM      8  C   UNL     1      -2.895   3.733  25.897  0.00  0.00    -0.006 A 
ATOM     32  C   UNL     1      -3.359   4.167  26.423  0.00  0.00    -0.002 A 
ATOM     33  C   UNL     1      -4.178   4.192  26.327  0.00  0.00    +0.018 A 
BRANCH   5   2
ATOM      1  C   UNL     1      -6.171   3.835  25.512  0.00  0.00    +0.182 C 
ATOM      2  S   UNL     1      -5.352   3.809  25.608  0.00  0.00    +0.010 S 
ATOM      3  O   UNL     1      -5.275   4.479  25.132  0.00  0.00    -0.169 OA
ATOM      4  O   UNL     1      -5.429   3.140  26.084  0.00  0.00    -0.169 OA
ENDBRANCH   5   2
ENDBRANCH   9   8
ENDBRANCH  10   9
ENDBRANCH  15  14
TORSDOF 6
ENDMDL
MODEL 5
REMARK VINA RESULT:      -8.6      3.471      4.758
REMARK  Name = 
REMARK  6 active torsions:
REMARK  status: ('A' for Active; 'I' for Inactive)
REMARK    1  A    between atoms: S_2  and  C_5
REMARK    2  A    between atoms: C_8  and  C_9
REMARK    3  A    between atoms: C_9  and  N_10
REMARK    4  A    between atoms: C_14  and  C_15
REMARK    5  A    between atoms: C_17  and  C_20
REMARK    6  A    between atoms: C_23  and  N_26
REMARK                            x       y       z     vdW  Elec       q    Type
REMARK                         _______ _______ _______ _____ _____    ______ ____
ROOT
ATOM     15  C   UNL     1      -1.154   2.843  25.394  0.00  0.00    +0.251 A 
ATOM     16  N   UNL     1      -0.770   2.597  24.706  0.00  0.00    -0.190 NA
ATOM     17  C   UNL     1      -0.224   2.015  24.914  0.00  0.00    +0.205 A 
ATOM     18  N   UNL     1      -0.271   1.901  25.729  0.00  0.00    -0.056 NA
ATOM     19  O   UNL     1      -0.845   2.412  26.026  0.00  0.00    -0.336 OA
ENDROOT
BRANCH  17  20
ATOM     20  C   UNL     1       0.280   1.616  24.396  0.00  0.00    +0.058 A 
ATOM     21  C   UNL     1       0.092   0.853  24.144  0.00  0.00    +0.008 A 
ATOM     22  C   UNL     1       0.596   0.454  23.627  0.00  0.00    +0.034 A 
ATOM     23  C   UNL     1       1.287   0.818  23.362  0.00  0.00    +0.132 A 
ATOM     24  N   UNL     1       1.475   1.581  23.614  0.00  0.00    -0.229 NA
ATOM     25  C   UNL     1       0.971   1.980  24.131  0.00  0.00    +0.103 A 
BRANCH  23  26
ATOM     26  N   UNL     1       1.792   0.420  22.844  0.00  0.00    -0.288 N 
ATOM     27  C   UNL     1       2.609   0.498  22.923  0.00  0.00    +0.124 C 
ATOM     28  C   UNL     1       3.113   0.099  22.405  0.00  0.00    +0.164 C 
ATOM     29  O   UNL     1       2.800  -0.377  21.809  0.00  0.00    -0.350 OA
ATOM     30  C   UNL     1       1.982  -0.456  21.730  0.00  0.00    +0.164 C 
ATOM     31  C   UNL     1       1.478  -0.057  22.248  0.00  0.00    +0.124 C 
ENDBRANCH  23  26
ENDBRANCH  17  20
BRANCH  15  14
ATOM     10  N   UNL     1      -2.509   3.354  25.142  0.00  0.00    -0.263 NA
ATOM     11  C   UNL     1      -2.910   4.054  25.311  0.00  0.00    +0.073 C 
ATOM     12  C   UNL     1      -2.391   4.553  25.715  0.00  0.00    +0.019 C 
ATOM     13  C   UNL     1      -1.670   4.160  25.795  0.00  0.00    +0.027 C 
ATOM     14  C   UNL     1      -1.743   3.418  25.441  0.00  0.00    +0.138 C 
BRANCH  10   9
ATOM      9  C   UNL     1      -2.820   2.702  24.743  0.00  0.00    +0.099 C 
BRANCH   9   8
ATOM      5  C   UNL     1      -5.227   2.162  24.943  0.00  0.00    +0.106 A 
ATOM      6  C   UNL     1      -4.972   2.706  24.378  0.00  0.00    +0.018 A 
ATOM      7  C   UNL     1      -4.170   2.886  24.311  0.00  0.00    -0.002 A 
ATOM      8  C   UNL     1      -3.623   2.521  24.810  0.00  0.00    -0.006 A 
ATOM     32  C   UNL     1      -3.878   1.977  25.375  0.00  0.00    -0.002 A 
ATOM     33  C   UNL     1      -4.681   1.797  25.441  0.00  0.00    +0.018 A 
BRANCH   5   2
ATOM      1  C   UNL     1      -6.832   1.802  25.076  0.00  0.00    +0.182 C 
ATOM      2  S   UNL     1      -6.029   1.982  25.009  0.00  0.00    +0.010 S 
ATOM      3  O   UNL     1      -6.150   2.677  25.437  0.00  0.00    -0.169 OA
ATOM      4  O   UNL     1      -5.910   1.287  24.582  0.00  0.00    -0.169 OA
ENDBRANCH   5   2
ENDBRANCH   9   8
ENDBRANCH  10   9
ENDBRANCH  15  14
TORSDOF 6
ENDMDL
MODEL 6
REMARK VINA RESULT:      -8.4      3.621      5.473
REMARK  Name = 
REMARK  6 active torsions:
REMARK  status: ('A' for Active; 'I' for Inactive)
REMARK    1  A    between atoms: S_2  and  C_5
REMARK    2  A    between atoms: C_8  and  C_9
REMARK    3  A    between atoms: C_9  and  N_10
REMARK    4  A    between atoms: C_14  and  C_15
REMARK    5  A    between atoms: C_17  and  C_20
REMARK    6  A    between atoms: C_23  and  N_26
REMARK                            x       y       z     vdW  Elec       q    Type
REMARK                         _______ _______ _______ _____ _____    ______ ____
ROOT
ATOM     15  C   UNL     1      -2.148   1.748  24.735  0.00  0.00    +0.251 A 
ATOM     16  N   UNL     1      -1.597   1.446  24.199  0.00  0.00    -0.190 NA
ATOM     17  C   UNL     1      -0.844   1.577  24.508  0.00  0.00    +0.205 A 
ATOM     18  N   UNL     1      -0.929   1.959  25.234  0.00  0.00    -0.056 NA
ATOM     19  O   UNL     1      -1.734   2.065  25.374  0.00  0.00    -0.336 OA
ENDROOT
BRANCH  17  20
ATOM     20  C   UNL     1      -0.130   1.363  24.153  0.00  0.00    +0.058 A 
ATOM     21  C   UNL     1      -0.084   0.672  23.705  0.00  0.00    +0.008 A 
ATOM     22  C   UNL     1       0.629   0.458  23.350  0.00  0.00    +0.034 A 
ATOM     23  C   UNL     1       1.296   0.934  23.444  0.00  0.00    +0.132 A 
ATOM     24  N   UNL     1       1.250   1.625  23.892  0.00  0.00    -0.229 NA
ATOM     25  C   UNL     1       0.537   1.839  24.247  0.00  0.00    +0.103 A 
BRANCH  23  26
ATOM     26  N   UNL     1       2.010   0.720  23.088  0.00  0.00    -0.288 N 
ATOM     27  C   UNL     1       2.684   1.180  23.209  0.00  0.00    +0.124 C 
ATOM     28  C   UNL     1       3.398   0.965  22.854  0.00  0.00    +0.164 C 
ATOM     29  O   UNL     1       3.436   0.292  22.379  0.00  0.00    -0.350 OA
ATOM     30  C   UNL     1       2.762  -0.168  22.259  0.00  0.00    +0.164 C 
ATOM     31  C   UNL     1       2.048   0.046  22.614  0.00  0.00    +0.124 C 
ENDBRANCH  23  26
ENDBRANCH  17  20
BRANCH  15  14
ATOM     10  N   UNL     1      -3.477   1.154  24.933  0.00  0.00    -0.263 NA
ATOM     11  C   UNL     1      -4.247   1.359  24.719  0.00  0.00    +0.073 C 
ATOM     12  C   UNL     1      -4.213   2.069  24.299  0.00  0.00    +0.019 C 
ATOM     13  C   UNL     1      -3.423   2.301  24.254  0.00  0.00    +0.027 C 
ATOM     14  C   UNL     1      -2.968   1.735  24.646  0.00  0.00    +0.138 C 
BRANCH  10   9
ATOM      9  C   UNL     1      -3.256   0.483  25.359  0.00  0.00    +0.099 C 
BRANCH   9   8
ATOM      5  C   UNL     1      -3.820  -1.771  24.504  0.00  0.00    +0.106 A 
ATOM      6  C   UNL     1      -3.213  -1.678  25.055  0.00  0.00    +0.018 A 
ATOM      7  C   UNL     1      -3.024  -0.928  25.340  0.00  0.00    -0.002 A 
ATOM      8  C   UNL     1      -3.444  -0.269  25.074  0.00  0.00    -0.006 A 
ATOM     32  C   UNL     1      -4.051  -0.361  24.523  0.00  0.00    -0.002 A 
ATOM     33  C   UNL     1      -4.239  -1.112  24.239  0.00  0.00    +0.018 A 
BRANCH   5   2
ATOM      1  C   UNL     1      -4.195  -3.273  23.934  0.00  0.00    +0.182 C 
ATOM      2  S   UNL     1      -4.008  -2.521  24.219  0.00  0.00    +0.010 S 
ATOM      3  O   UNL     1      -3.604  -2.863  24.853  0.00  0.00    -0.169 OA
ATOM      4  O   UNL     1      -4.411  -2.181  23.585  0.00  0.00    -0.169 OA
ENDBRANCH   5   2
ENDBRANCH   9   8
ENDBRANCH  10   9
ENDBRANCH  15  14
TORSDOF 6
ENDMDL
MODEL 7
REMARK VINA RESULT:      -8.2      2.386      6.102
REMARK  Name = 
REMARK  6 active torsions:
REMARK  status: ('A' for Active; 'I' for Inactive)
REMARK    1  A    between atoms: S_2  and  C_5
REMARK    2  A    between atoms: C_8  and  C_9
REMARK    3  A    between atoms: C_9  and  N_10
REMARK    4  A    between atoms: C_14  and  C_15
REMARK    5  A    between atoms: C_17  and  C_20
REMARK    6  A    between atoms: C_23  and  N_26
REMARK                            x       y       z     vdW  Elec       q    Type
REMARK                         _______ _______ _______ _____ _____    ______ ____
ROOT
ATOM     15  C   UNL     1      -0.750   1.444  24.512  0.00  0.00    +0.251 A 
ATOM     16  N   UNL     1      -1.563   1.584  24.511  0.00  0.00    -0.190 NA
ATOM     17  C   UNL     1      -1.699   2.299  24.898  0.00  0.00    +0.205 A 
ATOM     18  N   UNL     1      -0.971   2.602  25.137  0.00  0.00    -0.056 NA
ATOM     19  O   UNL     1      -0.385   2.074  24.899  0.00  0.00    -0.336 OA
ENDROOT
BRANCH  17  20
ATOM     20  C   UNL     1      -2.436   2.651  25.023  0.00  0.00    +0.058 A 
ATOM     21  C   UNL     1      -3.035   2.561  24.463  0.00  0.00    +0.008 A 
ATOM     22  C   UNL     1      -3.771   2.913  24.588  0.00  0.00    +0.034 A 
ATOM     23  C   UNL     1      -3.907   3.353  25.272  0.00  0.00    +0.132 A 
ATOM     24  N   UNL     1      -3.308   3.443  25.832  0.00  0.00    -0.229 NA
ATOM     25  C   UNL     1      -2.572   3.091  25.707  0.00  0.00    +0.103 A 
BRANCH  23  26
ATOM     26  N   UNL     1      -4.644   3.705  25.397  0.00  0.00    -0.288 N 
ATOM     27  C   UNL     1      -5.287   3.243  25.628  0.00  0.00    +0.124 C 
ATOM     28  C   UNL     1      -6.023   3.594  25.753  0.00  0.00    +0.164 C 
ATOM     29  O   UNL     1      -6.116   4.407  25.647  0.00  0.00    -0.350 OA
ATOM     30  C   UNL     1      -5.473   4.869  25.415  0.00  0.00    +0.164 C 
ATOM     31  C   UNL     1      -4.736   4.517  25.291  0.00  0.00    +0.124 C 
ENDBRANCH  23  26
ENDBRANCH  17  20
BRANCH  15  14
ATOM     10  N   UNL     1      -0.454   0.007  24.429  0.00  0.00    -0.263 NA
ATOM     11  C   UNL     1       0.025  -0.464  23.950  0.00  0.00    +0.073 C 
ATOM     12  C   UNL     1       0.405   0.029  23.407  0.00  0.00    +0.019 C 
ATOM     13  C   UNL     1       0.161   0.803  23.552  0.00  0.00    +0.027 C 
ATOM     14  C   UNL     1      -0.370   0.790  24.184  0.00  0.00    +0.138 C 
BRANCH  10   9
ATOM      9  C   UNL     1      -0.932  -0.259  25.046  0.00  0.00    +0.099 C 
BRANCH   9   8
ATOM      5  C   UNL     1      -2.462  -2.173  24.690  0.00  0.00    +0.106 A 
ATOM      6  C   UNL     1      -2.749  -1.401  24.641  0.00  0.00    +0.018 A 
ATOM      7  C   UNL     1      -2.240  -0.763  24.760  0.00  0.00    -0.002 A 
ATOM      8  C   UNL     1      -1.442  -0.897  24.927  0.00  0.00    -0.006 A 
ATOM     32  C   UNL     1      -1.155  -1.669  24.976  0.00  0.00    -0.002 A 
ATOM     33  C   UNL     1      -1.666  -2.307  24.857  0.00  0.00    +0.018 A 
BRANCH   5   2
ATOM      1  C   UNL     1      -3.481  -3.448  24.452  0.00  0.00    +0.182 C 
ATOM      2  S   UNL     1      -2.971  -2.810  24.571  0.00  0.00    +0.010 S 
ATOM      3  O   UNL     1      -2.537  -3.034  23.906  0.00  0.00    -0.169 OA
ATOM      4  O   UNL     1      -3.406  -2.587  25.236  0.00  0.00    -0.169 OA
ENDBRANCH   5   2
ENDBRANCH   9   8
ENDBRANCH  10   9
ENDBRANCH  15  14
TORSDOF 6
ENDMDL
