MODEL 1
REMARK VINA RESULT:     -11.2      0.000      0.000
REMARK  Name = 
REMARK  8 active torsions:
REMARK  status: ('A' for Active; 'I' for Inactive)
REMARK    1  A    between atoms: C_4  and  C_5
REMARK    2  A    between atoms: C_9  and  N_29
REMARK    3  A    between atoms: C_11  and  C_12
REMARK    4  A    between atoms: N_14  and  C_15
REMARK    5  A    between atoms: C_15  and  C_16
REMARK    6  A    between atoms: C_15  and  C_26
REMARK    7  A    between atoms: C_16  and  C_17
REMARK    8  A    between atoms: N_32  and  C_33
REMARK                            x       y       z     vdW  Elec       q    Type
REMARK                         _______ _______ _______ _____ _____    ______ ____
ROOT
ATOM      5  C   UNL     1       0.320  -0.004  23.715  0.00  0.00    +0.249 C 
ATOM      6  O   UNL     1       0.572  -0.621  23.228  0.00  0.00    -0.270 OA
ATOM      7  N   UNL     1      -0.401  -0.060  24.112  0.00  0.00    -0.268 N 
ATOM      8  C   UNL     1      -0.925  -0.696  24.076  0.00  0.00    +0.116 C 
ATOM      9  C   UNL     1      -1.573  -0.519  24.557  0.00  0.00    +0.119 C 
ATOM     10  C   UNL     1      -1.447   0.226  24.889  0.00  0.00    +0.053 C 
ATOM     11  C   UNL     1      -0.723   0.509  24.614  0.00  0.00    +0.156 C 
ENDROOT
BRANCH   5   4
ATOM      1  C   UNL     1       1.738   0.131  22.881  0.00  0.00    +0.027 C 
ATOM      2  C   UNL     1       1.497   0.737  23.387  0.00  0.00    -0.039 C 
ATOM      3  C   UNL     1       1.966   1.410  23.477  0.00  0.00    +0.027 C 
ATOM      4  C   UNL     1       0.788   0.669  23.804  0.00  0.00    +0.049 C 
ENDBRANCH   5   4
BRANCH   9  29
ATOM     29  N   UNL     1      -2.230  -1.003  24.683  0.00  0.00    -0.187 NA
ATOM     30  C   UNL     1      -2.440  -1.220  25.450  0.00  0.00    +0.339 C 
ATOM     31  O   UNL     1      -1.994  -0.955  26.092  0.00  0.00    -0.249 OA
ATOM     32  N   UNL     1      -3.097  -1.704  25.576  0.00  0.00    -0.189 NA
BRANCH  32  33
ATOM     33  C   UNL     1      -3.543  -1.969  24.935  0.00  0.00    +0.097 C 
ATOM     34  C   UNL     1      -3.447  -2.740  24.657  0.00  0.00    +0.022 C 
ATOM     35  C   UNL     1      -3.893  -3.007  24.015  0.00  0.00    +0.002 C 
ATOM     36  C   UNL     1      -4.434  -2.500  23.652  0.00  0.00    +0.000 C 
ATOM     37  C   UNL     1      -4.530  -1.730  23.930  0.00  0.00    +0.002 C 
ATOM     38  C   UNL     1      -4.084  -1.464  24.572  0.00  0.00    +0.022 C 
ENDBRANCH  32  33
ENDBRANCH   9  29
BRANCH  11  12
ATOM     12  C   UNL     1      -0.382   1.235  24.808  0.00  0.00    +0.260 C 
ATOM     13  O   UNL     1       0.208   1.554  24.327  0.00  0.00    -0.272 OA
ATOM     14  N   UNL     1      -0.630   1.642  25.481  0.00  0.00    -0.196 NA
BRANCH  14  15
ATOM     15  C   UNL     1      -0.288   2.367  25.674  0.00  0.00    +0.179 C 
BRANCH  15  26
ATOM     26  C   UNL     1       0.228   2.421  26.316  0.00  0.00    +0.281 C 
ATOM     27  N   UNL     1       0.018   2.096  27.044  0.00  0.00    -0.086 NA
ATOM     28  O   UNL     1       0.955   2.802  26.228  0.00  0.00    -0.270 OA
ENDBRANCH  15  26
BRANCH  15  16
ATOM     16  C   UNL     1      -0.462   3.038  25.227  0.00  0.00    +0.059 C 
BRANCH  16  17
ATOM     17  C   UNL     1      -1.118   3.501  25.414  0.00  0.00    +0.001 A 
ATOM     18  C   UNL     1      -1.779   3.255  25.844  0.00  0.00    +0.095 A 
ATOM     19  N   UNL     1      -2.298   3.893  25.901  0.00  0.00    -0.244 NA
ATOM     20  C   UNL     1      -1.959   4.533  25.507  0.00  0.00    +0.081 A 
ATOM     21  C   UNL     1      -1.230   4.290  25.206  0.00  0.00    +0.015 A 
ATOM     22  C   UNL     1      -0.762   4.821  24.782  0.00  0.00    +0.001 A 
ATOM     23  C   UNL     1      -1.022   5.594  24.658  0.00  0.00    +0.000 A 
ATOM     24  C   UNL     1      -1.751   5.836  24.958  0.00  0.00    +0.002 A 
ATOM     25  C   UNL     1      -2.220   5.306  25.383  0.00  0.00    +0.019 A 
ENDBRANCH  16  17
ENDBRANCH  15  16
ENDBRANCH  14  15
ENDBRANCH  11  12
TORSDOF 8
ENDMDL
MODEL 2
REMARK VINA RESULT:     -11.1      1.902      4.515
REMARK  Name = 
REMARK  8 active torsions:
REMARK  status: ('A' for Active; 'I' for Inactive)
REMARK    1  A    between atoms: C_4  and  C_5
REMARK    2  A    between atoms: C_9  and  N_29
REMARK    3  A    between atoms: C_11  and  C_12
REMARK    4  A    between atoms: N_14  and  C_15
REMARK    5  A    between atoms: C_15  and  C_16
REMARK    6  A    between atoms: C_15  and  C_26
REMARK    7  A    between atoms: C_16  and  C_17
REMARK    8  A    between atoms: N_32  and  C_33
REMARK                            x       y       z     vdW  Elec       q    Type
REMARK                         _______ _______ _______ _____ _____    ______ ____
ROOT
ATOM      5  C   UNL     1      -0.634  -0.738  24.713  0.00  0.00    +0.249 C 
ATOM      6  O   UNL     1      -0.330  -1.381  25.132  0.00  0.00    -0.270 OA
ATOM      7  N   UNL     1      -0.157  -0.335  24.174  0.00  0.00    -0.268 N 
ATOM      8  C   UNL     1       0.629  -0.509  23.997  0.00  0.00    +0.116 C 
ATOM      9  C   UNL     1       0.889   0.033  23.431  0.00  0.00    +0.119 C 
ATOM     10  C   UNL     1       0.263   0.542  23.259  0.00  0.00    +0.053 C 
ATOM     11  C   UNL     1      -0.384   0.315  23.718  0.00  0.00    +0.156 C 
ENDROOT
BRANCH   5   4
ATOM      1  C   UNL     1      -1.573  -1.515  25.826  0.00  0.00    +0.027 C 
ATOM      2  C   UNL     1      -1.884  -0.888  25.389  0.00  0.00    -0.039 C 
ATOM      3  C   UNL     1      -2.665  -0.649  25.509  0.00  0.00    +0.027 C 
ATOM      4  C   UNL     1      -1.414  -0.500  24.833  0.00  0.00    +0.049 C 
ENDBRANCH   5   4
BRANCH   9  29
ATOM     29  N   UNL     1       1.643   0.060  23.097  0.00  0.00    -0.187 NA
ATOM     30  C   UNL     1       1.752  -0.153  22.307  0.00  0.00    +0.339 C 
ATOM     31  O   UNL     1       1.107  -0.393  21.852  0.00  0.00    -0.249 OA
ATOM     32  N   UNL     1       2.506  -0.125  21.973  0.00  0.00    -0.189 NA
BRANCH  32  33
ATOM     33  C   UNL     1       3.150   0.116  22.428  0.00  0.00    +0.097 C 
ATOM     34  C   UNL     1       3.580  -0.440  22.860  0.00  0.00    +0.022 C 
ATOM     35  C   UNL     1       4.225  -0.200  23.316  0.00  0.00    +0.002 C 
ATOM     36  C   UNL     1       4.440   0.597  23.338  0.00  0.00    +0.000 C 
ATOM     37  C   UNL     1       4.010   1.151  22.905  0.00  0.00    +0.002 C 
ATOM     38  C   UNL     1       3.365   0.911  22.450  0.00  0.00    +0.022 C 
ENDBRANCH  32  33
ENDBRANCH   9  29
BRANCH  11  12
ATOM     12  C   UNL     1      -1.127   0.674  23.720  0.00  0.00    +0.260 C 
ATOM     13  O   UNL     1      -1.807   0.212  23.790  0.00  0.00    -0.272 OA
ATOM     14  N   UNL     1      -1.189   1.493  23.652  0.00  0.00    -0.196 NA
BRANCH  14  15
ATOM     15  C   UNL     1      -1.932   1.852  23.654  0.00  0.00    +0.179 C 
BRANCH  15  26
ATOM     26  C   UNL     1      -2.368   1.900  22.955  0.00  0.00    +0.281 C 
ATOM     27  N   UNL     1      -3.158   1.667  22.944  0.00  0.00    -0.086 NA
ATOM     28  O   UNL     1      -2.011   2.184  22.266  0.00  0.00    -0.270 OA
ENDBRANCH  15  26
BRANCH  15  16
ATOM     16  C   UNL     1      -2.239   2.162  24.355  0.00  0.00    +0.059 C 
BRANCH  16  17
ATOM     17  C   UNL     1      -1.983   2.896  24.628  0.00  0.00    +0.001 A 
ATOM     18  C   UNL     1      -1.289   3.283  24.404  0.00  0.00    +0.095 A 
ATOM     19  N   UNL     1      -1.254   3.999  24.811  0.00  0.00    -0.244 NA
ATOM     20  C   UNL     1      -1.926   4.056  25.286  0.00  0.00    +0.081 A 
ATOM     21  C   UNL     1      -2.377   3.375  25.172  0.00  0.00    +0.015 A 
ATOM     22  C   UNL     1      -3.087   3.278  25.581  0.00  0.00    +0.001 A 
ATOM     23  C   UNL     1      -3.347   3.862  26.101  0.00  0.00    +0.000 A 
ATOM     24  C   UNL     1      -2.896   4.544  26.214  0.00  0.00    +0.002 A 
ATOM     25  C   UNL     1      -2.186   4.641  25.807  0.00  0.00    +0.019 A 
ENDBRANCH  16  17
ENDBRANCH  15  16
ENDBRANCH  14  15
ENDBRANCH  11  12
TORSDOF 8
ENDMDL
MODEL 3
REMARK VINA RESULT:     -10.8      2.612      4.031
REMARK  Name = 
REMARK  8 active torsions:
REMARK  status: ('A' for Active; 'I' for Inactive)
REMARK    1  A    between atoms: C_4  and  C_5
REMARK    2  A    between atoms: C_9  and  N_29
REMARK    3  A    between atoms: C_11  and  C_12
REMARK    4  A    between atoms: N_14  and  C_15
REMARK    5  A    between atoms: C_15  and  C_16
REMARK    6  A    between atoms: C_15  and  C_26
REMARK    7  A    between atoms: C_16  and  C_17
REMARK    8  A    between atoms: N_32  and  C_33
REMARK                            x       y       z     vdW  Elec       q    Type
REMARK                         _______ _______ _______ _____ _____    ______ ____
ROOT
ATOM      5  C   UNL     1      -5.111   1.392  25.389  0.00  0.00    +0.249 C 
ATOM      6  O   UNL     1      -5.599   1.125  25.999  0.00  0.00    -0.270 OA
ATOM      7  N   UNL     1      -4.626   0.859  24.988  0.00  0.00    -0.268 N 
ATOM      8  C   UNL     1      -4.569   0.049  25.133  0.00  0.00    +0.116 C 
ATOM      9  C   UNL     1      -4.020  -0.267  24.605  0.00  0.00    +0.119 C 
ATOM     10  C   UNL     1      -3.737   0.348  24.133  0.00  0.00    +0.053 C 
ATOM     11  C   UNL     1      -4.111   1.044  24.369  0.00  0.00    +0.156 C 
ENDROOT
BRANCH   5   4
ATOM      1  C   UNL     1      -5.995   2.475  26.266  0.00  0.00    +0.027 C 
ATOM      2  C   UNL     1      -5.550   2.731  25.620  0.00  0.00    -0.039 C 
ATOM      3  C   UNL     1      -5.548   3.530  25.412  0.00  0.00    +0.027 C 
ATOM      4  C   UNL     1      -5.108   2.190  25.182  0.00  0.00    +0.049 C 
ENDBRANCH   5   4
BRANCH   9  29
ATOM     29  N   UNL     1      -3.794  -1.060  24.557  0.00  0.00    -0.187 NA
ATOM     30  C   UNL     1      -4.263  -1.598  24.144  0.00  0.00    +0.339 C 
ATOM     31  O   UNL     1      -4.958  -1.345  23.779  0.00  0.00    -0.249 OA
ATOM     32  N   UNL     1      -4.036  -2.390  24.096  0.00  0.00    -0.189 NA
BRANCH  32  33
ATOM     33  C   UNL     1      -3.342  -2.643  24.461  0.00  0.00    +0.097 C 
ATOM     34  C   UNL     1      -2.629  -2.631  24.045  0.00  0.00    +0.022 C 
ATOM     35  C   UNL     1      -1.933  -2.884  24.410  0.00  0.00    +0.002 C 
ATOM     36  C   UNL     1      -1.952  -3.150  25.192  0.00  0.00    +0.000 C 
ATOM     37  C   UNL     1      -2.663  -3.162  25.607  0.00  0.00    +0.002 C 
ATOM     38  C   UNL     1      -3.359  -2.909  25.242  0.00  0.00    +0.022 C 
ENDBRANCH  32  33
ENDBRANCH   9  29
BRANCH  11  12
ATOM     12  C   UNL     1      -3.992   1.793  24.044  0.00  0.00    +0.260 C 
ATOM     13  O   UNL     1      -4.628   2.312  23.960  0.00  0.00    -0.272 OA
ATOM     14  N   UNL     1      -3.237   2.023  23.804  0.00  0.00    -0.196 NA
BRANCH  14  15
ATOM     15  C   UNL     1      -3.118   2.771  23.480  0.00  0.00    +0.179 C 
BRANCH  15  26
ATOM     26  C   UNL     1      -3.256   2.899  22.676  0.00  0.00    +0.281 C 
ATOM     27  N   UNL     1      -2.876   2.433  22.113  0.00  0.00    -0.086 NA
ATOM     28  O   UNL     1      -3.776   3.494  22.437  0.00  0.00    -0.270 OA
ENDBRANCH  15  26
BRANCH  15  16
ATOM     16  C   UNL     1      -2.861   3.393  23.958  0.00  0.00    +0.059 C 
BRANCH  16  17
ATOM     17  C   UNL     1      -2.069   3.443  24.179  0.00  0.00    +0.001 A 
ATOM     18  C   UNL     1      -1.496   2.859  24.070  0.00  0.00    +0.095 A 
ATOM     19  N   UNL     1      -0.783   3.141  24.372  0.00  0.00    -0.244 NA
ATOM     20  C   UNL     1      -0.913   3.900  24.667  0.00  0.00    +0.081 A 
ATOM     21  C   UNL     1      -1.708   4.087  24.548  0.00  0.00    +0.015 A 
ATOM     22  C   UNL     1      -2.000   4.819  24.791  0.00  0.00    +0.001 A 
ATOM     23  C   UNL     1      -1.499   5.364  25.153  0.00  0.00    +0.000 A 
ATOM     24  C   UNL     1      -0.704   5.178  25.272  0.00  0.00    +0.002 A 
ATOM     25  C   UNL     1      -0.411   4.446  25.029  0.00  0.00    +0.019 A 
ENDBRANCH  16  17
ENDBRANCH  15  16
ENDBRANCH  14  15
ENDBRANCH  11  12
TORSDOF 8
ENDMDL
MODEL 4
REMARK VINA RESULT:     -10.6      1.470      5.637
REMARK  Name = 
REMARK  8 active torsions:
REMARK  status: ('A' for Active; 'I' for Inactive)
REMARK    1  A    between atoms: C_4  and  C_5
REMARK    2  A    between atoms: C_9  and  N_29
REMARK    3  A    between atoms: C_11  and  C_12
REMARK    4  A    between atoms: N_14  and  C_15
REMARK    5  A    between atoms: C_15  and  C_16
REMARK    6  A    between atoms: C_15  and  C_26
REMARK    7  A    between atoms: C_16  and  C_17
REMARK    8  A    between atoms: N_32  and  C_33
REMARK                            x       y       z     vdW  Elec       q    Type
REMARK                         _______ _______ _______ _____ _____    ______ ____
ROOT
ATOM      5  C   UNL     1      -0.243   2.282  24.398  0.00  0.00    +0.249 C 
ATOM      6  O   UNL     1       0.076   3.038  24.300  0.00  0.00    -0.270 OA
ATOM      7  N   UNL     1       0.181   1.621  24.149  0.00  0.00    -0.268 N 
ATOM      8  C   UNL     1       0.926   1.627  23.794  0.00  0.00    +0.116 C 
ATOM      9  C   UNL     1       1.141   0.846  23.636  0.00  0.00    +0.119 C 
ATOM     10  C   UNL     1       0.528   0.357  23.893  0.00  0.00    +0.053 C 
ATOM     11  C   UNL     1      -0.065   0.835  24.210  0.00  0.00    +0.156 C 
ENDROOT
BRANCH   5   4
ATOM      1  C   UNL     1      -1.059   3.600  24.965  0.00  0.00    +0.027 C 
ATOM      2  C   UNL     1      -1.393   2.848  25.029  0.00  0.00    -0.039 C 
ATOM      3  C   UNL     1      -2.136   2.756  25.376  0.00  0.00    +0.027 C 
ATOM      4  C   UNL     1      -0.985   2.190  24.745  0.00  0.00    +0.049 C 
ENDBRANCH   5   4
BRANCH   9  29
ATOM     29  N   UNL     1       1.844   0.598  23.283  0.00  0.00    -0.187 NA
ATOM     30  C   UNL     1       1.823   0.173  22.576  0.00  0.00    +0.339 C 
ATOM     31  O   UNL     1       1.099  -0.004  22.222  0.00  0.00    -0.249 OA
ATOM     32  N   UNL     1       2.526  -0.075  22.223  0.00  0.00    -0.189 NA
BRANCH  32  33
ATOM     33  C   UNL     1       3.250   0.102  22.577  0.00  0.00    +0.097 C 
ATOM     34  C   UNL     1       3.604  -0.442  23.086  0.00  0.00    +0.022 C 
ATOM     35  C   UNL     1       4.328  -0.266  23.441  0.00  0.00    +0.002 C 
ATOM     36  C   UNL     1       4.698   0.455  23.285  0.00  0.00    +0.000 C 
ATOM     37  C   UNL     1       4.344   0.999  22.776  0.00  0.00    +0.002 C 
ATOM     38  C   UNL     1       3.620   0.822  22.422  0.00  0.00    +0.022 C 
ENDBRANCH  32  33
ENDBRANCH   9  29
BRANCH  11  12
ATOM     12  C   UNL     1      -0.779   0.574  24.532  0.00  0.00    +0.260 C 
ATOM     13  O   UNL     1      -1.458   1.036  24.455  0.00  0.00    -0.272 OA
ATOM     14  N   UNL     1      -0.813  -0.148  24.929  0.00  0.00    -0.196 NA
BRANCH  14  15
ATOM     15  C   UNL     1      -1.526  -0.408  25.250  0.00  0.00    +0.179 C 
BRANCH  15  26
ATOM     26  C   UNL     1      -1.609  -0.473  26.069  0.00  0.00    +0.281 C 
ATOM     27  N   UNL     1      -0.988  -0.764  26.526  0.00  0.00    -0.086 NA
ATOM     28  O   UNL     1      -2.317  -0.247  26.430  0.00  0.00    -0.270 OA
ENDBRANCH  15  26
BRANCH  15  16
ATOM     16  C   UNL     1      -2.156  -0.603  24.754  0.00  0.00    +0.059 C 
BRANCH  16  17
ATOM     17  C   UNL     1      -2.324  -1.394  24.593  0.00  0.00    +0.001 A 
ATOM     18  C   UNL     1      -1.799  -2.026  24.663  0.00  0.00    +0.095 A 
ATOM     19  N   UNL     1      -2.198  -2.714  24.446  0.00  0.00    -0.244 NA
ATOM     20  C   UNL     1      -2.969  -2.508  24.242  0.00  0.00    +0.081 A 
ATOM     21  C   UNL     1      -3.048  -1.692  24.333  0.00  0.00    +0.015 A 
ATOM     22  C   UNL     1      -3.769  -1.326  24.167  0.00  0.00    +0.001 A 
ATOM     23  C   UNL     1      -4.410  -1.776  23.911  0.00  0.00    +0.000 A 
ATOM     24  C   UNL     1      -4.332  -2.592  23.820  0.00  0.00    +0.002 A 
ATOM     25  C   UNL     1      -3.612  -2.959  23.985  0.00  0.00    +0.019 A 
ENDBRANCH  16  17
ENDBRANCH  15  16
ENDBRANCH  14  15
ENDBRANCH  11  12
TORSDOF 8
ENDMDL
MODEL 5
REMARK VINA RESULT:     -10.4      1.586      5.231
REMARK  Name = 
REMARK  8 active torsions:
REMARK  status: ('A' for Active; 'I' for Inactive)
REMARK    1  A    between atoms: C_4  and  C_5
REMARK    2  A    between atoms: C_9  and  N_29
REMARK    3  A    between atoms: C_11  and  C_12
REMARK    4  A    between atoms: N_14  and  C_15
REMARK    5  A    between atoms: C_15  and  C_16
REMARK    6  A    between atoms: C_15  and  C_26
REMARK    7  A    between atoms: C_16  and  C_17
REMARK    8  A    between atoms: N_32  and  C_33
REMARK                            x       y       z     vdW  Elec       q    Type
REMARK                         _______ _______ _______ _____ _____    ______ ____
ROOT
ATOM      5  C   UNL     1      -0.639   2.876  24.783  0.00  0.00    +0.249 C 
ATOM      6  O   UNL     1      -0.043   3.436  24.893  0.00  0.00    -0.270 OA
ATOM      7  N   UNL     1      -0.465   2.154  24.425  0.00  0.00    -0.268 N 
ATOM      8  C   UNL     1       0.275   1.915  24.150  0.00  0.00    +0.116 C 
ATOM      9  C   UNL     1       0.196   1.156  23.834  0.00  0.00    +0.119 C 
ATOM     10  C   UNL     1      -0.593   0.927  23.914  0.00  0.00    +0.053 C 
ATOM     11  C   UNL     1      -1.001   1.544  24.280  0.00  0.00    +0.156 C 
ENDROOT
BRANCH   5   4
ATOM      1  C   UNL     1      -1.016   4.369  25.377  0.00  0.00    +0.027 C 
ATOM      2  C   UNL     1      -1.597   3.785  25.329  0.00  0.00    -0.039 C 
ATOM      3  C   UNL     1      -2.367   3.949  25.577  0.00  0.00    +0.027 C 
ATOM      4  C   UNL     1      -1.408   3.039  25.032  0.00  0.00    +0.049 C 
ENDBRANCH   5   4
BRANCH   9  29
ATOM     29  N   UNL     1       0.800   0.706  23.497  0.00  0.00    -0.187 NA
ATOM     30  C   UNL     1       0.748  -0.117  23.494  0.00  0.00    +0.339 C 
ATOM     31  O   UNL     1       0.092  -0.491  23.828  0.00  0.00    -0.249 OA
ATOM     32  N   UNL     1       1.352  -0.567  23.157  0.00  0.00    -0.189 NA
BRANCH  32  33
ATOM     33  C   UNL     1       2.008  -0.194  22.823  0.00  0.00    +0.097 C 
ATOM     34  C   UNL     1       2.619   0.076  23.307  0.00  0.00    +0.022 C 
ATOM     35  C   UNL     1       3.275   0.450  22.974  0.00  0.00    +0.002 C 
ATOM     36  C   UNL     1       3.319   0.553  22.156  0.00  0.00    +0.000 C 
ATOM     37  C   UNL     1       2.708   0.283  21.673  0.00  0.00    +0.002 C 
ATOM     38  C   UNL     1       2.051  -0.090  22.007  0.00  0.00    +0.022 C 
ENDBRANCH  32  33
ENDBRANCH   9  29
BRANCH  11  12
ATOM     12  C   UNL     1      -1.805   1.549  24.467  0.00  0.00    +0.260 C 
ATOM     13  O   UNL     1      -2.062   1.898  25.169  0.00  0.00    -0.272 OA
ATOM     14  N   UNL     1      -2.351   1.206  23.952  0.00  0.00    -0.196 NA
BRANCH  14  15
ATOM     15  C   UNL     1      -3.154   1.212  24.139  0.00  0.00    +0.179 C 
BRANCH  15  26
ATOM     26  C   UNL     1      -3.652   1.775  23.800  0.00  0.00    +0.281 C 
ATOM     27  N   UNL     1      -4.278   2.089  24.234  0.00  0.00    -0.086 NA
ATOM     28  O   UNL     1      -3.522   2.024  23.023  0.00  0.00    -0.270 OA
ENDBRANCH  15  26
BRANCH  15  16
ATOM     16  C   UNL     1      -3.459   0.654  24.666  0.00  0.00    +0.059 C 
BRANCH  16  17
ATOM     17  C   UNL     1      -3.627  -0.110  24.406  0.00  0.00    +0.001 A 
ATOM     18  C   UNL     1      -3.899  -0.319  23.656  0.00  0.00    +0.095 A 
ATOM     19  N   UNL     1      -3.992  -1.138  23.637  0.00  0.00    -0.244 NA
ATOM     20  C   UNL     1      -3.778  -1.436  24.376  0.00  0.00    +0.081 A 
ATOM     21  C   UNL     1      -3.552  -0.800  24.851  0.00  0.00    +0.015 A 
ATOM     22  C   UNL     1      -3.308  -0.933  25.628  0.00  0.00    +0.001 A 
ATOM     23  C   UNL     1      -3.290  -1.701  25.929  0.00  0.00    +0.000 A 
ATOM     24  C   UNL     1      -3.515  -2.336  25.454  0.00  0.00    +0.002 A 
ATOM     25  C   UNL     1      -3.760  -2.204  24.677  0.00  0.00    +0.019 A 
ENDBRANCH  16  17
ENDBRANCH  15  16
ENDBRANCH  14  15
ENDBRANCH  11  12
TORSDOF 8
ENDMDL
MODEL 6
REMARK VINA RESULT:     -10.2      2.580      4.142
REMARK  Name = 
REMARK  8 active torsions:
REMARK  status: ('A' for Active; 'I' for Inactive)
REMARK    1  A    between atoms: C_4  and  C_5
REMARK    2  A    between atoms: C_9  and  N_29
REMARK    3  A    between atoms: C_11  and  C_12
REMARK    4  A    between atoms: N_14  and  C_15
REMARK    5  A    between atoms: C_15  and  C_16
REMARK    6  A    between atoms: C_15  and  C_26
REMARK    7  A    between atoms: C_16  and  C_17
REMARK    8  A    between atoms: N_32  and  C_33
REMARK                            x       y       z     vdW  Elec       q    Type
REMARK                         _______ _______ _______ _____ _____    ______ ____
ROOT
ATOM      5  C   UNL     1      -0.813   3.192  24.979  0.00  0.00    +0.249 C 
ATOM      6  O   UNL     1      -0.009   3.309  25.121  0.00  0.00    -0.270 OA
ATOM      7  N   UNL     1      -1.098   2.433  24.825  0.00  0.00    -0.268 N 
ATOM      8  C   UNL     1      -0.647   1.743  24.795  0.00  0.00    +0.116 C 
ATOM      9  C   UNL     1      -1.154   1.114  24.626  0.00  0.00    +0.119 C 
ATOM     10  C   UNL     1      -1.919   1.416  24.551  0.00  0.00    +0.053 C 
ATOM     11  C   UNL     1      -1.883   2.231  24.674  0.00  0.00    +0.156 C 
ENDROOT
BRANCH   5   4
ATOM      1  C   UNL     1      -0.224   4.729  25.096  0.00  0.00    +0.027 C 
ATOM      2  C   UNL     1      -1.038   4.601  25.050  0.00  0.00    -0.039 C 
ATOM      3  C   UNL     1      -1.557   5.242  25.062  0.00  0.00    +0.027 C 
ATOM      4  C   UNL     1      -1.332   3.832  24.991  0.00  0.00    +0.049 C 
ENDBRANCH   5   4
BRANCH   9  29
ATOM     29  N   UNL     1      -0.935   0.322  24.545  0.00  0.00    -0.187 NA
ATOM     30  C   UNL     1      -0.332   0.113  24.023  0.00  0.00    +0.339 C 
ATOM     31  O   UNL     1       0.053   0.694  23.582  0.00  0.00    -0.249 OA
ATOM     32  N   UNL     1      -0.113  -0.679  23.943  0.00  0.00    -0.189 NA
BRANCH  32  33
ATOM     33  C   UNL     1      -0.497  -1.260  24.384  0.00  0.00    +0.097 C 
ATOM     34  C   UNL     1      -1.156  -1.647  24.071  0.00  0.00    +0.022 C 
ATOM     35  C   UNL     1      -1.541  -2.229  24.513  0.00  0.00    +0.002 C 
ATOM     36  C   UNL     1      -1.266  -2.423  25.267  0.00  0.00    +0.000 C 
ATOM     37  C   UNL     1      -0.609  -2.036  25.578  0.00  0.00    +0.002 C 
ATOM     38  C   UNL     1      -0.224  -1.454  25.137  0.00  0.00    +0.022 C 
ENDBRANCH  32  33
ENDBRANCH   9  29
BRANCH  11  12
ATOM     12  C   UNL     1      -2.522   2.753  24.650  0.00  0.00    +0.260 C 
ATOM     13  O   UNL     1      -2.523   3.426  25.128  0.00  0.00    -0.272 OA
ATOM     14  N   UNL     1      -3.160   2.602  24.149  0.00  0.00    -0.196 NA
BRANCH  14  15
ATOM     15  C   UNL     1      -3.798   3.124  24.126  0.00  0.00    +0.179 C 
BRANCH  15  26
ATOM     26  C   UNL     1      -3.892   3.631  23.481  0.00  0.00    +0.281 C 
ATOM     27  N   UNL     1      -3.744   3.360  22.717  0.00  0.00    -0.086 NA
ATOM     28  O   UNL     1      -4.135   4.411  23.603  0.00  0.00    -0.270 OA
ENDBRANCH  15  26
BRANCH  15  16
ATOM     16  C   UNL     1      -4.342   3.139  24.746  0.00  0.00    +0.059 C 
BRANCH  16  17
ATOM     17  C   UNL     1      -4.930   2.563  24.793  0.00  0.00    +0.001 A 
ATOM     18  C   UNL     1      -5.124   2.017  24.204  0.00  0.00    +0.095 A 
ATOM     19  N   UNL     1      -5.741   1.548  24.485  0.00  0.00    -0.244 NA
ATOM     20  C   UNL     1      -5.930   1.803  25.246  0.00  0.00    +0.081 A 
ATOM     21  C   UNL     1      -5.429   2.430  25.436  0.00  0.00    +0.015 A 
ATOM     22  C   UNL     1      -5.492   2.799  26.172  0.00  0.00    +0.001 A 
ATOM     23  C   UNL     1      -6.055   2.542  26.716  0.00  0.00    +0.000 A 
ATOM     24  C   UNL     1      -6.556   1.915  26.525  0.00  0.00    +0.002 A 
ATOM     25  C   UNL     1      -6.494   1.545  25.790  0.00  0.00    +0.019 A 
ENDBRANCH  16  17
ENDBRANCH  15  16
ENDBRANCH  14  15
ENDBRANCH  11  12
TORSDOF 8
ENDMDL
MODEL 7
REMARK VINA RESULT:     -10.1      2.129      4.931
REMARK  Name = 
REMARK  8 active torsions:
REMARK  status: ('A' for Active; 'I' for Inactive)
REMARK    1  A    between atoms: C_4  and  C_5
REMARK    2  A    between atoms: C_9  and  N_29
REMARK    3  A    between atoms: C_11  and  C_12
REMARK    4  A    between atoms: N_14  and  C_15
REMARK    5  A    between atoms: C_15  and  C_16
REMARK    6  A    between atoms: C_15  and  C_26
REMARK    7  A    between atoms: C_16  and  C_17
REMARK    8  A    between atoms: N_32  and  C_33
REMARK                            x       y       z     vdW  Elec       q    Type
REMARK                         _______ _______ _______ _____ _____    ______ ____
ROOT
ATOM      5  C   UNL     1      -3.902  -1.049  24.252  0.00  0.00    +0.249 C 
ATOM      6  O   UNL     1      -4.703  -1.235  24.185  0.00  0.00    -0.270 OA
ATOM      7  N   UNL     1      -3.668  -0.264  24.351  0.00  0.00    -0.268 N 
ATOM      8  C   UNL     1      -4.169   0.390  24.393  0.00  0.00    +0.116 C 
ATOM      9  C   UNL     1      -3.701   1.063  24.494  0.00  0.00    +0.119 C 
ATOM     10  C   UNL     1      -2.911   0.824  24.514  0.00  0.00    +0.053 C 
ATOM     11  C   UNL     1      -2.891   0.004  24.426  0.00  0.00    +0.156 C 
ENDROOT
BRANCH   5   4
ATOM      1  C   UNL     1      -4.370  -2.617  24.042  0.00  0.00    +0.027 C 
ATOM      2  C   UNL     1      -3.569  -2.431  24.115  0.00  0.00    -0.039 C 
ATOM      3  C   UNL     1      -3.002  -3.031  24.083  0.00  0.00    +0.027 C 
ATOM      4  C   UNL     1      -3.335  -1.647  24.220  0.00  0.00    +0.049 C 
ENDBRANCH   5   4
BRANCH   9  29
ATOM     29  N   UNL     1      -3.976   1.838  24.563  0.00  0.00    -0.187 NA
ATOM     30  C   UNL     1      -3.978   2.334  23.904  0.00  0.00    +0.339 C 
ATOM     31  O   UNL     1      -3.705   2.056  23.177  0.00  0.00    -0.249 OA
ATOM     32  N   UNL     1      -4.252   3.110  23.972  0.00  0.00    -0.189 NA
BRANCH  32  33
ATOM     33  C   UNL     1      -4.525   3.388  24.699  0.00  0.00    +0.097 C 
ATOM     34  C   UNL     1      -4.006   3.767  25.217  0.00  0.00    +0.022 C 
ATOM     35  C   UNL     1      -4.278   4.045  25.945  0.00  0.00    +0.002 C 
ATOM     36  C   UNL     1      -5.070   3.944  26.154  0.00  0.00    +0.000 C 
ATOM     37  C   UNL     1      -5.588   3.566  25.637  0.00  0.00    +0.002 C 
ATOM     38  C   UNL     1      -5.316   3.287  24.909  0.00  0.00    +0.022 C 
ENDBRANCH  32  33
ENDBRANCH   9  29
BRANCH  11  12
ATOM     12  C   UNL     1      -2.212  -0.465  24.414  0.00  0.00    +0.260 C 
ATOM     13  O   UNL     1      -2.217  -1.187  24.016  0.00  0.00    -0.272 OA
ATOM     14  N   UNL     1      -1.529  -0.212  24.801  0.00  0.00    -0.196 NA
BRANCH  14  15
ATOM     15  C   UNL     1      -0.851  -0.681  24.790  0.00  0.00    +0.179 C 
BRANCH  15  26
ATOM     26  C   UNL     1      -0.660  -1.146  25.445  0.00  0.00    +0.281 C 
ATOM     27  N   UNL     1      -0.806  -0.866  26.206  0.00  0.00    -0.086 NA
ATOM     28  O   UNL     1      -0.323  -1.892  25.336  0.00  0.00    -0.270 OA
ENDBRANCH  15  26
BRANCH  15  16
ATOM     16  C   UNL     1      -0.364  -0.687  24.124  0.00  0.00    +0.059 C 
BRANCH  16  17
ATOM     17  C   UNL     1       0.166  -0.068  23.995  0.00  0.00    +0.001 A 
ATOM     18  C   UNL     1       0.185   0.648  24.405  0.00  0.00    +0.095 A 
ATOM     19  N   UNL     1       0.800   1.102  24.097  0.00  0.00    -0.244 NA
ATOM     20  C   UNL     1       1.162   0.667  23.497  0.00  0.00    +0.081 A 
ATOM     21  C   UNL     1       0.770  -0.056  23.434  0.00  0.00    +0.015 A 
ATOM     22  C   UNL     1       1.014  -0.610  22.873  0.00  0.00    +0.001 A 
ATOM     23  C   UNL     1       1.650  -0.441  22.376  0.00  0.00    +0.000 A 
ATOM     24  C   UNL     1       2.042   0.282  22.438  0.00  0.00    +0.002 A 
ATOM     25  C   UNL     1       1.798   0.837  22.999  0.00  0.00    +0.019 A 
ENDBRANCH  16  17
ENDBRANCH  15  16
ENDBRANCH  14  15
ENDBRANCH  11  12
TORSDOF 8
ENDMDL
MODEL 8
REMARK VINA RESULT:      -9.5      2.250      4.746
REMARK  Name = 
REMARK  8 active torsions:
REMARK  status: ('A' for Active; 'I' for Inactive)
REMARK    1  A    between atoms: C_4  and  C_5
REMARK    2  A    between atoms: C_9  and  N_29
REMARK    3  A    between atoms: C_11  and  C_12
REMARK    4  A    between atoms: N_14  and  C_15
REMARK    5  A    between atoms: C_15  and  C_16
REMARK    6  A    between atoms: C_15  and  C_26
REMARK    7  A    between atoms: C_16  and  C_17
REMARK    8  A    between atoms: N_32  and  C_33
REMARK                            x       y       z     vdW  Elec       q    Type
REMARK                         _______ _______ _______ _____ _____    ______ ____
ROOT
ATOM      5  C   UNL     1      -0.593   2.622  25.294  0.00  0.00    +0.249 C 
ATOM      6  O   UNL     1      -0.041   2.669  25.906  0.00  0.00    -0.270 OA
ATOM      7  N   UNL     1      -0.451   2.129  24.648  0.00  0.00    -0.268 N 
ATOM      8  C   UNL     1       0.215   1.654  24.538  0.00  0.00    +0.116 C 
ATOM      9  C   UNL     1       0.128   1.256  23.820  0.00  0.00    +0.119 C 
ATOM     10  C   UNL     1      -0.592   1.486  23.487  0.00  0.00    +0.053 C 
ATOM     11  C   UNL     1      -0.949   2.025  23.998  0.00  0.00    +0.156 C 
ENDROOT
BRANCH   5   4
ATOM      1  C   UNL     1      -0.895   3.579  26.604  0.00  0.00    +0.027 C 
ATOM      2  C   UNL     1      -1.438   3.545  25.983  0.00  0.00    -0.039 C 
ATOM      3  C   UNL     1      -2.132   3.991  26.018  0.00  0.00    +0.027 C 
ATOM      4  C   UNL     1      -1.286   3.067  25.328  0.00  0.00    +0.049 C 
ENDBRANCH   5   4
BRANCH   9  29
ATOM     29  N   UNL     1       0.666   0.722  23.493  0.00  0.00    -0.187 NA
ATOM     30  C   UNL     1       0.549  -0.089  23.585  0.00  0.00    +0.339 C 
ATOM     31  O   UNL     1      -0.106  -0.367  24.003  0.00  0.00    -0.249 OA
ATOM     32  N   UNL     1       1.087  -0.623  23.258  0.00  0.00    -0.189 NA
BRANCH  32  33
ATOM     33  C   UNL     1       1.741  -0.345  22.839  0.00  0.00    +0.097 C 
ATOM     34  C   UNL     1       2.424  -0.120  23.244  0.00  0.00    +0.022 C 
ATOM     35  C   UNL     1       3.079   0.158  22.826  0.00  0.00    +0.002 C 
ATOM     36  C   UNL     1       3.050   0.211  22.003  0.00  0.00    +0.000 C 
ATOM     37  C   UNL     1       2.367  -0.014  21.599  0.00  0.00    +0.002 C 
ATOM     38  C   UNL     1       1.712  -0.292  22.017  0.00  0.00    +0.022 C 
ENDBRANCH  32  33
ENDBRANCH   9  29
BRANCH  11  12
ATOM     12  C   UNL     1      -1.677   2.396  23.881  0.00  0.00    +0.260 C 
ATOM     13  O   UNL     1      -1.738   3.215  23.952  0.00  0.00    -0.272 OA
ATOM     14  N   UNL     1      -2.343   1.947  23.693  0.00  0.00    -0.196 NA
BRANCH  14  15
ATOM     15  C   UNL     1      -3.070   2.317  23.576  0.00  0.00    +0.179 C 
BRANCH  15  26
ATOM     26  C   UNL     1      -3.276   2.593  22.825  0.00  0.00    +0.281 C 
ATOM     27  N   UNL     1      -3.621   3.336  22.739  0.00  0.00    -0.086 NA
ATOM     28  O   UNL     1      -3.135   2.123  22.161  0.00  0.00    -0.270 OA
ENDBRANCH  15  26
BRANCH  15  16
ATOM     16  C   UNL     1      -3.591   2.413  24.208  0.00  0.00    +0.059 C 
BRANCH  16  17
ATOM     17  C   UNL     1      -4.090   1.795  24.429  0.00  0.00    +0.001 A 
ATOM     18  C   UNL     1      -4.013   1.005  24.202  0.00  0.00    +0.095 A 
ATOM     19  N   UNL     1      -4.629   0.579  24.548  0.00  0.00    -0.244 NA
ATOM     20  C   UNL     1      -5.086   1.105  24.989  0.00  0.00    +0.081 A 
ATOM     21  C   UNL     1      -4.753   1.856  24.915  0.00  0.00    +0.015 A 
ATOM     22  C   UNL     1      -5.098   2.499  25.300  0.00  0.00    +0.001 A 
ATOM     23  C   UNL     1      -5.774   2.392  25.759  0.00  0.00    +0.000 A 
ATOM     24  C   UNL     1      -6.107   1.640  25.833  0.00  0.00    +0.002 A 
ATOM     25  C   UNL     1      -5.764   0.997  25.448  0.00  0.00    +0.019 A 
ENDBRANCH  16  17
ENDBRANCH  15  16
ENDBRANCH  14  15
ENDBRANCH  11  12
TORSDOF 8
ENDMDL
