MODEL 1
REMARK VINA RESULT:      -9.9      0.000      0.000
REMARK  Name = 
REMARK  7 active torsions:
REMARK  status: ('A' for Active; 'I' for Inactive)
REMARK    1  A    between atoms: O_2  and  C_3
REMARK    2  A    between atoms: C_3  and  C_4
REMARK    3  A    between atoms: N_6  and  C_7
REMARK    4  A    between atoms: C_10  and  C_13
REMARK    5  A    between atoms: C_13  and  C_15
REMARK    6  A    between atoms: N_21  and  C_22
REMARK    7  A    between atoms: C_22  and  C_23
REMARK                            x       y       z     vdW  Elec       q    Type
REMARK                         _______ _______ _______ _____ _____    ______ ____
ROOT
ATOM     13  C   UNL     1      -3.968   2.594  24.247  0.00  0.00    +0.195 C 
ATOM     14  O   UNL     1      -3.865   3.013  23.544  0.00  0.00    -0.216 OA
ENDROOT
BRANCH  13  15
ATOM     15  C   UNL     1      -4.010   2.997  24.966  0.00  0.00    +0.140 C 
ATOM     16  C   UNL     1      -4.642   2.863  25.477  0.00  0.00    +0.165 C 
ATOM     17  O   UNL     1      -4.685   3.267  26.196  0.00  0.00    -0.343 OA
ATOM     18  C   UNL     1      -4.094   3.804  26.402  0.00  0.00    +0.227 C 
ATOM     19  C   UNL     1      -3.462   3.938  25.891  0.00  0.00    +0.256 C 
ATOM     20  O   UNL     1      -2.870   4.476  26.098  0.00  0.00    -0.272 OA
ATOM     21  N   UNL     1      -3.419   3.535  25.172  0.00  0.00    -0.270 N 
BRANCH  21  22
ATOM     22  C   UNL     1      -2.786   3.669  24.661  0.00  0.00    +0.122 C 
BRANCH  22  23
ATOM     23  C   UNL     1      -2.014   3.659  24.949  0.00  0.00    +0.017 A 
ATOM     24  C   UNL     1      -1.524   4.315  24.841  0.00  0.00    +0.001 A 
ATOM     25  C   UNL     1      -0.752   4.305  25.130  0.00  0.00    +0.020 A 
ATOM     26  C   UNL     1      -0.468   3.639  25.526  0.00  0.00    +0.099 A 
ATOM     27  N   UNL     1      -0.957   2.984  25.635  0.00  0.00    -0.243 NA
ATOM     28  C   UNL     1      -1.730   2.994  25.346  0.00  0.00    +0.096 A 
ENDBRANCH  22  23
ENDBRANCH  21  22
ENDBRANCH  13  15
BRANCH  13  10
ATOM      7  C   UNL     1      -4.147   0.126  24.202  0.00  0.00    +0.073 A 
ATOM      8  C   UNL     1      -4.716   0.574  24.598  0.00  0.00    +0.016 A 
ATOM      9  C   UNL     1      -4.656   1.396  24.612  0.00  0.00    -0.000 A 
ATOM     10  C   UNL     1      -4.028   1.771  24.232  0.00  0.00    +0.010 A 
ATOM     11  C   UNL     1      -3.459   1.324  23.837  0.00  0.00    -0.000 A 
ATOM     12  C   UNL     1      -3.519   0.500  23.822  0.00  0.00    +0.016 A 
BRANCH   7   6
ATOM      4  C   UNL     1      -3.797  -1.150  24.742  0.00  0.00    +0.276 C 
ATOM      5  O   UNL     1      -3.327  -0.781  25.310  0.00  0.00    -0.270 OA
ATOM      6  N   UNL     1      -4.207  -0.697  24.187  0.00  0.00    -0.177 NA
BRANCH   4   3
ATOM      3  C   UNL     1      -3.857  -1.973  24.727  0.00  0.00    +0.229 C 
BRANCH   3   2
ATOM      1  C   UNL     1      -3.198  -3.239  24.796  0.00  0.00    +0.175 C 
ATOM      2  O   UNL     1      -3.226  -2.436  24.987  0.00  0.00    -0.342 OA
ENDBRANCH   3   2
ENDBRANCH   4   3
ENDBRANCH   7   6
ENDBRANCH  13  10
TORSDOF 7
ENDMDL
MODEL 2
REMARK VINA RESULT:      -9.7      1.959      5.710
REMARK  Name = 
REMARK  7 active torsions:
REMARK  status: ('A' for Active; 'I' for Inactive)
REMARK    1  A    between atoms: O_2  and  C_3
REMARK    2  A    between atoms: C_3  and  C_4
REMARK    3  A    between atoms: N_6  and  C_7
REMARK    4  A    between atoms: C_10  and  C_13
REMARK    5  A    between atoms: C_13  and  C_15
REMARK    6  A    between atoms: N_21  and  C_22
REMARK    7  A    between atoms: C_22  and  C_23
REMARK                            x       y       z     vdW  Elec       q    Type
REMARK                         _______ _______ _______ _____ _____    ______ ____
ROOT
ATOM     13  C   UNL     1      -1.578  -0.048  25.485  0.00  0.00    +0.195 C 
ATOM     14  O   UNL     1      -2.092  -0.229  26.104  0.00  0.00    -0.216 OA
ENDROOT
BRANCH  13  15
ATOM     15  C   UNL     1      -1.255  -0.652  25.026  0.00  0.00    +0.140 C 
ATOM     16  C   UNL     1      -0.509  -0.560  24.688  0.00  0.00    +0.165 C 
ATOM     17  O   UNL     1      -0.186  -1.166  24.229  0.00  0.00    -0.343 OA
ATOM     18  C   UNL     1      -0.612  -1.862  24.108  0.00  0.00    +0.227 C 
ATOM     19  C   UNL     1      -1.358  -1.954  24.445  0.00  0.00    +0.256 C 
ATOM     20  O   UNL     1      -1.783  -2.651  24.324  0.00  0.00    -0.272 OA
ATOM     21  N   UNL     1      -1.681  -1.350  24.904  0.00  0.00    -0.270 N 
BRANCH  21  22
ATOM     22  C   UNL     1      -2.428  -1.441  25.242  0.00  0.00    +0.122 C 
BRANCH  22  23
ATOM     23  C   UNL     1      -3.065  -1.674  24.775  0.00  0.00    +0.017 A 
ATOM     24  C   UNL     1      -3.370  -2.438  24.842  0.00  0.00    +0.001 A 
ATOM     25  C   UNL     1      -4.008  -2.671  24.375  0.00  0.00    +0.020 A 
ATOM     26  C   UNL     1      -4.342  -2.141  23.839  0.00  0.00    +0.099 A 
ATOM     27  N   UNL     1      -4.038  -1.377  23.770  0.00  0.00    -0.243 NA
ATOM     28  C   UNL     1      -3.399  -1.144  24.239  0.00  0.00    +0.096 A 
ENDBRANCH  22  23
ENDBRANCH  21  22
ENDBRANCH  13  15
BRANCH  13  10
ATOM      7  C   UNL     1      -1.003   2.311  25.004  0.00  0.00    +0.073 A 
ATOM      8  C   UNL     1      -1.602   1.937  24.576  0.00  0.00    +0.016 A 
ATOM      9  C   UNL     1      -1.793   1.151  24.737  0.00  0.00    -0.000 A 
ATOM     10  C   UNL     1      -1.387   0.739  25.324  0.00  0.00    +0.010 A 
ATOM     11  C   UNL     1      -0.788   1.113  25.752  0.00  0.00    -0.000 A 
ATOM     12  C   UNL     1      -0.597   1.900  25.591  0.00  0.00    +0.016 A 
BRANCH   7   6
ATOM      4  C   UNL     1      -1.209   3.706  25.234  0.00  0.00    +0.276 C 
ATOM      5  O   UNL     1      -1.795   3.529  25.785  0.00  0.00    -0.270 OA
ATOM      6  N   UNL     1      -0.812   3.097  24.843  0.00  0.00    -0.177 NA
BRANCH   4   3
ATOM      3  C   UNL     1      -1.018   4.492  25.073  0.00  0.00    +0.229 C 
BRANCH   3   2
ATOM      1  C   UNL     1      -1.467   5.845  24.973  0.00  0.00    +0.175 C 
ATOM      2  O   UNL     1      -1.524   5.097  25.317  0.00  0.00    -0.342 OA
ENDBRANCH   3   2
ENDBRANCH   4   3
ENDBRANCH   7   6
ENDBRANCH  13  10
TORSDOF 7
ENDMDL
MODEL 3
REMARK VINA RESULT:      -8.9      2.742      3.893
REMARK  Name = 
REMARK  7 active torsions:
REMARK  status: ('A' for Active; 'I' for Inactive)
REMARK    1  A    between atoms: O_2  and  C_3
REMARK    2  A    between atoms: C_3  and  C_4
REMARK    3  A    between atoms: N_6  and  C_7
REMARK    4  A    between atoms: C_10  and  C_13
REMARK    5  A    between atoms: C_13  and  C_15
REMARK    6  A    between atoms: N_21  and  C_22
REMARK    7  A    between atoms: C_22  and  C_23
REMARK                            x       y       z     vdW  Elec       q    Type
REMARK                         _______ _______ _______ _____ _____    ______ ____
ROOT
ATOM     13  C   UNL     1      -2.299   1.581  25.057  0.00  0.00    +0.195 C 
ATOM     14  O   UNL     1      -2.866   1.147  25.471  0.00  0.00    -0.216 OA
ENDROOT
BRANCH  13  15
ATOM     15  C   UNL     1      -2.351   2.403  25.023  0.00  0.00    +0.140 C 
ATOM     16  C   UNL     1      -1.714   2.867  25.263  0.00  0.00    +0.165 C 
ATOM     17  O   UNL     1      -1.767   3.691  25.228  0.00  0.00    -0.343 OA
ATOM     18  C   UNL     1      -2.458   4.048  24.954  0.00  0.00    +0.227 C 
ATOM     19  C   UNL     1      -3.095   3.583  24.715  0.00  0.00    +0.256 C 
ATOM     20  O   UNL     1      -3.787   3.941  24.440  0.00  0.00    -0.272 OA
ATOM     21  N   UNL     1      -3.043   2.761  24.749  0.00  0.00    -0.270 N 
BRANCH  21  22
ATOM     22  C   UNL     1      -3.681   2.296  24.509  0.00  0.00    +0.122 C 
BRANCH  22  23
ATOM     23  C   UNL     1      -4.414   2.383  24.875  0.00  0.00    +0.017 A 
ATOM     24  C   UNL     1      -5.103   2.155  24.480  0.00  0.00    +0.001 A 
ATOM     25  C   UNL     1      -5.836   2.242  24.846  0.00  0.00    +0.020 A 
ATOM     26  C   UNL     1      -5.883   2.558  25.607  0.00  0.00    +0.099 A 
ATOM     27  N   UNL     1      -5.196   2.786  26.002  0.00  0.00    -0.243 NA
ATOM     28  C   UNL     1      -4.461   2.699  25.635  0.00  0.00    +0.096 A 
ENDBRANCH  22  23
ENDBRANCH  21  22
ENDBRANCH  13  15
BRANCH  13  10
ATOM      7  C   UNL     1      -0.438   0.413  23.917  0.00  0.00    +0.073 A 
ATOM      8  C   UNL     1      -1.045   0.753  23.473  0.00  0.00    +0.016 A 
ATOM      9  C   UNL     1      -1.665   1.142  23.854  0.00  0.00    -0.000 A 
ATOM     10  C   UNL     1      -1.678   1.191  24.677  0.00  0.00    +0.010 A 
ATOM     11  C   UNL     1      -1.071   0.851  25.120  0.00  0.00    -0.000 A 
ATOM     12  C   UNL     1      -0.451   0.462  24.740  0.00  0.00    +0.016 A 
BRANCH   7   6
ATOM      4  C   UNL     1       0.869   0.437  23.340  0.00  0.00    +0.276 C 
ATOM      5  O   UNL     1       0.936   1.237  23.524  0.00  0.00    -0.270 OA
ATOM      6  N   UNL     1       0.182   0.024  23.537  0.00  0.00    -0.177 NA
BRANCH   4   3
ATOM      3  C   UNL     1       1.489   0.048  22.959  0.00  0.00    +0.229 C 
BRANCH   3   2
ATOM      1  C   UNL     1       2.808   0.066  22.411  0.00  0.00    +0.175 C 
ATOM      2  O   UNL     1       2.202   0.441  22.826  0.00  0.00    -0.342 OA
ENDBRANCH   3   2
ENDBRANCH   4   3
ENDBRANCH   7   6
ENDBRANCH  13  10
TORSDOF 7
ENDMDL
MODEL 4
REMARK VINA RESULT:      -8.9      3.012      4.119
REMARK  Name = 
REMARK  7 active torsions:
REMARK  status: ('A' for Active; 'I' for Inactive)
REMARK    1  A    between atoms: O_2  and  C_3
REMARK    2  A    between atoms: C_3  and  C_4
REMARK    3  A    between atoms: N_6  and  C_7
REMARK    4  A    between atoms: C_10  and  C_13
REMARK    5  A    between atoms: C_13  and  C_15
REMARK    6  A    between atoms: N_21  and  C_22
REMARK    7  A    between atoms: C_22  and  C_23
REMARK                            x       y       z     vdW  Elec       q    Type
REMARK                         _______ _______ _______ _____ _____    ______ ____
ROOT
ATOM     13  C   UNL     1      -1.974   1.102  25.015  0.00  0.00    +0.195 C 
ATOM     14  O   UNL     1      -1.860   1.765  25.493  0.00  0.00    -0.216 OA
ENDROOT
BRANCH  13  15
ATOM     15  C   UNL     1      -2.715   0.742  24.979  0.00  0.00    +0.140 C 
ATOM     16  C   UNL     1      -2.804  -0.044  25.209  0.00  0.00    +0.165 C 
ATOM     17  O   UNL     1      -3.546  -0.405  25.173  0.00  0.00    -0.343 OA
ATOM     18  C   UNL     1      -4.198   0.023  24.905  0.00  0.00    +0.227 C 
ATOM     19  C   UNL     1      -4.110   0.809  24.675  0.00  0.00    +0.256 C 
ATOM     20  O   UNL     1      -4.764   1.237  24.407  0.00  0.00    -0.272 OA
ATOM     21  N   UNL     1      -3.369   1.170  24.711  0.00  0.00    -0.270 N 
BRANCH  21  22
ATOM     22  C   UNL     1      -3.281   1.957  24.480  0.00  0.00    +0.122 C 
BRANCH  22  23
ATOM     23  C   UNL     1      -3.785   2.534  24.784  0.00  0.00    +0.017 A 
ATOM     24  C   UNL     1      -4.225   3.008  24.272  0.00  0.00    +0.001 A 
ATOM     25  C   UNL     1      -4.729   3.586  24.575  0.00  0.00    +0.020 A 
ATOM     26  C   UNL     1      -4.793   3.690  25.391  0.00  0.00    +0.099 A 
ATOM     27  N   UNL     1      -4.354   3.216  25.904  0.00  0.00    -0.243 NA
ATOM     28  C   UNL     1      -3.849   2.638  25.600  0.00  0.00    +0.096 A 
ENDBRANCH  22  23
ENDBRANCH  21  22
ENDBRANCH  13  15
BRANCH  13  10
ATOM      7  C   UNL     1      -0.092   0.191  23.691  0.00  0.00    +0.073 A 
ATOM      8  C   UNL     1      -0.587   0.765  23.364  0.00  0.00    +0.016 A 
ATOM      9  C   UNL     1      -1.214   1.068  23.806  0.00  0.00    -0.000 A 
ATOM     10  C   UNL     1      -1.346   0.798  24.573  0.00  0.00    +0.010 A 
ATOM     11  C   UNL     1      -0.852   0.225  24.900  0.00  0.00    -0.000 A 
ATOM     12  C   UNL     1      -0.224  -0.078  24.458  0.00  0.00    +0.016 A 
BRANCH   7   6
ATOM      4  C   UNL     1       1.228   0.330  23.160  0.00  0.00    +0.276 C 
ATOM      5  O   UNL     1       1.292   1.072  23.512  0.00  0.00    -0.270 OA
ATOM      6  N   UNL     1       0.535  -0.112  23.249  0.00  0.00    -0.177 NA
BRANCH   4   3
ATOM      3  C   UNL     1       1.855   0.027  22.718  0.00  0.00    +0.229 C 
BRANCH   3   2
ATOM      1  C   UNL     1       3.219   0.098  22.298  0.00  0.00    +0.175 C 
ATOM      2  O   UNL     1       2.577   0.425  22.703  0.00  0.00    -0.342 OA
ENDBRANCH   3   2
ENDBRANCH   4   3
ENDBRANCH   7   6
ENDBRANCH  13  10
TORSDOF 7
ENDMDL
