MODEL 1
REMARK VINA RESULT:     -10.7      0.000      0.000
REMARK  Name = 
REMARK  6 active torsions:
REMARK  status: ('A' for Active; 'I' for Inactive)
REMARK    1  A    between atoms: C_2  and  C_4
REMARK    2  A    between atoms: C_7  and  C_8
REMARK    3  A    between atoms: C_8  and  N_9
REMARK    4  A    between atoms: C_13  and  C_14
REMARK    5  A    between atoms: C_16  and  C_19
REMARK    6  A    between atoms: C_22  and  N_25
REMARK                            x       y       z     vdW  Elec       q    Type
REMARK                         _______ _______ _______ _____ _____    ______ ____
ROOT
ATOM     14  C   UNL     1      -5.059   1.967  25.434  0.00  0.00    +0.251 A 
ATOM     15  N   UNL     1      -4.501   1.448  25.117  0.00  0.00    -0.190 NA
ATOM     16  C   UNL     1      -4.724   0.680  25.317  0.00  0.00    +0.205 A 
ATOM     17  N   UNL     1      -5.419   0.723  25.757  0.00  0.00    -0.056 NA
ATOM     18  O   UNL     1      -5.626   1.517  25.830  0.00  0.00    -0.336 OA
ENDROOT
BRANCH  16  19
ATOM     19  C   UNL     1      -4.321  -0.011  25.112  0.00  0.00    +0.058 A 
ATOM     20  C   UNL     1      -4.337  -0.281  24.333  0.00  0.00    +0.008 A 
ATOM     21  C   UNL     1      -3.934  -0.972  24.128  0.00  0.00    +0.038 A 
ATOM     22  C   UNL     1      -3.516  -1.391  24.702  0.00  0.00    +0.149 A 
ATOM     23  N   UNL     1      -3.500  -1.121  25.481  0.00  0.00    -0.226 NA
ATOM     24  C   UNL     1      -3.903  -0.430  25.686  0.00  0.00    +0.104 A 
BRANCH  22  25
ATOM     25  N   UNL     1      -3.113  -2.082  24.497  0.00  0.00    -0.271 N 
ATOM     26  C   UNL     1      -2.294  -2.167  24.439  0.00  0.00    +0.104 A 
ATOM     27  C   UNL     1      -2.133  -2.946  24.220  0.00  0.00    +0.120 A 
ATOM     28  N   UNL     1      -2.853  -3.343  24.143  0.00  0.00    -0.222 NA
ATOM     29  C   UNL     1      -3.458  -2.808  24.315  0.00  0.00    +0.184 A 
ENDBRANCH  22  25
ENDBRANCH  16  19
BRANCH  14  13
ATOM      9  N   UNL     1      -4.393   3.275  25.459  0.00  0.00    -0.263 NA
ATOM     10  C   UNL     1      -4.634   4.056  25.345  0.00  0.00    +0.073 C 
ATOM     11  C   UNL     1      -5.443   4.051  25.182  0.00  0.00    +0.019 C 
ATOM     12  C   UNL     1      -5.701   3.268  25.196  0.00  0.00    +0.027 C 
ATOM     13  C   UNL     1      -5.051   2.788  25.367  0.00  0.00    +0.138 C 
BRANCH   9   8
ATOM      8  C   UNL     1      -3.626   3.026  25.635  0.00  0.00    +0.099 C 
BRANCH   8   7
ATOM      4  C   UNL     1      -1.701   4.504  25.148  0.00  0.00    +0.080 A 
ATOM      5  C   UNL     1      -1.956   3.960  24.584  0.00  0.00    +0.006 A 
ATOM      6  C   UNL     1      -2.598   3.467  24.745  0.00  0.00    -0.003 A 
ATOM      7  C   UNL     1      -2.984   3.519  25.473  0.00  0.00    -0.006 A 
ATOM     30  C   UNL     1      -2.729   4.063  26.038  0.00  0.00    -0.003 A 
ATOM     31  C   UNL     1      -2.087   4.556  25.875  0.00  0.00    +0.006 A 
BRANCH   4   2
ATOM      1  O   UNL     1      -1.151   5.817  25.014  0.00  0.00    -0.241 OA
ATOM      2  C   UNL     1      -1.060   4.996  24.986  0.00  0.00    +0.388 C 
ATOM      3  O   UNL     1      -0.326   4.670  24.795  0.00  0.00    -0.241 OA
ENDBRANCH   4   2
ENDBRANCH   8   7
ENDBRANCH   9   8
ENDBRANCH  14  13
TORSDOF 6
ENDMDL
MODEL 2
REMARK VINA RESULT:     -10.3      3.258      4.434
REMARK  Name = 
REMARK  6 active torsions:
REMARK  status: ('A' for Active; 'I' for Inactive)
REMARK    1  A    between atoms: C_2  and  C_4
REMARK    2  A    between atoms: C_7  and  C_8
REMARK    3  A    between atoms: C_8  and  N_9
REMARK    4  A    between atoms: C_13  and  C_14
REMARK    5  A    between atoms: C_16  and  C_19
REMARK    6  A    between atoms: C_22  and  N_25
REMARK                            x       y       z     vdW  Elec       q    Type
REMARK                         _______ _______ _______ _____ _____    ______ ____
ROOT
ATOM     14  C   UNL     1      -2.279  -0.101  24.855  0.00  0.00    +0.251 A 
ATOM     15  N   UNL     1      -1.749  -0.061  24.223  0.00  0.00    -0.190 NA
ATOM     16  C   UNL     1      -0.985  -0.031  24.532  0.00  0.00    +0.205 A 
ATOM     17  N   UNL     1      -1.042  -0.052  25.354  0.00  0.00    -0.056 NA
ATOM     18  O   UNL     1      -1.840  -0.095  25.554  0.00  0.00    -0.336 OA
ENDROOT
BRANCH  16  19
ATOM     19  C   UNL     1      -0.287   0.012  24.095  0.00  0.00    +0.058 A 
ATOM     20  C   UNL     1       0.043   0.746  23.916  0.00  0.00    +0.008 A 
ATOM     21  C   UNL     1       0.741   0.789  23.478  0.00  0.00    +0.038 A 
ATOM     22  C   UNL     1       1.110   0.098  23.220  0.00  0.00    +0.149 A 
ATOM     23  N   UNL     1       0.781  -0.637  23.400  0.00  0.00    -0.226 NA
ATOM     24  C   UNL     1       0.082  -0.680  23.837  0.00  0.00    +0.104 A 
BRANCH  22  25
ATOM     25  N   UNL     1       1.809   0.141  22.783  0.00  0.00    -0.271 N 
ATOM     26  C   UNL     1       2.515   0.488  23.031  0.00  0.00    +0.104 A 
ATOM     27  C   UNL     1       3.066   0.406  22.423  0.00  0.00    +0.120 A 
ATOM     28  N   UNL     1       2.700   0.008  21.799  0.00  0.00    -0.222 NA
ATOM     29  C   UNL     1       1.923  -0.155  22.022  0.00  0.00    +0.184 A 
ENDBRANCH  22  25
ENDBRANCH  16  19
BRANCH  14  13
ATOM      9  N   UNL     1      -3.608   0.499  24.679  0.00  0.00    -0.263 NA
ATOM     10  C   UNL     1      -4.381   0.212  24.656  0.00  0.00    +0.073 C 
ATOM     11  C   UNL     1      -4.350  -0.606  24.761  0.00  0.00    +0.019 C 
ATOM     12  C   UNL     1      -3.559  -0.823  24.848  0.00  0.00    +0.027 C 
ATOM     13  C   UNL     1      -3.100  -0.139  24.797  0.00  0.00    +0.138 C 
BRANCH   9   8
ATOM      8  C   UNL     1      -3.383   1.289  24.597  0.00  0.00    +0.099 C 
BRANCH   8   7
ATOM      4  C   UNL     1      -4.946   3.096  25.247  0.00  0.00    +0.080 A 
ATOM      5  C   UNL     1      -4.996   2.757  24.496  0.00  0.00    +0.006 A 
ATOM      6  C   UNL     1      -4.475   2.155  24.279  0.00  0.00    -0.003 A 
ATOM      7  C   UNL     1      -3.904   1.892  24.814  0.00  0.00    -0.006 A 
ATOM     30  C   UNL     1      -3.854   2.230  25.565  0.00  0.00    -0.003 A 
ATOM     31  C   UNL     1      -4.376   2.832  25.780  0.00  0.00    +0.006 A 
BRANCH   4   2
ATOM      1  O   UNL     1      -6.181   3.512  25.834  0.00  0.00    -0.241 OA
ATOM      2  C   UNL     1      -5.467   3.697  25.463  0.00  0.00    +0.388 C 
ATOM      3  O   UNL     1      -5.275   4.485  25.309  0.00  0.00    -0.241 OA
ENDBRANCH   4   2
ENDBRANCH   8   7
ENDBRANCH   9   8
ENDBRANCH  14  13
TORSDOF 6
ENDMDL
MODEL 3
REMARK VINA RESULT:      -9.8      2.116      3.586
REMARK  Name = 
REMARK  6 active torsions:
REMARK  status: ('A' for Active; 'I' for Inactive)
REMARK    1  A    between atoms: C_2  and  C_4
REMARK    2  A    between atoms: C_7  and  C_8
REMARK    3  A    between atoms: C_8  and  N_9
REMARK    4  A    between atoms: C_13  and  C_14
REMARK    5  A    between atoms: C_16  and  C_19
REMARK    6  A    between atoms: C_22  and  N_25
REMARK                            x       y       z     vdW  Elec       q    Type
REMARK                         _______ _______ _______ _____ _____    ______ ____
ROOT
ATOM     14  C   UNL     1      -0.701   3.090  25.288  0.00  0.00    +0.251 A 
ATOM     15  N   UNL     1      -1.056   2.372  25.088  0.00  0.00    -0.190 NA
ATOM     16  C   UNL     1      -0.522   1.767  25.258  0.00  0.00    +0.205 A 
ATOM     17  N   UNL     1       0.163   2.110  25.563  0.00  0.00    -0.056 NA
ATOM     18  O   UNL     1       0.053   2.927  25.581  0.00  0.00    -0.336 OA
ENDROOT
BRANCH  16  19
ATOM     19  C   UNL     1      -0.651   0.960  25.143  0.00  0.00    +0.058 A 
ATOM     20  C   UNL     1      -1.036   0.518  25.724  0.00  0.00    +0.008 A 
ATOM     21  C   UNL     1      -1.165  -0.289  25.609  0.00  0.00    +0.038 A 
ATOM     22  C   UNL     1      -0.909  -0.653  24.915  0.00  0.00    +0.149 A 
ATOM     23  N   UNL     1      -0.525  -0.211  24.334  0.00  0.00    -0.226 NA
ATOM     24  C   UNL     1      -0.396   0.596  24.449  0.00  0.00    +0.104 A 
BRANCH  22  25
ATOM     25  N   UNL     1      -1.038  -1.460  24.800  0.00  0.00    -0.271 N 
ATOM     26  C   UNL     1      -1.678  -1.798  24.402  0.00  0.00    +0.104 A 
ATOM     27  C   UNL     1      -1.585  -2.617  24.419  0.00  0.00    +0.120 A 
ATOM     28  N   UNL     1      -0.888  -2.787  24.828  0.00  0.00    -0.222 NA
ATOM     29  C   UNL     1      -0.550  -2.071  25.063  0.00  0.00    +0.184 A 
ENDBRANCH  22  25
ENDBRANCH  16  19
BRANCH  14  13
ATOM      9  N   UNL     1      -1.762   4.078  25.523  0.00  0.00    -0.263 NA
ATOM     10  C   UNL     1      -1.885   4.865  25.309  0.00  0.00    +0.073 C 
ATOM     11  C   UNL     1      -1.237   5.111  24.862  0.00  0.00    +0.019 C 
ATOM     12  C   UNL     1      -0.714   4.476  24.799  0.00  0.00    +0.027 C 
ATOM     13  C   UNL     1      -1.039   3.837  25.208  0.00  0.00    +0.138 C 
BRANCH   9   8
ATOM      8  C   UNL     1      -2.273   3.613  25.973  0.00  0.00    +0.099 C 
BRANCH   8   7
ATOM      4  C   UNL     1      -4.721   3.787  25.642  0.00  0.00    +0.080 A 
ATOM      5  C   UNL     1      -4.257   3.386  25.089  0.00  0.00    +0.006 A 
ATOM      6  C   UNL     1      -3.442   3.328  25.199  0.00  0.00    -0.003 A 
ATOM      7  C   UNL     1      -3.089   3.671  25.863  0.00  0.00    -0.006 A 
ATOM     30  C   UNL     1      -3.553   4.071  26.415  0.00  0.00    -0.003 A 
ATOM     31  C   UNL     1      -4.369   4.129  26.304  0.00  0.00    +0.006 A 
BRANCH   4   2
ATOM      1  O   UNL     1      -5.979   3.167  25.370  0.00  0.00    -0.241 OA
ATOM      2  C   UNL     1      -5.535   3.844  25.532  0.00  0.00    +0.388 C 
ATOM      3  O   UNL     1      -5.909   4.579  25.583  0.00  0.00    -0.241 OA
ENDBRANCH   4   2
ENDBRANCH   8   7
ENDBRANCH   9   8
ENDBRANCH  14  13
TORSDOF 6
ENDMDL
MODEL 4
REMARK VINA RESULT:      -9.6      3.340      4.672
REMARK  Name = 
REMARK  6 active torsions:
REMARK  status: ('A' for Active; 'I' for Inactive)
REMARK    1  A    between atoms: C_2  and  C_4
REMARK    2  A    between atoms: C_7  and  C_8
REMARK    3  A    between atoms: C_8  and  N_9
REMARK    4  A    between atoms: C_13  and  C_14
REMARK    5  A    between atoms: C_16  and  C_19
REMARK    6  A    between atoms: C_22  and  N_25
REMARK                            x       y       z     vdW  Elec       q    Type
REMARK                         _______ _______ _______ _____ _____    ______ ____
ROOT
ATOM     14  C   UNL     1      -1.394   2.402  25.331  0.00  0.00    +0.251 A 
ATOM     15  N   UNL     1      -0.895   2.293  24.683  0.00  0.00    -0.190 NA
ATOM     16  C   UNL     1      -0.445   1.616  24.818  0.00  0.00    +0.205 A 
ATOM     17  N   UNL     1      -0.664   1.306  25.550  0.00  0.00    -0.056 NA
ATOM     18  O   UNL     1      -1.250   1.791  25.867  0.00  0.00    -0.336 OA
ENDROOT
BRANCH  16  19
ATOM     19  C   UNL     1       0.126   1.303  24.311  0.00  0.00    +0.058 A 
ATOM     20  C   UNL     1      -0.020   0.596  23.911  0.00  0.00    +0.008 A 
ATOM     21  C   UNL     1       0.550   0.284  23.404  0.00  0.00    +0.038 A 
ATOM     22  C   UNL     1       1.267   0.678  23.296  0.00  0.00    +0.149 A 
ATOM     23  N   UNL     1       1.414   1.385  23.695  0.00  0.00    -0.226 NA
ATOM     24  C   UNL     1       0.843   1.697  24.203  0.00  0.00    +0.104 A 
BRANCH  22  25
ATOM     25  N   UNL     1       1.838   0.366  22.788  0.00  0.00    -0.271 N 
ATOM     26  C   UNL     1       2.654   0.472  22.851  0.00  0.00    +0.104 A 
ATOM     27  C   UNL     1       3.013   0.064  22.231  0.00  0.00    +0.120 A 
ATOM     28  N   UNL     1       2.419  -0.295  21.784  0.00  0.00    -0.222 NA
ATOM     29  C   UNL     1       1.693  -0.108  22.129  0.00  0.00    +0.184 A 
ENDBRANCH  22  25
ENDBRANCH  16  19
BRANCH  14  13
ATOM      9  N   UNL     1      -2.715   3.018  25.149  0.00  0.00    -0.263 NA
ATOM     10  C   UNL     1      -3.061   3.734  25.367  0.00  0.00    +0.073 C 
ATOM     11  C   UNL     1      -2.497   4.174  25.779  0.00  0.00    +0.019 C 
ATOM     12  C   UNL     1      -1.803   3.728  25.816  0.00  0.00    +0.027 C 
ATOM     13  C   UNL     1      -1.939   3.013  25.426  0.00  0.00    +0.138 C 
BRANCH   9   8
ATOM      8  C   UNL     1      -3.083   2.411  24.728  0.00  0.00    +0.099 C 
BRANCH   8   7
ATOM      4  C   UNL     1      -5.500   1.976  25.039  0.00  0.00    +0.080 A 
ATOM      5  C   UNL     1      -5.251   2.643  24.621  0.00  0.00    +0.006 A 
ATOM      6  C   UNL     1      -4.446   2.788  24.517  0.00  0.00    -0.003 A 
ATOM      7  C   UNL     1      -3.889   2.266  24.832  0.00  0.00    -0.006 A 
ATOM     30  C   UNL     1      -4.138   1.600  25.249  0.00  0.00    -0.003 A 
ATOM     31  C   UNL     1      -4.944   1.455  25.353  0.00  0.00    +0.006 A 
BRANCH   4   2
ATOM      1  O   UNL     1      -6.644   1.899  25.892  0.00  0.00    -0.241 OA
ATOM      2  C   UNL     1      -6.305   1.832  25.142  0.00  0.00    +0.388 C 
ATOM      3  O   UNL     1      -6.773   1.620  24.496  0.00  0.00    -0.241 OA
ENDBRANCH   4   2
ENDBRANCH   8   7
ENDBRANCH   9   8
ENDBRANCH  14  13
TORSDOF 6
ENDMDL
MODEL 5
REMARK VINA RESULT:      -9.6      2.953      5.267
REMARK  Name = 
REMARK  6 active torsions:
REMARK  status: ('A' for Active; 'I' for Inactive)
REMARK    1  A    between atoms: C_2  and  C_4
REMARK    2  A    between atoms: C_7  and  C_8
REMARK    3  A    between atoms: C_8  and  N_9
REMARK    4  A    between atoms: C_13  and  C_14
REMARK    5  A    between atoms: C_16  and  C_19
REMARK    6  A    between atoms: C_22  and  N_25
REMARK                            x       y       z     vdW  Elec       q    Type
REMARK                         _______ _______ _______ _____ _____    ______ ____
ROOT
ATOM     14  C   UNL     1      -2.171  -0.478  24.591  0.00  0.00    +0.251 A 
ATOM     15  N   UNL     1      -2.455   0.214  24.941  0.00  0.00    -0.190 NA
ATOM     16  C   UNL     1      -3.196   0.377  24.617  0.00  0.00    +0.205 A 
ATOM     17  N   UNL     1      -3.370  -0.214  24.069  0.00  0.00    -0.056 NA
ATOM     18  O   UNL     1      -2.737  -0.741  24.053  0.00  0.00    -0.336 OA
ENDROOT
BRANCH  16  19
ATOM     19  C   UNL     1      -3.679   1.018  24.810  0.00  0.00    +0.058 A 
ATOM     20  C   UNL     1      -4.479   0.898  24.972  0.00  0.00    +0.008 A 
ATOM     21  C   UNL     1      -4.961   1.539  25.164  0.00  0.00    +0.038 A 
ATOM     22  C   UNL     1      -4.644   2.300  25.194  0.00  0.00    +0.149 A 
ATOM     23  N   UNL     1      -3.844   2.420  25.032  0.00  0.00    -0.226 NA
ATOM     24  C   UNL     1      -3.362   1.779  24.839  0.00  0.00    +0.104 A 
BRANCH  22  25
ATOM     25  N   UNL     1      -5.127   2.941  25.386  0.00  0.00    -0.271 N 
ATOM     26  C   UNL     1      -4.951   3.737  25.254  0.00  0.00    +0.104 A 
ATOM     27  C   UNL     1      -5.586   4.187  25.530  0.00  0.00    +0.120 A 
ATOM     28  N   UNL     1      -6.153   3.669  25.832  0.00  0.00    -0.222 NA
ATOM     29  C   UNL     1      -5.869   2.899  25.743  0.00  0.00    +0.184 A 
ENDBRANCH  22  25
ENDBRANCH  16  19
BRANCH  14  13
ATOM      9  N   UNL     1      -0.727  -0.663  24.397  0.00  0.00    -0.263 NA
ATOM     10  C   UNL     1      -0.152  -1.157  24.722  0.00  0.00    +0.073 C 
ATOM     11  C   UNL     1      -0.519  -1.641  25.281  0.00  0.00    +0.019 C 
ATOM     12  C   UNL     1      -1.321  -1.445  25.300  0.00  0.00    +0.027 C 
ATOM     13  C   UNL     1      -1.448  -0.840  24.753  0.00  0.00    +0.138 C 
BRANCH   9   8
ATOM      8  C   UNL     1      -0.601  -0.090  23.816  0.00  0.00    +0.099 C 
BRANCH   8   7
ATOM      4  C   UNL     1       1.698   0.394  23.034  0.00  0.00    +0.080 A 
ATOM      5  C   UNL     1       1.349   0.871  23.610  0.00  0.00    +0.006 A 
ATOM      6  C   UNL     1       0.583   0.710  23.871  0.00  0.00    -0.003 A 
ATOM      7  C   UNL     1       0.166   0.071  23.555  0.00  0.00    -0.006 A 
ATOM     30  C   UNL     1       0.514  -0.405  22.979  0.00  0.00    -0.003 A 
ATOM     31  C   UNL     1       1.281  -0.243  22.718  0.00  0.00    +0.006 A 
BRANCH   4   2
ATOM      1  O   UNL     1       2.775   0.144  22.129  0.00  0.00    -0.241 OA
ATOM      2  C   UNL     1       2.463   0.556  22.773  0.00  0.00    +0.388 C 
ATOM      3  O   UNL     1       2.917   1.129  23.155  0.00  0.00    -0.241 OA
ENDBRANCH   4   2
ENDBRANCH   8   7
ENDBRANCH   9   8
ENDBRANCH  14  13
TORSDOF 6
ENDMDL
MODEL 6
REMARK VINA RESULT:      -9.1      3.625      5.406
REMARK  Name = 
REMARK  6 active torsions:
REMARK  status: ('A' for Active; 'I' for Inactive)
REMARK    1  A    between atoms: C_2  and  C_4
REMARK    2  A    between atoms: C_7  and  C_8
REMARK    3  A    between atoms: C_8  and  N_9
REMARK    4  A    between atoms: C_13  and  C_14
REMARK    5  A    between atoms: C_16  and  C_19
REMARK    6  A    between atoms: C_22  and  N_25
REMARK                            x       y       z     vdW  Elec       q    Type
REMARK                         _______ _______ _______ _____ _____    ______ ____
ROOT
ATOM     14  C   UNL     1      -2.069   1.622  24.721  0.00  0.00    +0.251 A 
ATOM     15  N   UNL     1      -1.519   1.332  24.179  0.00  0.00    -0.190 NA
ATOM     16  C   UNL     1      -0.765   1.468  24.484  0.00  0.00    +0.205 A 
ATOM     17  N   UNL     1      -0.849   1.842  25.214  0.00  0.00    -0.056 NA
ATOM     18  O   UNL     1      -1.654   1.937  25.360  0.00  0.00    -0.336 OA
ENDROOT
BRANCH  16  19
ATOM     19  C   UNL     1      -0.051   1.265  24.122  0.00  0.00    +0.058 A 
ATOM     20  C   UNL     1       0.004   0.570  23.680  0.00  0.00    +0.008 A 
ATOM     21  C   UNL     1       0.717   0.367  23.318  0.00  0.00    +0.038 A 
ATOM     22  C   UNL     1       1.375   0.859  23.399  0.00  0.00    +0.149 A 
ATOM     23  N   UNL     1       1.320   1.553  23.841  0.00  0.00    -0.226 NA
ATOM     24  C   UNL     1       0.607   1.756  24.203  0.00  0.00    +0.104 A 
BRANCH  22  25
ATOM     25  N   UNL     1       2.088   0.656  23.037  0.00  0.00    -0.271 N 
ATOM     26  C   UNL     1       2.799   1.072  23.098  0.00  0.00    +0.104 A 
ATOM     27  C   UNL     1       3.366   0.674  22.650  0.00  0.00    +0.120 A 
ATOM     28  N   UNL     1       3.006   0.013  22.312  0.00  0.00    -0.222 NA
ATOM     29  C   UNL     1       2.216   0.001  22.551  0.00  0.00    +0.184 A 
ENDBRANCH  22  25
ENDBRANCH  16  19
BRANCH  14  13
ATOM      9  N   UNL     1      -3.386   0.992  24.885  0.00  0.00    -0.263 NA
ATOM     10  C   UNL     1      -4.161   1.199  24.692  0.00  0.00    +0.073 C 
ATOM     11  C   UNL     1      -4.143   1.938  24.324  0.00  0.00    +0.019 C 
ATOM     12  C   UNL     1      -3.357   2.186  24.290  0.00  0.00    +0.027 C 
ATOM     13  C   UNL     1      -2.889   1.601  24.637  0.00  0.00    +0.138 C 
BRANCH   9   8
ATOM      8  C   UNL     1      -3.150   0.297  25.261  0.00  0.00    +0.099 C 
BRANCH   8   7
ATOM      4  C   UNL     1      -3.889  -1.897  24.385  0.00  0.00    +0.080 A 
ATOM      5  C   UNL     1      -3.567  -1.843  25.143  0.00  0.00    +0.006 A 
ATOM      6  C   UNL     1      -3.320  -1.112  25.435  0.00  0.00    -0.003 A 
ATOM      7  C   UNL     1      -3.397  -0.435  24.969  0.00  0.00    -0.006 A 
ATOM     30  C   UNL     1      -3.719  -0.489  24.212  0.00  0.00    -0.003 A 
ATOM     31  C   UNL     1      -3.966  -1.221  23.920  0.00  0.00    +0.006 A 
BRANCH   4   2
ATOM      1  O   UNL     1      -4.770  -2.670  23.567  0.00  0.00    -0.241 OA
ATOM      2  C   UNL     1      -4.136  -2.628  24.094  0.00  0.00    +0.388 C 
ATOM      3  O   UNL     1      -3.749  -3.318  24.328  0.00  0.00    -0.241 OA
ENDBRANCH   4   2
ENDBRANCH   8   7
ENDBRANCH   9   8
ENDBRANCH  14  13
TORSDOF 6
ENDMDL
MODEL 7
REMARK VINA RESULT:      -8.7      2.387      5.931
REMARK  Name = 
REMARK  6 active torsions:
REMARK  status: ('A' for Active; 'I' for Inactive)
REMARK    1  A    between atoms: C_2  and  C_4
REMARK    2  A    between atoms: C_7  and  C_8
REMARK    3  A    between atoms: C_8  and  N_9
REMARK    4  A    between atoms: C_13  and  C_14
REMARK    5  A    between atoms: C_16  and  C_19
REMARK    6  A    between atoms: C_22  and  N_25
REMARK                            x       y       z     vdW  Elec       q    Type
REMARK                         _______ _______ _______ _____ _____    ______ ____
ROOT
ATOM     14  C   UNL     1      -0.891   1.408  24.646  0.00  0.00    +0.251 A 
ATOM     15  N   UNL     1      -1.696   1.587  24.597  0.00  0.00    -0.190 NA
ATOM     16  C   UNL     1      -1.831   2.275  25.030  0.00  0.00    +0.205 A 
ATOM     17  N   UNL     1      -1.111   2.522  25.347  0.00  0.00    -0.056 NA
ATOM     18  O   UNL     1      -0.531   1.987  25.110  0.00  0.00    -0.336 OA
ENDROOT
BRANCH  16  19
ATOM     19  C   UNL     1      -2.559   2.651  25.129  0.00  0.00    +0.058 A 
ATOM     20  C   UNL     1      -3.163   2.531  24.579  0.00  0.00    +0.008 A 
ATOM     21  C   UNL     1      -3.891   2.906  24.678  0.00  0.00    +0.038 A 
ATOM     22  C   UNL     1      -4.015   3.402  25.326  0.00  0.00    +0.149 A 
ATOM     23  N   UNL     1      -3.412   3.523  25.875  0.00  0.00    -0.226 NA
ATOM     24  C   UNL     1      -2.683   3.147  25.776  0.00  0.00    +0.104 A 
BRANCH  22  25
ATOM     25  N   UNL     1      -4.743   3.778  25.424  0.00  0.00    -0.271 N 
ATOM     26  C   UNL     1      -4.912   4.564  25.240  0.00  0.00    +0.104 A 
ATOM     27  C   UNL     1      -5.704   4.705  25.426  0.00  0.00    +0.120 A 
ATOM     28  N   UNL     1      -6.024   4.006  25.726  0.00  0.00    -0.222 NA
ATOM     29  C   UNL     1      -5.430   3.433  25.724  0.00  0.00    +0.184 A 
ENDBRANCH  22  25
ENDBRANCH  16  19
BRANCH  14  13
ATOM      9  N   UNL     1      -0.612  -0.027  24.502  0.00  0.00    -0.263 NA
ATOM     10  C   UNL     1      -0.133  -0.482  24.009  0.00  0.00    +0.073 C 
ATOM     11  C   UNL     1       0.260   0.029  23.494  0.00  0.00    +0.019 C 
ATOM     12  C   UNL     1       0.024   0.800  23.670  0.00  0.00    +0.027 C 
ATOM     13  C   UNL     1      -0.515   0.765  24.294  0.00  0.00    +0.138 C 
BRANCH   9   8
ATOM      8  C   UNL     1      -1.102  -0.314  25.101  0.00  0.00    +0.099 C 
BRANCH   8   7
ATOM      4  C   UNL     1      -2.541  -2.285  24.683  0.00  0.00    +0.080 A 
ATOM      5  C   UNL     1      -1.737  -2.386  24.840  0.00  0.00    +0.006 A 
ATOM      6  C   UNL     1      -1.257  -1.730  24.979  0.00  0.00    -0.003 A 
ATOM      7  C   UNL     1      -1.582  -0.971  24.961  0.00  0.00    -0.006 A 
ATOM     30  C   UNL     1      -2.386  -0.869  24.805  0.00  0.00    -0.003 A 
ATOM     31  C   UNL     1      -2.865  -1.527  24.666  0.00  0.00    +0.006 A 
BRANCH   4   2
ATOM      1  O   UNL     1      -3.492  -3.244  25.151  0.00  0.00    -0.241 OA
ATOM      2  C   UNL     1      -3.020  -2.941  24.544  0.00  0.00    +0.388 C 
ATOM      3  O   UNL     1      -3.029  -3.296  23.800  0.00  0.00    -0.241 OA
ENDBRANCH   4   2
ENDBRANCH   8   7
ENDBRANCH   9   8
ENDBRANCH  14  13
TORSDOF 6
ENDMDL
