MODEL 1
REMARK VINA RESULT:     -11.0      0.000      0.000
REMARK  Name = 
REMARK  6 active torsions:
REMARK  status: ('A' for Active; 'I' for Inactive)
REMARK    1  A    between atoms: C_2  and  C_3
REMARK    2  A    between atoms: C_2  and  C_16
REMARK    3  A    between atoms: N_9  and  C_10
REMARK    4  A    between atoms: C_10  and  C_11
REMARK    5  A    between atoms: C_19  and  N_20
REMARK    6  A    between atoms: C_21  and  C_23
REMARK                            x       y       z     vdW  Elec       q    Type
REMARK                         _______ _______ _______ _____ _____    ______ ____
ROOT
ATOM      1  O   UNL     1      -3.848   2.892  23.433  0.00  0.00    -0.216 OA
ATOM      2  C   UNL     1      -3.954   2.484  24.143  0.00  0.00    +0.195 C 
ENDROOT
BRANCH   2   3
ATOM      3  C   UNL     1      -4.047   2.902  24.848  0.00  0.00    +0.140 C 
ATOM      4  C   UNL     1      -4.709   2.768  25.321  0.00  0.00    +0.165 C 
ATOM      5  O   UNL     1      -4.803   3.186  26.027  0.00  0.00    -0.343 OA
ATOM      6  C   UNL     1      -4.235   3.737  26.258  0.00  0.00    +0.227 C 
ATOM      7  C   UNL     1      -3.573   3.871  25.784  0.00  0.00    +0.256 C 
ATOM      8  O   UNL     1      -3.005   4.422  26.016  0.00  0.00    -0.272 OA
ATOM      9  N   UNL     1      -3.479   3.454  25.079  0.00  0.00    -0.267 N 
BRANCH   9  10
ATOM     10  C   UNL     1      -2.818   3.587  24.606  0.00  0.00    +0.160 C 
BRANCH  10  11
ATOM     11  C   UNL     1      -2.065   3.607  24.944  0.00  0.00    +0.159 A 
ATOM     12  N   UNL     1      -1.535   4.237  24.910  0.00  0.00    -0.226 NA
ATOM     13  C   UNL     1      -0.853   4.019  25.321  0.00  0.00    +0.121 A 
ATOM     14  C   UNL     1      -0.963   3.254  25.610  0.00  0.00    +0.121 A 
ATOM     15  N   UNL     1      -1.712   2.999  25.377  0.00  0.00    -0.226 NA
ENDBRANCH  10  11
ENDBRANCH   9  10
ENDBRANCH   2   3
BRANCH   2  16
ATOM     16  C   UNL     1      -3.966   1.659  24.146  0.00  0.00    +0.010 A 
ATOM     17  C   UNL     1      -3.384   1.237  23.742  0.00  0.00    -0.000 A 
ATOM     18  C   UNL     1      -3.396   0.412  23.746  0.00  0.00    +0.016 A 
ATOM     19  C   UNL     1      -3.990   0.010  24.154  0.00  0.00    +0.073 A 
ATOM     26  C   UNL     1      -4.572   0.433  24.558  0.00  0.00    +0.016 A 
ATOM     27  C   UNL     1      -4.559   1.258  24.554  0.00  0.00    -0.000 A 
BRANCH  19  20
ATOM     20  N   UNL     1      -4.003  -0.815  24.158  0.00  0.00    -0.179 NA
ATOM     21  C   UNL     1      -3.555  -1.231  24.713  0.00  0.00    +0.245 C 
ATOM     22  O   UNL     1      -3.096  -0.823  25.264  0.00  0.00    -0.273 OA
BRANCH  21  23
ATOM     23  C   UNL     1      -3.568  -2.056  24.717  0.00  0.00    +0.079 C 
ATOM     24  C   UNL     1      -3.396  -2.772  25.090  0.00  0.00    +0.010 C 
ATOM     25  C   UNL     1      -3.760  -2.770  24.351  0.00  0.00    +0.010 C 
ENDBRANCH  21  23
ENDBRANCH  19  20
ENDBRANCH   2  16
TORSDOF 6
ENDMDL
MODEL 2
REMARK VINA RESULT:     -10.2      1.868      5.554
REMARK  Name = 
REMARK  6 active torsions:
REMARK  status: ('A' for Active; 'I' for Inactive)
REMARK    1  A    between atoms: C_2  and  C_3
REMARK    2  A    between atoms: C_2  and  C_16
REMARK    3  A    between atoms: N_9  and  C_10
REMARK    4  A    between atoms: C_10  and  C_11
REMARK    5  A    between atoms: C_19  and  N_20
REMARK    6  A    between atoms: C_21  and  C_23
REMARK                            x       y       z     vdW  Elec       q    Type
REMARK                         _______ _______ _______ _____ _____    ______ ____
ROOT
ATOM      1  O   UNL     1      -2.178  -0.287  26.135  0.00  0.00    -0.216 OA
ATOM      2  C   UNL     1      -1.717  -0.072  25.485  0.00  0.00    +0.195 C 
ENDROOT
BRANCH   2   3
ATOM      3  C   UNL     1      -1.385  -0.656  25.005  0.00  0.00    +0.140 C 
ATOM      4  C   UNL     1      -0.644  -0.535  24.664  0.00  0.00    +0.165 C 
ATOM      5  O   UNL     1      -0.312  -1.119  24.184  0.00  0.00    -0.343 OA
ATOM      6  C   UNL     1      -0.721  -1.822  24.046  0.00  0.00    +0.227 C 
ATOM      7  C   UNL     1      -1.462  -1.941  24.388  0.00  0.00    +0.256 C 
ATOM      8  O   UNL     1      -1.871  -2.645  24.250  0.00  0.00    -0.272 OA
ATOM      9  N   UNL     1      -1.794  -1.359  24.867  0.00  0.00    -0.267 N 
BRANCH   9  10
ATOM     10  C   UNL     1      -2.535  -1.478  25.209  0.00  0.00    +0.160 C 
BRANCH  10  11
ATOM     11  C   UNL     1      -3.169  -1.728  24.743  0.00  0.00    +0.159 A 
ATOM     12  N   UNL     1      -3.514  -2.477  24.754  0.00  0.00    -0.226 NA
ATOM     13  C   UNL     1      -4.127  -2.484  24.202  0.00  0.00    +0.121 A 
ATOM     14  C   UNL     1      -4.161  -1.739  23.849  0.00  0.00    +0.121 A 
ATOM     15  N   UNL     1      -3.569  -1.271  24.184  0.00  0.00    -0.226 NA
ENDBRANCH  10  11
ENDBRANCH   9  10
ENDBRANCH   2   3
BRANCH   2  16
ATOM     16  C   UNL     1      -1.588   0.725  25.315  0.00  0.00    +0.010 A 
ATOM     17  C   UNL     1      -2.124   1.137  24.842  0.00  0.00    -0.000 A 
ATOM     18  C   UNL     1      -1.995   1.934  24.672  0.00  0.00    +0.016 A 
ATOM     19  C   UNL     1      -1.330   2.319  24.975  0.00  0.00    +0.073 A 
ATOM     26  C   UNL     1      -0.795   1.905  25.448  0.00  0.00    +0.016 A 
ATOM     27  C   UNL     1      -0.924   1.108  25.618  0.00  0.00    -0.000 A 
BRANCH  19  20
ATOM     20  N   UNL     1      -1.201   3.115  24.805  0.00  0.00    -0.179 NA
ATOM     21  C   UNL     1      -1.458   3.696  25.332  0.00  0.00    +0.245 C 
ATOM     22  O   UNL     1      -1.844   3.480  26.029  0.00  0.00    -0.273 OA
BRANCH  21  23
ATOM     23  C   UNL     1      -1.329   4.493  25.162  0.00  0.00    +0.079 C 
ATOM     24  C   UNL     1      -0.831   5.097  24.902  0.00  0.00    +0.010 C 
ATOM     25  C   UNL     1      -1.604   5.270  25.128  0.00  0.00    +0.010 C 
ENDBRANCH  21  23
ENDBRANCH  19  20
ENDBRANCH   2  16
TORSDOF 6
ENDMDL
MODEL 3
REMARK VINA RESULT:      -9.9      0.998      2.066
REMARK  Name = 
REMARK  6 active torsions:
REMARK  status: ('A' for Active; 'I' for Inactive)
REMARK    1  A    between atoms: C_2  and  C_3
REMARK    2  A    between atoms: C_2  and  C_16
REMARK    3  A    between atoms: N_9  and  C_10
REMARK    4  A    between atoms: C_10  and  C_11
REMARK    5  A    between atoms: C_19  and  N_20
REMARK    6  A    between atoms: C_21  and  C_23
REMARK                            x       y       z     vdW  Elec       q    Type
REMARK                         _______ _______ _______ _____ _____    ______ ____
ROOT
ATOM      1  O   UNL     1      -2.978   2.611  23.337  0.00  0.00    -0.216 OA
ATOM      2  C   UNL     1      -2.780   2.216  24.035  0.00  0.00    +0.195 C 
ENDROOT
BRANCH   2   3
ATOM      3  C   UNL     1      -2.532   2.645  24.694  0.00  0.00    +0.140 C 
ATOM      4  C   UNL     1      -1.810   2.469  25.052  0.00  0.00    +0.165 C 
ATOM      5  O   UNL     1      -1.561   2.898  25.712  0.00  0.00    -0.343 OA
ATOM      6  C   UNL     1      -2.035   3.502  26.013  0.00  0.00    +0.227 C 
ATOM      7  C   UNL     1      -2.757   3.678  25.655  0.00  0.00    +0.256 C 
ATOM      8  O   UNL     1      -3.231   4.282  25.956  0.00  0.00    -0.272 OA
ATOM      9  N   UNL     1      -3.005   3.249  24.996  0.00  0.00    -0.267 N 
BRANCH   9  10
ATOM     10  C   UNL     1      -3.727   3.425  24.638  0.00  0.00    +0.160 C 
BRANCH  10  11
ATOM     11  C   UNL     1      -4.417   3.449  25.090  0.00  0.00    +0.159 A 
ATOM     12  N   UNL     1      -4.689   2.853  25.591  0.00  0.00    -0.226 NA
ATOM     13  C   UNL     1      -5.396   3.109  25.931  0.00  0.00    +0.121 A 
ATOM     14  C   UNL     1      -5.561   3.863  25.640  0.00  0.00    +0.121 A 
ATOM     15  N   UNL     1      -4.956   4.073  25.120  0.00  0.00    -0.226 NA
ENDBRANCH  10  11
ENDBRANCH   9  10
ENDBRANCH   2   3
BRANCH   2  16
ATOM     16  C   UNL     1      -2.830   1.393  24.072  0.00  0.00    +0.010 A 
ATOM     17  C   UNL     1      -2.197   0.955  24.371  0.00  0.00    -0.000 A 
ATOM     18  C   UNL     1      -2.247   0.133  24.408  0.00  0.00    +0.016 A 
ATOM     19  C   UNL     1      -2.929  -0.252  24.146  0.00  0.00    +0.073 A 
ATOM     26  C   UNL     1      -3.560   0.187  23.847  0.00  0.00    +0.016 A 
ATOM     27  C   UNL     1      -3.511   1.009  23.810  0.00  0.00    -0.000 A 
BRANCH  19  20
ATOM     20  N   UNL     1      -2.978  -1.075  24.183  0.00  0.00    -0.179 NA
ATOM     21  C   UNL     1      -3.385  -1.435  24.804  0.00  0.00    +0.245 C 
ATOM     22  O   UNL     1      -3.742  -0.974  25.387  0.00  0.00    -0.273 OA
BRANCH  21  23
ATOM     23  C   UNL     1      -3.435  -2.258  24.841  0.00  0.00    +0.079 C 
ATOM     24  C   UNL     1      -3.313  -2.964  25.250  0.00  0.00    +0.010 C 
ATOM     25  C   UNL     1      -3.643  -2.978  24.495  0.00  0.00    +0.010 C 
ENDBRANCH  21  23
ENDBRANCH  19  20
ENDBRANCH   2  16
TORSDOF 6
ENDMDL
MODEL 4
REMARK VINA RESULT:      -9.3      1.438      4.718
REMARK  Name = 
REMARK  6 active torsions:
REMARK  status: ('A' for Active; 'I' for Inactive)
REMARK    1  A    between atoms: C_2  and  C_3
REMARK    2  A    between atoms: C_2  and  C_16
REMARK    3  A    between atoms: N_9  and  C_10
REMARK    4  A    between atoms: C_10  and  C_11
REMARK    5  A    between atoms: C_19  and  N_20
REMARK    6  A    between atoms: C_21  and  C_23
REMARK                            x       y       z     vdW  Elec       q    Type
REMARK                         _______ _______ _______ _____ _____    ______ ____
ROOT
ATOM      1  O   UNL     1      -3.339   0.115  23.128  0.00  0.00    -0.216 OA
ATOM      2  C   UNL     1      -3.318   0.467  23.874  0.00  0.00    +0.195 C 
ENDROOT
BRANCH   2   3
ATOM      3  C   UNL     1      -3.597   0.055  24.532  0.00  0.00    +0.140 C 
ATOM      4  C   UNL     1      -4.106   0.426  25.065  0.00  0.00    +0.165 C 
ATOM      5  O   UNL     1      -4.386   0.014  25.723  0.00  0.00    -0.343 OA
ATOM      6  C   UNL     1      -4.157  -0.769  25.848  0.00  0.00    +0.227 C 
ATOM      7  C   UNL     1      -3.648  -1.139  25.314  0.00  0.00    +0.256 C 
ATOM      8  O   UNL     1      -3.420  -1.922  25.438  0.00  0.00    -0.272 OA
ATOM      9  N   UNL     1      -3.369  -0.728  24.656  0.00  0.00    -0.267 N 
BRANCH   9  10
ATOM     10  C   UNL     1      -2.861  -1.099  24.123  0.00  0.00    +0.160 C 
BRANCH  10  11
ATOM     11  C   UNL     1      -2.213  -1.528  24.401  0.00  0.00    +0.159 A 
ATOM     12  N   UNL     1      -1.564  -1.219  24.806  0.00  0.00    -0.226 NA
ATOM     13  C   UNL     1      -1.051  -1.842  24.978  0.00  0.00    +0.121 A 
ATOM     14  C   UNL     1      -1.382  -2.535  24.679  0.00  0.00    +0.121 A 
ATOM     15  N   UNL     1      -2.101  -2.342  24.322  0.00  0.00    -0.226 NA
ENDBRANCH  10  11
ENDBRANCH   9  10
ENDBRANCH   2   3
BRANCH   2  16
ATOM     16  C   UNL     1      -3.019   1.231  23.962  0.00  0.00    +0.010 A 
ATOM     17  C   UNL     1      -2.203   1.351  24.001  0.00  0.00    -0.000 A 
ATOM     18  C   UNL     1      -1.904   2.115  24.089  0.00  0.00    +0.016 A 
ATOM     19  C   UNL     1      -2.419   2.758  24.137  0.00  0.00    +0.073 A 
ATOM     26  C   UNL     1      -3.234   2.636  24.098  0.00  0.00    +0.016 A 
ATOM     27  C   UNL     1      -3.534   1.872  24.010  0.00  0.00    -0.000 A 
BRANCH  19  20
ATOM     20  N   UNL     1      -2.120   3.522  24.225  0.00  0.00    -0.179 NA
ATOM     21  C   UNL     1      -1.916   3.800  24.975  0.00  0.00    +0.245 C 
ATOM     22  O   UNL     1      -2.011   3.317  25.636  0.00  0.00    -0.273 OA
BRANCH  21  23
ATOM     23  C   UNL     1      -1.616   4.564  25.062  0.00  0.00    +0.079 C 
ATOM     24  C   UNL     1      -1.003   5.107  24.964  0.00  0.00    +0.010 C 
ATOM     25  C   UNL     1      -1.711   5.345  25.313  0.00  0.00    +0.010 C 
ENDBRANCH  21  23
ENDBRANCH  19  20
ENDBRANCH   2  16
TORSDOF 6
ENDMDL
