MODEL 1
REMARK VINA RESULT:     -11.6      0.000      0.000
REMARK  Name = 
REMARK  9 active torsions:
REMARK  status: ('A' for Active; 'I' for Inactive)
REMARK    1  A    between atoms: O_2  and  C_3
REMARK    2  A    between atoms: C_6  and  O_7
REMARK    3  A    between atoms: C_9  and  S_11
REMARK    4  A    between atoms: S_11  and  N_14
REMARK    5  A    between atoms: N_14  and  C_15
REMARK    6  A    between atoms: C_19  and  O_23
REMARK    7  A    between atoms: O_23  and  C_24
REMARK    8  A    between atoms: N_26  and  C_27
REMARK    9  A    between atoms: C_29  and  C_33
REMARK                            x       y       z     vdW  Elec       q    Type
REMARK                         _______ _______ _______ _____ _____    ______ ____
ROOT
ATOM     15  C   UNL     1      -0.403   1.864  25.097  0.00  0.00    +0.157 C 
ATOM     16  C   UNL     1      -0.583   1.592  25.854  0.00  0.00    +0.164 C 
ATOM     17  O   UNL     1      -0.603   0.768  25.830  0.00  0.00    -0.348 OA
ATOM     18  C   UNL     1      -0.437   0.530  25.059  0.00  0.00    +0.186 C 
ATOM     19  C   UNL     1      -0.346  -0.125  24.566  0.00  0.00    +0.229 C 
ATOM     20  C   UNL     1      -0.167   0.147  23.808  0.00  0.00    +0.188 C 
ATOM     21  O   UNL     1      -0.146   0.971  23.833  0.00  0.00    -0.348 OA
ATOM     22  C   UNL     1      -0.313   1.208  24.605  0.00  0.00    +0.166 C 
ENDROOT
BRANCH  15  14
ATOM     14  N   UNL     1      -0.327   2.654  24.871  0.00  0.00    -0.074 NA
BRANCH  14  11
ATOM     11  S   UNL     1      -0.915   3.198  25.066  0.00  0.00    +0.080 S 
ATOM     12  O   UNL     1      -1.235   3.126  24.309  0.00  0.00    -0.151 OA
ATOM     13  O   UNL     1      -0.597   3.271  25.824  0.00  0.00    -0.151 OA
BRANCH  11   9
ATOM      3  C   UNL     1      -2.809   4.023  25.771  0.00  0.00    +0.140 A 
ATOM      4  C   UNL     1      -2.681   4.829  25.655  0.00  0.00    +0.040 A 
ATOM      5  C   UNL     1      -1.965   5.092  25.343  0.00  0.00    +0.041 A 
ATOM      6  C   UNL     1      -1.376   4.548  25.146  0.00  0.00    +0.157 A 
ATOM      9  C   UNL     1      -1.504   3.742  25.262  0.00  0.00    +0.160 A 
ATOM     10  C   UNL     1      -2.221   3.479  25.575  0.00  0.00    +0.060 A 
BRANCH   3   2
ATOM      1  C   UNL     1      -4.219   3.831  25.642  0.00  0.00    +0.252 C 
ATOM      2  O   UNL     1      -3.526   3.759  26.084  0.00  0.00    -0.471 OA
ENDBRANCH   3   2
BRANCH   6   7
ATOM      7  O   UNL     1      -0.659   4.812  24.834  0.00  0.00    -0.470 OA
ATOM      8  C   UNL     1      -0.561   5.608  24.641  0.00  0.00    +0.253 C 
ENDBRANCH   6   7
ENDBRANCH  11   9
ENDBRANCH  14  11
ENDBRANCH  15  14
BRANCH  19  23
ATOM     23  O   UNL     1      -0.423  -0.915  24.792  0.00  0.00    -0.432 OA
BRANCH  23  24
ATOM     24  C   UNL     1      -1.070  -1.358  24.535  0.00  0.00    +0.425 C 
ATOM     25  O   UNL     1      -1.094  -1.642  23.761  0.00  0.00    -0.224 OA
ATOM     26  N   UNL     1      -1.693  -1.516  25.052  0.00  0.00    -0.142 NA
BRANCH  26  27
ATOM     27  C   UNL     1      -2.341  -1.958  24.795  0.00  0.00    +0.077 A 
ATOM     28  C   UNL     1      -3.037  -1.578  24.570  0.00  0.00    +0.021 A 
ATOM     29  C   UNL     1      -3.684  -2.019  24.313  0.00  0.00    +0.073 A 
ATOM     30  C   UNL     1      -3.635  -2.843  24.282  0.00  0.00    +0.004 A 
ATOM     31  C   UNL     1      -2.939  -3.224  24.508  0.00  0.00    +0.001 A 
ATOM     32  C   UNL     1      -2.292  -2.781  24.764  0.00  0.00    +0.017 A 
BRANCH  29  33
ATOM     33  C   UNL     1      -4.380  -1.639  24.087  0.00  0.00    +0.419 C 
ATOM     34  F   UNL     1      -5.076  -1.259  23.862  0.00  0.00    -0.166 F 
ATOM     35  F   UNL     1      -4.424  -1.279  24.829  0.00  0.00    -0.166 F 
ATOM     36  F   UNL     1      -4.337  -1.998  23.347  0.00  0.00    -0.166 F 
ENDBRANCH  29  33
ENDBRANCH  26  27
ENDBRANCH  23  24
ENDBRANCH  19  23
TORSDOF 9
ENDMDL
MODEL 2
REMARK VINA RESULT:     -10.3      1.998      2.998
REMARK  Name = 
REMARK  9 active torsions:
REMARK  status: ('A' for Active; 'I' for Inactive)
REMARK    1  A    between atoms: O_2  and  C_3
REMARK    2  A    between atoms: C_6  and  O_7
REMARK    3  A    between atoms: C_9  and  S_11
REMARK    4  A    between atoms: S_11  and  N_14
REMARK    5  A    between atoms: N_14  and  C_15
REMARK    6  A    between atoms: C_19  and  O_23
REMARK    7  A    between atoms: O_23  and  C_24
REMARK    8  A    between atoms: N_26  and  C_27
REMARK    9  A    between atoms: C_29  and  C_33
REMARK                            x       y       z     vdW  Elec       q    Type
REMARK                         _______ _______ _______ _____ _____    ______ ____
ROOT
ATOM     15  C   UNL     1      -3.646   2.763  24.451  0.00  0.00    +0.157 C 
ATOM     16  C   UNL     1      -3.467   2.523  23.683  0.00  0.00    +0.164 C 
ATOM     17  O   UNL     1      -3.804   1.780  23.563  0.00  0.00    -0.348 OA
ATOM     18  C   UNL     1      -4.191   1.561  24.256  0.00  0.00    +0.186 C 
ATOM     19  C   UNL     1      -4.640   0.966  24.612  0.00  0.00    +0.229 C 
ATOM     20  C   UNL     1      -4.819   1.206  25.380  0.00  0.00    +0.188 C 
ATOM     21  O   UNL     1      -4.482   1.949  25.500  0.00  0.00    -0.348 OA
ATOM     22  C   UNL     1      -4.094   2.168  24.805  0.00  0.00    +0.166 C 
ENDROOT
BRANCH  15  14
ATOM     14  N   UNL     1      -3.417   3.474  24.803  0.00  0.00    -0.074 NA
BRANCH  14  11
ATOM     11  S   UNL     1      -2.618   3.628  24.940  0.00  0.00    +0.080 S 
ATOM     12  O   UNL     1      -2.478   3.629  24.127  0.00  0.00    -0.151 OA
ATOM     13  O   UNL     1      -2.758   3.627  25.753  0.00  0.00    -0.151 OA
BRANCH  11   9
ATOM      3  C   UNL     1      -0.496   3.313  25.338  0.00  0.00    +0.140 A 
ATOM      4  C   UNL     1      -0.223   4.091  25.354  0.00  0.00    +0.040 A 
ATOM      5  C   UNL     1      -0.748   4.714  25.232  0.00  0.00    +0.041 A 
ATOM      6  C   UNL     1      -1.547   4.561  25.094  0.00  0.00    +0.157 A 
ATOM      9  C   UNL     1      -1.820   3.783  25.078  0.00  0.00    +0.160 A 
ATOM     10  C   UNL     1      -1.294   3.158  25.200  0.00  0.00    +0.060 A 
BRANCH   3   2
ATOM      1  C   UNL     1       0.189   2.428  26.227  0.00  0.00    +0.252 C 
ATOM      2  O   UNL     1       0.030   2.688  25.461  0.00  0.00    -0.471 OA
ENDBRANCH   3   2
BRANCH   6   7
ATOM      7  O   UNL     1      -2.072   5.185  24.971  0.00  0.00    -0.470 OA
ATOM      8  C   UNL     1      -1.798   5.963  24.984  0.00  0.00    +0.253 C 
ENDBRANCH   6   7
ENDBRANCH  11   9
ENDBRANCH  14  11
ENDBRANCH  15  14
BRANCH  19  23
ATOM     23  O   UNL     1      -4.868   0.256  24.260  0.00  0.00    -0.432 OA
BRANCH  23  24
ATOM     24  C   UNL     1      -4.499  -0.450  24.475  0.00  0.00    +0.425 C 
ATOM     25  O   UNL     1      -4.486  -0.683  25.267  0.00  0.00    -0.224 OA
ATOM     26  N   UNL     1      -4.143  -0.922  23.901  0.00  0.00    -0.142 NA
BRANCH  26  27
ATOM     27  C   UNL     1      -3.773  -1.627  24.116  0.00  0.00    +0.077 A 
ATOM     28  C   UNL     1      -2.961  -1.641  24.257  0.00  0.00    +0.021 A 
ATOM     29  C   UNL     1      -2.591  -2.346  24.473  0.00  0.00    +0.073 A 
ATOM     30  C   UNL     1      -3.035  -3.038  24.548  0.00  0.00    +0.004 A 
ATOM     31  C   UNL     1      -3.848  -3.024  24.407  0.00  0.00    +0.001 A 
ATOM     32  C   UNL     1      -4.217  -2.319  24.191  0.00  0.00    +0.017 A 
BRANCH  29  33
ATOM     33  C   UNL     1      -1.778  -2.360  24.613  0.00  0.00    +0.419 C 
ATOM     34  F   UNL     1      -0.966  -2.374  24.754  0.00  0.00    -0.166 F 
ATOM     35  F   UNL     1      -1.906  -2.075  25.378  0.00  0.00    -0.166 F 
ATOM     36  F   UNL     1      -1.651  -2.644  23.850  0.00  0.00    -0.166 F 
ENDBRANCH  29  33
ENDBRANCH  26  27
ENDBRANCH  23  24
ENDBRANCH  19  23
TORSDOF 9
ENDMDL
MODEL 3
REMARK VINA RESULT:     -10.2      2.700      6.254
REMARK  Name = 
REMARK  9 active torsions:
REMARK  status: ('A' for Active; 'I' for Inactive)
REMARK    1  A    between atoms: O_2  and  C_3
REMARK    2  A    between atoms: C_6  and  O_7
REMARK    3  A    between atoms: C_9  and  S_11
REMARK    4  A    between atoms: S_11  and  N_14
REMARK    5  A    between atoms: N_14  and  C_15
REMARK    6  A    between atoms: C_19  and  O_23
REMARK    7  A    between atoms: O_23  and  C_24
REMARK    8  A    between atoms: N_26  and  C_27
REMARK    9  A    between atoms: C_29  and  C_33
REMARK                            x       y       z     vdW  Elec       q    Type
REMARK                         _______ _______ _______ _____ _____    ______ ____
ROOT
ATOM     15  C   UNL     1      -4.317   0.400  24.473  0.00  0.00    +0.157 C 
ATOM     16  C   UNL     1      -3.892   0.669  23.819  0.00  0.00    +0.164 C 
ATOM     17  O   UNL     1      -3.912   1.493  23.824  0.00  0.00    -0.348 OA
ATOM     18  C   UNL     1      -4.349   1.734  24.481  0.00  0.00    +0.186 C 
ATOM     19  C   UNL     1      -4.632   2.392  24.891  0.00  0.00    +0.229 C 
ATOM     20  C   UNL     1      -5.057   2.122  25.544  0.00  0.00    +0.188 C 
ATOM     21  O   UNL     1      -5.037   1.298  25.539  0.00  0.00    -0.348 OA
ATOM     22  C   UNL     1      -4.599   1.058  24.881  0.00  0.00    +0.166 C 
ENDROOT
BRANCH  15  14
ATOM     14  N   UNL     1      -4.438  -0.390  24.681  0.00  0.00    -0.074 NA
BRANCH  14  11
ATOM     11  S   UNL     1      -3.801  -0.914  24.700  0.00  0.00    +0.080 S 
ATOM     12  O   UNL     1      -3.749  -0.882  23.877  0.00  0.00    -0.151 OA
ATOM     13  O   UNL     1      -3.853  -0.947  25.523  0.00  0.00    -0.151 OA
BRANCH  11   9
ATOM      3  C   UNL     1      -1.790  -1.704  25.003  0.00  0.00    +0.140 A 
ATOM      4  C   UNL     1      -1.891  -2.486  24.760  0.00  0.00    +0.040 A 
ATOM      5  C   UNL     1      -2.628  -2.744  24.497  0.00  0.00    +0.041 A 
ATOM      6  C   UNL     1      -3.266  -2.220  24.477  0.00  0.00    +0.157 A 
ATOM      9  C   UNL     1      -3.165  -1.438  24.720  0.00  0.00    +0.160 A 
ATOM     10  C   UNL     1      -2.426  -1.180  24.983  0.00  0.00    +0.060 A 
BRANCH   3   2
ATOM      1  C   UNL     1      -0.442  -1.320  24.726  0.00  0.00    +0.252 C 
ATOM      2  O   UNL     1      -1.051  -1.446  25.267  0.00  0.00    -0.471 OA
ENDBRANCH   3   2
BRANCH   6   7
ATOM      7  O   UNL     1      -4.004  -2.478  24.213  0.00  0.00    -0.470 OA
ATOM      8  C   UNL     1      -4.099  -3.253  23.947  0.00  0.00    +0.253 C 
ENDBRANCH   6   7
ENDBRANCH  11   9
ENDBRANCH  14  11
ENDBRANCH  15  14
BRANCH  19  23
ATOM     23  O   UNL     1      -4.511   3.181  24.683  0.00  0.00    -0.432 OA
BRANCH  23  24
ATOM     24  C   UNL     1      -3.856   3.589  24.975  0.00  0.00    +0.425 C 
ATOM     25  O   UNL     1      -3.806   3.766  25.779  0.00  0.00    -0.224 OA
ATOM     26  N   UNL     1      -3.252   3.821  24.464  0.00  0.00    -0.142 NA
BRANCH  26  27
ATOM     27  C   UNL     1      -2.598   4.229  24.756  0.00  0.00    +0.077 A 
ATOM     28  C   UNL     1      -1.878   3.840  24.852  0.00  0.00    +0.021 A 
ATOM     29  C   UNL     1      -1.223   4.247  25.144  0.00  0.00    +0.073 A 
ATOM     30  C   UNL     1      -1.289   5.046  25.340  0.00  0.00    +0.004 A 
ATOM     31  C   UNL     1      -2.009   5.437  25.244  0.00  0.00    +0.001 A 
ATOM     32  C   UNL     1      -2.664   5.028  24.951  0.00  0.00    +0.017 A 
BRANCH  29  33
ATOM     33  C   UNL     1      -0.503   3.857  25.241  0.00  0.00    +0.419 C 
ATOM     34  F   UNL     1       0.217   3.467  25.338  0.00  0.00    -0.166 F 
ATOM     35  F   UNL     1      -0.749   3.585  25.980  0.00  0.00    -0.166 F 
ATOM     36  F   UNL     1      -0.256   4.128  24.503  0.00  0.00    -0.166 F 
ENDBRANCH  29  33
ENDBRANCH  26  27
ENDBRANCH  23  24
ENDBRANCH  19  23
TORSDOF 9
ENDMDL
MODEL 4
REMARK VINA RESULT:     -10.1      3.959      5.896
REMARK  Name = 
REMARK  9 active torsions:
REMARK  status: ('A' for Active; 'I' for Inactive)
REMARK    1  A    between atoms: O_2  and  C_3
REMARK    2  A    between atoms: C_6  and  O_7
REMARK    3  A    between atoms: C_9  and  S_11
REMARK    4  A    between atoms: S_11  and  N_14
REMARK    5  A    between atoms: N_14  and  C_15
REMARK    6  A    between atoms: C_19  and  O_23
REMARK    7  A    between atoms: O_23  and  C_24
REMARK    8  A    between atoms: N_26  and  C_27
REMARK    9  A    between atoms: C_29  and  C_33
REMARK                            x       y       z     vdW  Elec       q    Type
REMARK                         _______ _______ _______ _____ _____    ______ ____
ROOT
ATOM     15  C   UNL     1      -0.841   0.040  24.428  0.00  0.00    +0.157 C 
ATOM     16  C   UNL     1      -0.718  -0.756  24.250  0.00  0.00    +0.164 C 
ATOM     17  O   UNL     1      -0.040  -0.810  23.784  0.00  0.00    -0.348 OA
ATOM     18  C   UNL     1       0.256  -0.049  23.674  0.00  0.00    +0.186 C 
ATOM     19  C   UNL     1       0.859   0.389  23.319  0.00  0.00    +0.229 C 
ATOM     20  C   UNL     1       0.736   1.185  23.498  0.00  0.00    +0.188 C 
ATOM     21  O   UNL     1       0.058   1.239  23.964  0.00  0.00    -0.348 OA
ATOM     22  C   UNL     1      -0.239   0.476  24.073  0.00  0.00    +0.166 C 
ENDROOT
BRANCH  15  14
ATOM     14  N   UNL     1      -1.459   0.345  24.883  0.00  0.00    -0.074 NA
BRANCH  14  11
ATOM     11  S   UNL     1      -2.218   0.031  24.811  0.00  0.00    +0.080 S 
ATOM     12  O   UNL     1      -2.297   0.388  24.072  0.00  0.00    -0.151 OA
ATOM     13  O   UNL     1      -2.141  -0.326  25.551  0.00  0.00    -0.151 OA
BRANCH  11   9
ATOM      3  C   UNL     1      -3.838  -1.402  24.523  0.00  0.00    +0.140 A 
ATOM      4  C   UNL     1      -4.497  -0.911  24.598  0.00  0.00    +0.040 A 
ATOM      5  C   UNL     1      -4.396  -0.106  24.745  0.00  0.00    +0.041 A 
ATOM      6  C   UNL     1      -3.637   0.208  24.816  0.00  0.00    +0.157 A 
ATOM      9  C   UNL     1      -2.978  -0.283  24.740  0.00  0.00    +0.160 A 
ATOM     10  C   UNL     1      -3.079  -1.089  24.593  0.00  0.00    +0.060 A 
BRANCH   3   2
ATOM      1  C   UNL     1      -4.406  -2.456  23.742  0.00  0.00    +0.252 C 
ATOM      2  O   UNL     1      -3.939  -2.208  24.376  0.00  0.00    -0.471 OA
ENDBRANCH   3   2
BRANCH   6   7
ATOM      7  O   UNL     1      -3.536   1.014  24.963  0.00  0.00    -0.470 OA
ATOM      8  C   UNL     1      -4.193   1.510  25.007  0.00  0.00    +0.253 C 
ENDBRANCH   6   7
ENDBRANCH  11   9
ENDBRANCH  14  11
ENDBRANCH  15  14
BRANCH  19  23
ATOM     23  O   UNL     1       1.476   0.084  22.864  0.00  0.00    -0.432 OA
BRANCH  23  24
ATOM     24  C   UNL     1       2.253   0.318  23.013  0.00  0.00    +0.425 C 
ATOM     25  O   UNL     1       2.404   1.058  23.345  0.00  0.00    -0.224 OA
ATOM     26  N   UNL     1       2.879  -0.186  22.829  0.00  0.00    -0.142 NA
BRANCH  26  27
ATOM     27  C   UNL     1       3.656   0.048  22.977  0.00  0.00    +0.077 A 
ATOM     28  C   UNL     1       4.103  -0.343  23.549  0.00  0.00    +0.021 A 
ATOM     29  C   UNL     1       4.880  -0.108  23.697  0.00  0.00    +0.073 A 
ATOM     30  C   UNL     1       5.210   0.518  23.273  0.00  0.00    +0.004 A 
ATOM     31  C   UNL     1       4.762   0.910  22.701  0.00  0.00    +0.001 A 
ATOM     32  C   UNL     1       3.985   0.675  22.553  0.00  0.00    +0.017 A 
BRANCH  29  33
ATOM     33  C   UNL     1       5.327  -0.500  24.269  0.00  0.00    +0.419 C 
ATOM     34  F   UNL     1       5.775  -0.891  24.841  0.00  0.00    -0.166 F 
ATOM     35  F   UNL     1       5.391   0.202  24.699  0.00  0.00    -0.166 F 
ATOM     36  F   UNL     1       5.263  -1.201  23.840  0.00  0.00    -0.166 F 
ENDBRANCH  29  33
ENDBRANCH  26  27
ENDBRANCH  23  24
ENDBRANCH  19  23
TORSDOF 9
ENDMDL
MODEL 5
REMARK VINA RESULT:     -10.1      2.162      5.459
REMARK  Name = 
REMARK  9 active torsions:
REMARK  status: ('A' for Active; 'I' for Inactive)
REMARK    1  A    between atoms: O_2  and  C_3
REMARK    2  A    between atoms: C_6  and  O_7
REMARK    3  A    between atoms: C_9  and  S_11
REMARK    4  A    between atoms: S_11  and  N_14
REMARK    5  A    between atoms: N_14  and  C_15
REMARK    6  A    between atoms: C_19  and  O_23
REMARK    7  A    between atoms: O_23  and  C_24
REMARK    8  A    between atoms: N_26  and  C_27
REMARK    9  A    between atoms: C_29  and  C_33
REMARK                            x       y       z     vdW  Elec       q    Type
REMARK                         _______ _______ _______ _____ _____    ______ ____
ROOT
ATOM     15  C   UNL     1      -0.995  -0.484  24.975  0.00  0.00    +0.157 C 
ATOM     16  C   UNL     1      -1.090  -0.202  25.744  0.00  0.00    +0.164 C 
ATOM     17  O   UNL     1      -0.748   0.547  25.784  0.00  0.00    -0.348 OA
ATOM     18  C   UNL     1      -0.443   0.729  25.040  0.00  0.00    +0.186 C 
ATOM     19  C   UNL     1      -0.042   1.303  24.604  0.00  0.00    +0.229 C 
ATOM     20  C   UNL     1       0.052   1.021  23.835  0.00  0.00    +0.188 C 
ATOM     21  O   UNL     1      -0.290   0.272  23.795  0.00  0.00    -0.348 OA
ATOM     22  C   UNL     1      -0.595   0.091  24.540  0.00  0.00    +0.166 C 
ENDROOT
BRANCH  15  14
ATOM     14  N   UNL     1      -1.256  -1.214  24.691  0.00  0.00    -0.074 NA
BRANCH  14  11
ATOM     11  S   UNL     1      -2.061  -1.348  24.571  0.00  0.00    +0.080 S 
ATOM     12  O   UNL     1      -2.175  -1.398  25.386  0.00  0.00    -0.151 OA
ATOM     13  O   UNL     1      -1.948  -1.297  23.755  0.00  0.00    -0.151 OA
BRANCH  11   9
ATOM      3  C   UNL     1      -4.193  -0.976  24.289  0.00  0.00    +0.140 A 
ATOM      4  C   UNL     1      -4.477  -1.746  24.209  0.00  0.00    +0.040 A 
ATOM      5  C   UNL     1      -3.955  -2.383  24.250  0.00  0.00    +0.041 A 
ATOM      6  C   UNL     1      -3.150  -2.251  24.370  0.00  0.00    +0.157 A 
ATOM      9  C   UNL     1      -2.866  -1.481  24.450  0.00  0.00    +0.160 A 
ATOM     10  C   UNL     1      -3.388  -0.842  24.410  0.00  0.00    +0.060 A 
BRANCH   3   2
ATOM      1  C   UNL     1      -4.723   0.227  24.850  0.00  0.00    +0.252 C 
ATOM      2  O   UNL     1      -4.715  -0.337  24.249  0.00  0.00    -0.471 OA
ENDBRANCH   3   2
BRANCH   6   7
ATOM      7  O   UNL     1      -2.628  -2.889  24.411  0.00  0.00    -0.470 OA
ATOM      8  C   UNL     1      -2.906  -3.657  24.293  0.00  0.00    +0.253 C 
ENDBRANCH   6   7
ENDBRANCH  11   9
ENDBRANCH  14  11
ENDBRANCH  15  14
BRANCH  19  23
ATOM     23  O   UNL     1       0.218   2.033  24.888  0.00  0.00    -0.432 OA
BRANCH  23  24
ATOM     24  C   UNL     1      -0.257   2.703  24.802  0.00  0.00    +0.425 C 
ATOM     25  O   UNL     1      -0.493   2.946  24.051  0.00  0.00    -0.224 OA
ATOM     26  N   UNL     1      -0.495   3.128  25.467  0.00  0.00    -0.142 NA
BRANCH  26  27
ATOM     27  C   UNL     1      -0.969   3.798  25.381  0.00  0.00    +0.077 A 
ATOM     28  C   UNL     1      -1.766   3.769  25.591  0.00  0.00    +0.021 A 
ATOM     29  C   UNL     1      -2.240   4.437  25.505  0.00  0.00    +0.073 A 
ATOM     30  C   UNL     1      -1.917   5.137  25.209  0.00  0.00    +0.004 A 
ATOM     31  C   UNL     1      -1.120   5.166  24.999  0.00  0.00    +0.001 A 
ATOM     32  C   UNL     1      -0.646   4.497  25.085  0.00  0.00    +0.017 A 
BRANCH  29  33
ATOM     33  C   UNL     1      -3.038   4.408  25.716  0.00  0.00    +0.419 C 
ATOM     34  F   UNL     1      -3.834   4.379  25.926  0.00  0.00    -0.166 F 
ATOM     35  F   UNL     1      -2.839   4.592  26.496  0.00  0.00    -0.166 F 
ATOM     36  F   UNL     1      -3.237   4.225  24.937  0.00  0.00    -0.166 F 
ENDBRANCH  29  33
ENDBRANCH  26  27
ENDBRANCH  23  24
ENDBRANCH  19  23
TORSDOF 9
ENDMDL
MODEL 6
REMARK VINA RESULT:      -9.7      4.021      5.731
REMARK  Name = 
REMARK  9 active torsions:
REMARK  status: ('A' for Active; 'I' for Inactive)
REMARK    1  A    between atoms: O_2  and  C_3
REMARK    2  A    between atoms: C_6  and  O_7
REMARK    3  A    between atoms: C_9  and  S_11
REMARK    4  A    between atoms: S_11  and  N_14
REMARK    5  A    between atoms: N_14  and  C_15
REMARK    6  A    between atoms: C_19  and  O_23
REMARK    7  A    between atoms: O_23  and  C_24
REMARK    8  A    between atoms: N_26  and  C_27
REMARK    9  A    between atoms: C_29  and  C_33
REMARK                            x       y       z     vdW  Elec       q    Type
REMARK                         _______ _______ _______ _____ _____    ______ ____
ROOT
ATOM     15  C   UNL     1      -0.696   0.257  24.406  0.00  0.00    +0.157 C 
ATOM     16  C   UNL     1      -0.621   1.073  24.500  0.00  0.00    +0.164 C 
ATOM     17  O   UNL     1       0.049   1.316  24.086  0.00  0.00    -0.348 OA
ATOM     18  C   UNL     1       0.389   0.652  23.736  0.00  0.00    +0.186 C 
ATOM     19  C   UNL     1       1.013   0.390  23.263  0.00  0.00    +0.229 C 
ATOM     20  C   UNL     1       0.938  -0.426  23.169  0.00  0.00    +0.188 C 
ATOM     21  O   UNL     1       0.268  -0.669  23.584  0.00  0.00    -0.348 OA
ATOM     22  C   UNL     1      -0.072  -0.003  23.934  0.00  0.00    +0.166 C 
ENDROOT
BRANCH  15  14
ATOM     14  N   UNL     1      -1.290  -0.216  24.728  0.00  0.00    -0.074 NA
BRANCH  14  11
ATOM     11  S   UNL     1      -2.067   0.061  24.758  0.00  0.00    +0.080 S 
ATOM     12  O   UNL     1      -1.912   0.422  25.483  0.00  0.00    -0.151 OA
ATOM     13  O   UNL     1      -2.223  -0.300  24.032  0.00  0.00    -0.151 OA
BRANCH  11   9
ATOM      3  C   UNL     1      -3.812   1.342  24.479  0.00  0.00    +0.140 A 
ATOM      4  C   UNL     1      -4.398   0.890  24.843  0.00  0.00    +0.040 A 
ATOM      5  C   UNL     1      -4.207   0.161  25.178  0.00  0.00    +0.041 A 
ATOM      6  C   UNL     1      -3.430  -0.116  25.150  0.00  0.00    +0.157 A 
ATOM      9  C   UNL     1      -2.844   0.337  24.786  0.00  0.00    +0.160 A 
ATOM     10  C   UNL     1      -3.035   1.066  24.450  0.00  0.00    +0.060 A 
BRANCH   3   2
ATOM      1  C   UNL     1      -4.640   2.506  24.436  0.00  0.00    +0.252 C 
ATOM      2  O   UNL     1      -4.002   2.072  24.143  0.00  0.00    -0.471 OA
ENDBRANCH   3   2
BRANCH   6   7
ATOM      7  O   UNL     1      -3.239  -0.845  25.486  0.00  0.00    -0.470 OA
ATOM      8  C   UNL     1      -3.828  -1.304  25.837  0.00  0.00    +0.253 C 
ENDBRANCH   6   7
ENDBRANCH  11   9
ENDBRANCH  14  11
ENDBRANCH  15  14
BRANCH  19  23
ATOM     23  O   UNL     1       1.607   0.863  22.941  0.00  0.00    -0.432 OA
BRANCH  23  24
ATOM     24  C   UNL     1       2.370   0.562  22.851  0.00  0.00    +0.425 C 
ATOM     25  O   UNL     1       2.489  -0.146  22.445  0.00  0.00    -0.224 OA
ATOM     26  N   UNL     1       3.015   0.969  23.166  0.00  0.00    -0.142 NA
BRANCH  26  27
ATOM     27  C   UNL     1       3.778   0.668  23.075  0.00  0.00    +0.077 A 
ATOM     28  C   UNL     1       4.154   0.301  23.710  0.00  0.00    +0.021 A 
ATOM     29  C   UNL     1       4.917   0.000  23.620  0.00  0.00    +0.073 A 
ATOM     30  C   UNL     1       5.303   0.067  22.893  0.00  0.00    +0.004 A 
ATOM     31  C   UNL     1       4.926   0.435  22.258  0.00  0.00    +0.001 A 
ATOM     32  C   UNL     1       4.164   0.735  22.349  0.00  0.00    +0.017 A 
BRANCH  29  33
ATOM     33  C   UNL     1       5.294  -0.367  24.255  0.00  0.00    +0.419 C 
ATOM     34  F   UNL     1       5.670  -0.735  24.890  0.00  0.00    -0.166 F 
ATOM     35  F   UNL     1       5.049  -1.104  23.974  0.00  0.00    -0.166 F 
ATOM     36  F   UNL     1       5.539   0.368  24.536  0.00  0.00    -0.166 F 
ENDBRANCH  29  33
ENDBRANCH  26  27
ENDBRANCH  23  24
ENDBRANCH  19  23
TORSDOF 9
ENDMDL
MODEL 7
REMARK VINA RESULT:      -9.5      1.810      5.245
REMARK  Name = 
REMARK  9 active torsions:
REMARK  status: ('A' for Active; 'I' for Inactive)
REMARK    1  A    between atoms: O_2  and  C_3
REMARK    2  A    between atoms: C_6  and  O_7
REMARK    3  A    between atoms: C_9  and  S_11
REMARK    4  A    between atoms: S_11  and  N_14
REMARK    5  A    between atoms: N_14  and  C_15
REMARK    6  A    between atoms: C_19  and  O_23
REMARK    7  A    between atoms: O_23  and  C_24
REMARK    8  A    between atoms: N_26  and  C_27
REMARK    9  A    between atoms: C_29  and  C_33
REMARK                            x       y       z     vdW  Elec       q    Type
REMARK                         _______ _______ _______ _____ _____    ______ ____
ROOT
ATOM     15  C   UNL     1      -0.885   0.946  24.620  0.00  0.00    +0.157 C 
ATOM     16  C   UNL     1      -1.235   1.092  23.888  0.00  0.00    +0.164 C 
ATOM     17  O   UNL     1      -1.592   1.835  23.920  0.00  0.00    -0.348 OA
ATOM     18  C   UNL     1      -1.463   2.148  24.671  0.00  0.00    +0.186 C 
ATOM     19  C   UNL     1      -1.603   2.800  25.157  0.00  0.00    +0.229 C 
ATOM     20  C   UNL     1      -1.253   2.654  25.889  0.00  0.00    +0.188 C 
ATOM     21  O   UNL     1      -0.896   1.911  25.857  0.00  0.00    -0.348 OA
ATOM     22  C   UNL     1      -1.026   1.598  25.104  0.00  0.00    +0.166 C 
ENDROOT
BRANCH  15  14
ATOM     14  N   UNL     1      -0.467   0.266  24.831  0.00  0.00    -0.074 NA
BRANCH  14  11
ATOM     11  S   UNL     1      -0.833  -0.472  24.790  0.00  0.00    +0.080 S 
ATOM     12  O   UNL     1      -1.075  -0.397  25.576  0.00  0.00    -0.151 OA
ATOM     13  O   UNL     1      -0.592  -0.549  24.005  0.00  0.00    -0.151 OA
BRANCH  11   9
ATOM      3  C   UNL     1      -2.340  -2.010  24.432  0.00  0.00    +0.140 A 
ATOM      4  C   UNL     1      -1.931  -2.687  24.666  0.00  0.00    +0.040 A 
ATOM      5  C   UNL     1      -1.156  -2.626  24.941  0.00  0.00    +0.041 A 
ATOM      6  C   UNL     1      -0.789  -1.888  24.983  0.00  0.00    +0.157 A 
ATOM      9  C   UNL     1      -1.199  -1.211  24.749  0.00  0.00    +0.160 A 
ATOM     10  C   UNL     1      -1.974  -1.272  24.474  0.00  0.00    +0.060 A 
BRANCH   3   2
ATOM      1  C   UNL     1      -3.618  -2.648  24.465  0.00  0.00    +0.252 C 
ATOM      2  O   UNL     1      -3.115  -2.071  24.157  0.00  0.00    -0.471 OA
ENDBRANCH   3   2
BRANCH   6   7
ATOM      7  O   UNL     1      -0.014  -1.827  25.258  0.00  0.00    -0.470 OA
ATOM      8  C   UNL     1       0.393  -2.503  25.498  0.00  0.00    +0.253 C 
ENDBRANCH   6   7
ENDBRANCH  11   9
ENDBRANCH  14  11
ENDBRANCH  15  14
BRANCH  19  23
ATOM     23  O   UNL     1      -2.021   3.480  24.946  0.00  0.00    -0.432 OA
BRANCH  23  24
ATOM     24  C   UNL     1      -2.786   3.600  25.231  0.00  0.00    +0.425 C 
ATOM     25  O   UNL     1      -2.900   3.869  26.003  0.00  0.00    -0.224 OA
ATOM     26  N   UNL     1      -3.435   3.451  24.746  0.00  0.00    -0.142 NA
BRANCH  26  27
ATOM     27  C   UNL     1      -4.200   3.571  25.032  0.00  0.00    +0.077 A 
ATOM     28  C   UNL     1      -4.678   2.925  25.215  0.00  0.00    +0.021 A 
ATOM     29  C   UNL     1      -5.442   3.044  25.500  0.00  0.00    +0.073 A 
ATOM     30  C   UNL     1      -5.730   3.811  25.602  0.00  0.00    +0.004 A 
ATOM     31  C   UNL     1      -5.251   4.458  25.419  0.00  0.00    +0.001 A 
ATOM     32  C   UNL     1      -4.486   4.338  25.134  0.00  0.00    +0.017 A 
BRANCH  29  33
ATOM     33  C   UNL     1      -5.921   2.397  25.683  0.00  0.00    +0.419 C 
ATOM     34  F   UNL     1      -6.399   1.751  25.866  0.00  0.00    -0.166 F 
ATOM     35  F   UNL     1      -5.789   2.527  26.487  0.00  0.00    -0.166 F 
ATOM     36  F   UNL     1      -6.054   2.268  24.879  0.00  0.00    -0.166 F 
ENDBRANCH  29  33
ENDBRANCH  26  27
ENDBRANCH  23  24
ENDBRANCH  19  23
TORSDOF 9
ENDMDL
MODEL 8
REMARK VINA RESULT:      -9.1      3.632      5.050
REMARK  Name = 
REMARK  9 active torsions:
REMARK  status: ('A' for Active; 'I' for Inactive)
REMARK    1  A    between atoms: O_2  and  C_3
REMARK    2  A    between atoms: C_6  and  O_7
REMARK    3  A    between atoms: C_9  and  S_11
REMARK    4  A    between atoms: S_11  and  N_14
REMARK    5  A    between atoms: N_14  and  C_15
REMARK    6  A    between atoms: C_19  and  O_23
REMARK    7  A    between atoms: O_23  and  C_24
REMARK    8  A    between atoms: N_26  and  C_27
REMARK    9  A    between atoms: C_29  and  C_33
REMARK                            x       y       z     vdW  Elec       q    Type
REMARK                         _______ _______ _______ _____ _____    ______ ____
ROOT
ATOM     15  C   UNL     1      -1.338   1.033  23.976  0.00  0.00    +0.157 C 
ATOM     16  C   UNL     1      -1.304   1.421  23.250  0.00  0.00    +0.164 C 
ATOM     17  O   UNL     1      -0.627   1.163  22.855  0.00  0.00    -0.348 OA
ATOM     18  C   UNL     1      -0.243   0.616  23.338  0.00  0.00    +0.186 C 
ATOM     19  C   UNL     1       0.413   0.118  23.393  0.00  0.00    +0.229 C 
ATOM     20  C   UNL     1       0.379  -0.270  24.120  0.00  0.00    +0.188 C 
ATOM     21  O   UNL     1      -0.298  -0.012  24.514  0.00  0.00    -0.348 OA
ATOM     22  C   UNL     1      -0.682   0.536  24.031  0.00  0.00    +0.166 C 
ENDROOT
BRANCH  15  14
ATOM     14  N   UNL     1      -1.925   1.126  24.549  0.00  0.00    -0.074 NA
BRANCH  14  11
ATOM     11  S   UNL     1      -2.140   1.882  24.801  0.00  0.00    +0.080 S 
ATOM     12  O   UNL     1      -1.812   1.729  25.542  0.00  0.00    -0.151 OA
ATOM     13  O   UNL     1      -2.469   2.035  24.060  0.00  0.00    -0.151 OA
BRANCH  11   9
ATOM      3  C   UNL     1      -1.995   3.978  25.389  0.00  0.00    +0.140 A 
ATOM      4  C   UNL     1      -2.785   4.149  25.554  0.00  0.00    +0.040 A 
ATOM      5  C   UNL     1      -3.360   3.565  25.468  0.00  0.00    +0.041 A 
ATOM      6  C   UNL     1      -3.145   2.808  25.217  0.00  0.00    +0.157 A 
ATOM      9  C   UNL     1      -2.355   2.637  25.052  0.00  0.00    +0.160 A 
ATOM     10  C   UNL     1      -1.780   3.223  25.138  0.00  0.00    +0.060 A 
BRANCH   3   2
ATOM      1  C   UNL     1      -1.518   5.296  25.109  0.00  0.00    +0.252 C 
ATOM      2  O   UNL     1      -1.419   4.564  25.475  0.00  0.00    -0.471 OA
ENDBRANCH   3   2
BRANCH   6   7
ATOM      7  O   UNL     1      -3.721   2.223  25.131  0.00  0.00    -0.470 OA
ATOM      8  C   UNL     1      -4.514   2.401  25.273  0.00  0.00    +0.253 C 
ENDBRANCH   6   7
ENDBRANCH  11   9
ENDBRANCH  14  11
ENDBRANCH  15  14
BRANCH  19  23
ATOM     23  O   UNL     1       1.000   0.025  22.821  0.00  0.00    -0.432 OA
BRANCH  23  24
ATOM     24  C   UNL     1       1.774   0.263  22.981  0.00  0.00    +0.425 C 
ATOM     25  O   UNL     1       1.913   0.901  23.486  0.00  0.00    -0.224 OA
ATOM     26  N   UNL     1       2.408  -0.135  22.636  0.00  0.00    -0.142 NA
BRANCH  26  27
ATOM     27  C   UNL     1       3.182   0.103  22.796  0.00  0.00    +0.077 A 
ATOM     28  C   UNL     1       3.664  -0.360  23.279  0.00  0.00    +0.021 A 
ATOM     29  C   UNL     1       4.437  -0.122  23.439  0.00  0.00    +0.073 A 
ATOM     30  C   UNL     1       4.729   0.579  23.115  0.00  0.00    +0.004 A 
ATOM     31  C   UNL     1       4.246   1.042  22.632  0.00  0.00    +0.001 A 
ATOM     32  C   UNL     1       3.472   0.804  22.473  0.00  0.00    +0.017 A 
BRANCH  29  33
ATOM     33  C   UNL     1       4.920  -0.585  23.922  0.00  0.00    +0.419 C 
ATOM     34  F   UNL     1       5.403  -1.048  24.404  0.00  0.00    -0.166 F 
ATOM     35  F   UNL     1       5.234   0.098  24.263  0.00  0.00    -0.166 F 
ATOM     36  F   UNL     1       4.608  -1.268  23.581  0.00  0.00    -0.166 F 
ENDBRANCH  29  33
ENDBRANCH  26  27
ENDBRANCH  23  24
ENDBRANCH  19  23
TORSDOF 9
ENDMDL
