MODEL 1
REMARK VINA RESULT:     -10.3      0.000      0.000
REMARK  Name = 
REMARK  9 active torsions:
REMARK  status: ('A' for Active; 'I' for Inactive)
REMARK    1  A    between atoms: C_2  and  C_3
REMARK    2  A    between atoms: C_3  and  C_4
REMARK    3  A    between atoms: C_7  and  C_8
REMARK    4  A    between atoms: C_8  and  C_9
REMARK    5  A    between atoms: C_11  and  C_12
REMARK    6  A    between atoms: C_15  and  C_16
REMARK    7  A    between atoms: C_16  and  N_17
REMARK    8  A    between atoms: N_20  and  C_21
REMARK    9  A    between atoms: C_21  and  C_22
REMARK                            x       y       z     vdW  Elec       q    Type
REMARK                         _______ _______ _______ _____ _____    ______ ____
ROOT
ATOM      9  C   UNL     1      -3.930   2.357  23.980  0.00  0.00    +0.027 C 
ATOM     10  C   UNL     1      -4.602   2.350  24.459  0.00  0.00    +0.005 C 
ATOM     11  C   UNL     1      -4.889   1.634  24.756  0.00  0.00    +0.006 C 
ATOM     15  C   UNL     1      -4.505   0.928  24.573  0.00  0.00    +0.037 C 
ATOM     26  C   UNL     1      -3.833   0.936  24.094  0.00  0.00    -0.034 C 
ATOM     27  C   UNL     1      -3.546   1.650  23.797  0.00  0.00    -0.048 C 
ATOM     28  C   UNL     1      -2.875   1.658  23.318  0.00  0.00    +0.026 C 
ENDROOT
BRANCH  11  12
ATOM     12  C   UNL     1      -5.561   1.627  25.235  0.00  0.00    +0.000 C 
ATOM     13  C   UNL     1      -6.309   1.552  24.896  0.00  0.00    +0.000 C 
ATOM     14  C   UNL     1      -5.484   1.694  26.054  0.00  0.00    +0.000 C 
ENDBRANCH  11  12
BRANCH   9   8
ATOM      8  C   UNL     1      -3.644   3.071  23.683  0.00  0.00    +0.091 C 
BRANCH   8   7
ATOM      4  C   UNL     1      -2.499   4.334  24.968  0.00  0.00    +0.226 A 
ATOM      5  N   UNL     1      -3.240   4.693  25.011  0.00  0.00    -0.112 NA
ATOM      6  N   UNL     1      -3.760   4.263  24.535  0.00  0.00    -0.112 NA
ATOM      7  C   UNL     1      -3.339   3.639  24.198  0.00  0.00    +0.226 A 
ATOM     29  O   UNL     1      -2.560   3.683  24.465  0.00  0.00    -0.423 OA
BRANCH   4   3
ATOM      3  C   UNL     1      -1.817   4.583  25.359  0.00  0.00    +0.087 C 
BRANCH   3   2
ATOM      1  C   UNL     1      -0.491   4.993  25.020  0.00  0.00    +0.001 C 
ATOM      2  C   UNL     1      -1.306   5.119  24.997  0.00  0.00    +0.010 C 
ENDBRANCH   3   2
ENDBRANCH   4   3
ENDBRANCH   8   7
ENDBRANCH   9   8
BRANCH  15  16
ATOM     16  C   UNL     1      -4.791   0.213  24.870  0.00  0.00    +0.076 C 
BRANCH  16  17
ATOM     17  N   UNL     1      -4.334  -0.470  24.811  0.00  0.00    -0.270 NA
ATOM     18  C   UNL     1      -4.420  -0.970  24.160  0.00  0.00    +0.090 C 
ATOM     19  C   UNL     1      -3.964  -1.654  24.101  0.00  0.00    +0.090 C 
ATOM     20  N   UNL     1      -3.420  -1.839  24.693  0.00  0.00    -0.268 NA
ATOM     24  C   UNL     1      -3.334  -1.340  25.344  0.00  0.00    +0.090 C 
ATOM     25  C   UNL     1      -3.790  -0.656  25.404  0.00  0.00    +0.090 C 
BRANCH  20  21
ATOM     21  C   UNL     1      -2.963  -2.523  24.634  0.00  0.00    +0.108 C 
BRANCH  21  22
ATOM     22  C   UNL     1      -2.148  -2.468  24.516  0.00  0.00    +0.199 C 
ATOM     23  O   UNL     1      -1.733  -3.109  24.205  0.00  0.00    -0.219 OA
ENDBRANCH  21  22
ENDBRANCH  20  21
ENDBRANCH  16  17
ENDBRANCH  15  16
TORSDOF 9
ENDMDL
MODEL 2
REMARK VINA RESULT:      -9.9      0.989      4.922
REMARK  Name = 
REMARK  9 active torsions:
REMARK  status: ('A' for Active; 'I' for Inactive)
REMARK    1  A    between atoms: C_2  and  C_3
REMARK    2  A    between atoms: C_3  and  C_4
REMARK    3  A    between atoms: C_7  and  C_8
REMARK    4  A    between atoms: C_8  and  C_9
REMARK    5  A    between atoms: C_11  and  C_12
REMARK    6  A    between atoms: C_15  and  C_16
REMARK    7  A    between atoms: C_16  and  N_17
REMARK    8  A    between atoms: N_20  and  C_21
REMARK    9  A    between atoms: C_21  and  C_22
REMARK                            x       y       z     vdW  Elec       q    Type
REMARK                         _______ _______ _______ _____ _____    ______ ____
ROOT
ATOM      9  C   UNL     1      -3.963   0.671  23.910  0.00  0.00    +0.027 C 
ATOM     10  C   UNL     1      -4.627   0.784  24.387  0.00  0.00    +0.005 C 
ATOM     11  C   UNL     1      -4.719   1.491  24.803  0.00  0.00    +0.006 C 
ATOM     15  C   UNL     1      -4.150   2.083  24.741  0.00  0.00    +0.037 C 
ATOM     26  C   UNL     1      -3.486   1.970  24.264  0.00  0.00    -0.034 C 
ATOM     27  C   UNL     1      -3.393   1.265  23.848  0.00  0.00    -0.048 C 
ATOM     28  C   UNL     1      -2.730   1.151  23.371  0.00  0.00    +0.026 C 
ENDROOT
BRANCH  11  12
ATOM     12  C   UNL     1      -5.383   1.604  25.281  0.00  0.00    +0.000 C 
ATOM     13  C   UNL     1      -5.369   1.364  26.070  0.00  0.00    +0.000 C 
ATOM     14  C   UNL     1      -6.060   1.957  24.969  0.00  0.00    +0.000 C 
ENDBRANCH  11  12
BRANCH   9   8
ATOM      8  C   UNL     1      -3.870  -0.035  23.494  0.00  0.00    +0.091 C 
BRANCH   8   7
ATOM      4  C   UNL     1      -3.215  -1.734  24.610  0.00  0.00    +0.226 A 
ATOM      5  N   UNL     1      -3.999  -1.938  24.454  0.00  0.00    -0.112 NA
ATOM      6  N   UNL     1      -4.340  -1.326  24.016  0.00  0.00    -0.112 NA
ATOM      7  C   UNL     1      -3.766  -0.744  23.903  0.00  0.00    +0.226 A 
ATOM     29  O   UNL     1      -3.071  -0.996  24.269  0.00  0.00    -0.423 OA
BRANCH   4   3
ATOM      3  C   UNL     1      -2.671  -2.187  25.032  0.00  0.00    +0.087 C 
BRANCH   3   2
ATOM      1  C   UNL     1      -1.292  -2.550  25.119  0.00  0.00    +0.001 C 
ATOM      2  C   UNL     1      -1.975  -2.439  24.669  0.00  0.00    +0.010 C 
ENDBRANCH   3   2
ENDBRANCH   4   3
ENDBRANCH   8   7
ENDBRANCH   9   8
BRANCH  15  16
ATOM     16  C   UNL     1      -4.242   2.791  25.157  0.00  0.00    +0.076 C 
BRANCH  16  17
ATOM     17  N   UNL     1      -3.621   3.330  25.197  0.00  0.00    -0.270 NA
ATOM     18  C   UNL     1      -3.073   3.285  25.814  0.00  0.00    +0.090 C 
ATOM     19  C   UNL     1      -2.452   3.825  25.854  0.00  0.00    +0.090 C 
ATOM     20  N   UNL     1      -2.376   4.411  25.277  0.00  0.00    -0.268 NA
ATOM     24  C   UNL     1      -2.922   4.456  24.662  0.00  0.00    +0.090 C 
ATOM     25  C   UNL     1      -3.545   3.916  24.621  0.00  0.00    +0.090 C 
BRANCH  20  21
ATOM     21  C   UNL     1      -1.753   4.950  25.318  0.00  0.00    +0.108 C 
BRANCH  21  22
ATOM     22  C   UNL     1      -1.042   4.792  24.930  0.00  0.00    +0.199 C 
ATOM     23  O   UNL     1      -0.477   5.387  24.848  0.00  0.00    -0.219 OA
ENDBRANCH  21  22
ENDBRANCH  20  21
ENDBRANCH  16  17
ENDBRANCH  15  16
TORSDOF 9
ENDMDL
MODEL 3
REMARK VINA RESULT:      -9.8      0.948      1.891
REMARK  Name = 
REMARK  9 active torsions:
REMARK  status: ('A' for Active; 'I' for Inactive)
REMARK    1  A    between atoms: C_2  and  C_3
REMARK    2  A    between atoms: C_3  and  C_4
REMARK    3  A    between atoms: C_7  and  C_8
REMARK    4  A    between atoms: C_8  and  C_9
REMARK    5  A    between atoms: C_11  and  C_12
REMARK    6  A    between atoms: C_15  and  C_16
REMARK    7  A    between atoms: C_16  and  N_17
REMARK    8  A    between atoms: N_20  and  C_21
REMARK    9  A    between atoms: C_21  and  C_22
REMARK                            x       y       z     vdW  Elec       q    Type
REMARK                         _______ _______ _______ _____ _____    ______ ____
ROOT
ATOM      9  C   UNL     1      -3.915   2.694  24.539  0.00  0.00    +0.027 C 
ATOM     10  C   UNL     1      -3.329   2.665  23.958  0.00  0.00    +0.005 C 
ATOM     11  C   UNL     1      -3.147   1.947  23.593  0.00  0.00    +0.006 C 
ATOM     15  C   UNL     1      -3.549   1.261  23.808  0.00  0.00    +0.037 C 
ATOM     26  C   UNL     1      -4.134   1.290  24.389  0.00  0.00    -0.034 C 
ATOM     27  C   UNL     1      -4.317   2.006  24.754  0.00  0.00    -0.048 C 
ATOM     28  C   UNL     1      -4.902   2.036  25.335  0.00  0.00    +0.026 C 
ENDROOT
BRANCH  11  12
ATOM     12  C   UNL     1      -2.561   1.918  23.012  0.00  0.00    +0.000 C 
ATOM     13  C   UNL     1      -1.773   1.802  23.226  0.00  0.00    +0.000 C 
ATOM     14  C   UNL     1      -2.764   2.005  22.217  0.00  0.00    +0.000 C 
ENDBRANCH  11  12
BRANCH   9   8
ATOM      8  C   UNL     1      -4.098   3.410  24.904  0.00  0.00    +0.091 C 
BRANCH   8   7
ATOM      4  C   UNL     1      -2.476   4.685  25.454  0.00  0.00    +0.226 A 
ATOM      5  N   UNL     1      -2.699   4.384  26.189  0.00  0.00    -0.112 NA
ATOM      6  N   UNL     1      -3.333   3.870  26.073  0.00  0.00    -0.112 NA
ATOM      7  C   UNL     1      -3.503   3.853  25.266  0.00  0.00    +0.226 A 
ATOM     29  O   UNL     1      -2.974   4.357  24.883  0.00  0.00    -0.423 OA
BRANCH   4   3
ATOM      3  C   UNL     1      -1.864   5.221  25.314  0.00  0.00    +0.087 C 
BRANCH   3   2
ATOM      1  C   UNL     1      -0.603   5.421  24.674  0.00  0.00    +0.001 C 
ATOM      2  C   UNL     1      -1.114   4.945  25.115  0.00  0.00    +0.010 C 
ENDBRANCH   3   2
ENDBRANCH   4   3
ENDBRANCH   8   7
ENDBRANCH   9   8
BRANCH  15  16
ATOM     16  C   UNL     1      -3.366   0.543  23.443  0.00  0.00    +0.076 C 
BRANCH  16  17
ATOM     17  N   UNL     1      -3.452  -0.164  23.857  0.00  0.00    -0.270 NA
ATOM     18  C   UNL     1      -4.116  -0.639  23.731  0.00  0.00    +0.090 C 
ATOM     19  C   UNL     1      -4.202  -1.346  24.145  0.00  0.00    +0.090 C 
ATOM     20  N   UNL     1      -3.625  -1.581  24.686  0.00  0.00    -0.268 NA
ATOM     24  C   UNL     1      -2.962  -1.107  24.812  0.00  0.00    +0.090 C 
ATOM     25  C   UNL     1      -2.875  -0.399  24.398  0.00  0.00    +0.090 C 
BRANCH  20  21
ATOM     21  C   UNL     1      -3.712  -2.289  25.100  0.00  0.00    +0.108 C 
BRANCH  21  22
ATOM     22  C   UNL     1      -3.330  -2.972  24.837  0.00  0.00    +0.199 C 
ATOM     23  O   UNL     1      -3.417  -3.678  25.254  0.00  0.00    -0.219 OA
ENDBRANCH  21  22
ENDBRANCH  20  21
ENDBRANCH  16  17
ENDBRANCH  15  16
TORSDOF 9
ENDMDL
MODEL 4
REMARK VINA RESULT:      -9.6      1.821      3.373
REMARK  Name = 
REMARK  9 active torsions:
REMARK  status: ('A' for Active; 'I' for Inactive)
REMARK    1  A    between atoms: C_2  and  C_3
REMARK    2  A    between atoms: C_3  and  C_4
REMARK    3  A    between atoms: C_7  and  C_8
REMARK    4  A    between atoms: C_8  and  C_9
REMARK    5  A    between atoms: C_11  and  C_12
REMARK    6  A    between atoms: C_15  and  C_16
REMARK    7  A    between atoms: C_16  and  N_17
REMARK    8  A    between atoms: N_20  and  C_21
REMARK    9  A    between atoms: C_21  and  C_22
REMARK                            x       y       z     vdW  Elec       q    Type
REMARK                         _______ _______ _______ _____ _____    ______ ____
ROOT
ATOM      9  C   UNL     1      -2.879   2.791  24.071  0.00  0.00    +0.027 C 
ATOM     10  C   UNL     1      -2.362   3.168  24.592  0.00  0.00    +0.005 C 
ATOM     11  C   UNL     1      -1.661   2.795  24.818  0.00  0.00    +0.006 C 
ATOM     15  C   UNL     1      -1.478   2.047  24.524  0.00  0.00    +0.037 C 
ATOM     26  C   UNL     1      -1.995   1.670  24.003  0.00  0.00    -0.034 C 
ATOM     27  C   UNL     1      -2.696   2.042  23.777  0.00  0.00    -0.048 C 
ATOM     28  C   UNL     1      -3.213   1.666  23.256  0.00  0.00    +0.026 C 
ENDROOT
BRANCH  11  12
ATOM     12  C   UNL     1      -1.143   3.172  25.339  0.00  0.00    +0.000 C 
ATOM     13  C   UNL     1      -1.254   3.101  26.153  0.00  0.00    +0.000 C 
ATOM     14  C   UNL     1      -0.516   3.619  25.046  0.00  0.00    +0.000 C 
ENDBRANCH  11  12
BRANCH   9   8
ATOM      8  C   UNL     1      -3.580   3.162  23.845  0.00  0.00    +0.091 C 
BRANCH   8   7
ATOM      4  C   UNL     1      -5.135   3.246  25.305  0.00  0.00    +0.226 A 
ATOM      5  N   UNL     1      -4.913   4.039  25.262  0.00  0.00    -0.112 NA
ATOM      6  N   UNL     1      -4.304   4.105  24.710  0.00  0.00    -0.112 NA
ATOM      7  C   UNL     1      -4.148   3.351  24.411  0.00  0.00    +0.226 A 
ATOM     29  O   UNL     1      -4.662   2.820  24.779  0.00  0.00    -0.423 OA
BRANCH   4   3
ATOM      3  C   UNL     1      -5.726   2.932  25.788  0.00  0.00    +0.087 C 
BRANCH   3   2
ATOM      1  C   UNL     1      -6.352   1.795  26.384  0.00  0.00    +0.001 C 
ATOM      2  C   UNL     1      -5.841   2.117  25.821  0.00  0.00    +0.010 C 
ENDBRANCH   3   2
ENDBRANCH   4   3
ENDBRANCH   8   7
ENDBRANCH   9   8
BRANCH  15  16
ATOM     16  C   UNL     1      -0.777   1.674  24.750  0.00  0.00    +0.076 C 
BRANCH  16  17
ATOM     17  N   UNL     1      -0.738   0.851  24.779  0.00  0.00    -0.270 NA
ATOM     18  C   UNL     1      -1.055   0.445  25.424  0.00  0.00    +0.090 C 
ATOM     19  C   UNL     1      -1.017  -0.377  25.454  0.00  0.00    +0.090 C 
ATOM     20  N   UNL     1      -0.660  -0.796  24.838  0.00  0.00    -0.268 NA
ATOM     24  C   UNL     1      -0.343  -0.391  24.194  0.00  0.00    +0.090 C 
ATOM     25  C   UNL     1      -0.382   0.432  24.164  0.00  0.00    +0.090 C 
BRANCH  20  21
ATOM     21  C   UNL     1      -0.622  -1.619  24.868  0.00  0.00    +0.108 C 
BRANCH  21  22
ATOM     22  C   UNL     1      -1.294  -2.071  24.707  0.00  0.00    +0.199 C 
ATOM     23  O   UNL     1      -1.262  -2.893  24.771  0.00  0.00    -0.219 OA
ENDBRANCH  21  22
ENDBRANCH  20  21
ENDBRANCH  16  17
ENDBRANCH  15  16
TORSDOF 9
ENDMDL
MODEL 5
REMARK VINA RESULT:      -9.4      2.476      4.624
REMARK  Name = 
REMARK  9 active torsions:
REMARK  status: ('A' for Active; 'I' for Inactive)
REMARK    1  A    between atoms: C_2  and  C_3
REMARK    2  A    between atoms: C_3  and  C_4
REMARK    3  A    between atoms: C_7  and  C_8
REMARK    4  A    between atoms: C_8  and  C_9
REMARK    5  A    between atoms: C_11  and  C_12
REMARK    6  A    between atoms: C_15  and  C_16
REMARK    7  A    between atoms: C_16  and  N_17
REMARK    8  A    between atoms: N_20  and  C_21
REMARK    9  A    between atoms: C_21  and  C_22
REMARK                            x       y       z     vdW  Elec       q    Type
REMARK                         _______ _______ _______ _____ _____    ______ ____
ROOT
ATOM      9  C   UNL     1      -1.841   0.168  25.079  0.00  0.00    +0.027 C 
ATOM     10  C   UNL     1      -2.284  -0.508  24.910  0.00  0.00    +0.005 C 
ATOM     11  C   UNL     1      -3.091  -0.440  24.748  0.00  0.00    +0.006 C 
ATOM     15  C   UNL     1      -3.453   0.300  24.757  0.00  0.00    +0.037 C 
ATOM     26  C   UNL     1      -3.010   0.975  24.926  0.00  0.00    -0.034 C 
ATOM     27  C   UNL     1      -2.204   0.909  25.088  0.00  0.00    -0.048 C 
ATOM     28  C   UNL     1      -1.760   1.583  25.257  0.00  0.00    +0.026 C 
ENDROOT
BRANCH  11  12
ATOM     12  C   UNL     1      -3.535  -1.115  24.579  0.00  0.00    +0.000 C 
ATOM     13  C   UNL     1      -3.750  -1.282  23.800  0.00  0.00    +0.000 C 
ATOM     14  C   UNL     1      -3.763  -1.622  25.188  0.00  0.00    +0.000 C 
ENDBRANCH  11  12
BRANCH   9   8
ATOM      8  C   UNL     1      -1.035   0.101  25.241  0.00  0.00    +0.091 C 
BRANCH   8   7
ATOM      4  C   UNL     1       0.276  -0.423  23.640  0.00  0.00    +0.226 A 
ATOM      5  N   UNL     1       0.215  -1.143  24.038  0.00  0.00    -0.112 NA
ATOM      6  N   UNL     1      -0.284  -1.034  24.686  0.00  0.00    -0.112 NA
ATOM      7  C   UNL     1      -0.531  -0.247  24.689  0.00  0.00    +0.226 A 
ATOM     29  O   UNL     1      -0.185   0.131  24.042  0.00  0.00    -0.423 OA
BRANCH   4   3
ATOM      3  C   UNL     1       0.720  -0.282  22.959  0.00  0.00    +0.087 C 
BRANCH   3   2
ATOM      1  C   UNL     1       1.979   0.046  22.369  0.00  0.00    +0.001 C 
ATOM      2  C   UNL     1       1.470   0.056  23.018  0.00  0.00    +0.010 C 
ENDBRANCH   3   2
ENDBRANCH   4   3
ENDBRANCH   8   7
ENDBRANCH   9   8
BRANCH  15  16
ATOM     16  C   UNL     1      -4.260   0.367  24.595  0.00  0.00    +0.076 C 
BRANCH  16  17
ATOM     17  N   UNL     1      -4.664   1.058  24.792  0.00  0.00    -0.270 NA
ATOM     18  C   UNL     1      -5.065   1.112  25.511  0.00  0.00    +0.090 C 
ATOM     19  C   UNL     1      -5.469   1.803  25.707  0.00  0.00    +0.090 C 
ATOM     20  N   UNL     1      -5.473   2.443  25.185  0.00  0.00    -0.268 NA
ATOM     24  C   UNL     1      -5.072   2.389  24.466  0.00  0.00    +0.090 C 
ATOM     25  C   UNL     1      -4.667   1.698  24.269  0.00  0.00    +0.090 C 
BRANCH  20  21
ATOM     21  C   UNL     1      -5.877   3.134  25.382  0.00  0.00    +0.108 C 
BRANCH  21  22
ATOM     22  C   UNL     1      -5.460   3.798  25.639  0.00  0.00    +0.199 C 
ATOM     23  O   UNL     1      -5.859   4.507  25.775  0.00  0.00    -0.219 OA
ENDBRANCH  21  22
ENDBRANCH  20  21
ENDBRANCH  16  17
ENDBRANCH  15  16
TORSDOF 9
ENDMDL
MODEL 6
REMARK VINA RESULT:      -9.2      2.237      3.188
REMARK  Name = 
REMARK  9 active torsions:
REMARK  status: ('A' for Active; 'I' for Inactive)
REMARK    1  A    between atoms: C_2  and  C_3
REMARK    2  A    between atoms: C_3  and  C_4
REMARK    3  A    between atoms: C_7  and  C_8
REMARK    4  A    between atoms: C_8  and  C_9
REMARK    5  A    between atoms: C_11  and  C_12
REMARK    6  A    between atoms: C_15  and  C_16
REMARK    7  A    between atoms: C_16  and  N_17
REMARK    8  A    between atoms: N_20  and  C_21
REMARK    9  A    between atoms: C_21  and  C_22
REMARK                            x       y       z     vdW  Elec       q    Type
REMARK                         _______ _______ _______ _____ _____    ______ ____
ROOT
ATOM      9  C   UNL     1      -3.941   0.607  24.324  0.00  0.00    +0.027 C 
ATOM     10  C   UNL     1      -4.022   0.020  24.899  0.00  0.00    +0.005 C 
ATOM     11  C   UNL     1      -3.399  -0.502  25.045  0.00  0.00    +0.006 C 
ATOM     15  C   UNL     1      -2.697  -0.436  24.617  0.00  0.00    +0.037 C 
ATOM     26  C   UNL     1      -2.617   0.150  24.042  0.00  0.00    -0.034 C 
ATOM     27  C   UNL     1      -3.239   0.672  23.896  0.00  0.00    -0.048 C 
ATOM     28  C   UNL     1      -3.159   1.258  23.321  0.00  0.00    +0.026 C 
ENDROOT
BRANCH  11  12
ATOM     12  C   UNL     1      -3.479  -1.088  25.620  0.00  0.00    +0.000 C 
ATOM     13  C   UNL     1      -3.313  -0.918  26.409  0.00  0.00    +0.000 C 
ATOM     14  C   UNL     1      -3.725  -1.845  25.404  0.00  0.00    +0.000 C 
ENDBRANCH  11  12
BRANCH   9   8
ATOM      8  C   UNL     1      -4.563   1.128  24.177  0.00  0.00    +0.091 C 
BRANCH   8   7
ATOM      4  C   UNL     1      -4.713   2.824  25.466  0.00  0.00    +0.226 A 
ATOM      5  N   UNL     1      -5.375   2.389  25.696  0.00  0.00    -0.112 NA
ATOM      6  N   UNL     1      -5.400   1.701  25.242  0.00  0.00    -0.112 NA
ATOM      7  C   UNL     1      -4.753   1.710  24.730  0.00  0.00    +0.226 A 
ATOM     29  O   UNL     1      -4.328   2.404  24.869  0.00  0.00    -0.423 OA
BRANCH   4   3
ATOM      3  C   UNL     1      -4.477   3.550  25.778  0.00  0.00    +0.087 C 
BRANCH   3   2
ATOM      1  C   UNL     1      -3.387   4.383  26.175  0.00  0.00    +0.001 C 
ATOM      2  C   UNL     1      -3.725   3.633  26.105  0.00  0.00    +0.010 C 
ENDBRANCH   3   2
ENDBRANCH   4   3
ENDBRANCH   8   7
ENDBRANCH   9   8
BRANCH  15  16
ATOM     16  C   UNL     1      -2.074  -0.958  24.763  0.00  0.00    +0.076 C 
BRANCH  16  17
ATOM     17  N   UNL     1      -1.321  -0.793  24.473  0.00  0.00    -0.270 NA
ATOM     18  C   UNL     1      -0.851  -0.224  24.843  0.00  0.00    +0.090 C 
ATOM     19  C   UNL     1      -0.098  -0.058  24.553  0.00  0.00    +0.090 C 
ATOM     20  N   UNL     1       0.188  -0.461  23.891  0.00  0.00    -0.268 NA
ATOM     24  C   UNL     1      -0.281  -1.029  23.521  0.00  0.00    +0.090 C 
ATOM     25  C   UNL     1      -1.035  -1.195  23.811  0.00  0.00    +0.090 C 
BRANCH  20  21
ATOM     21  C   UNL     1       0.942  -0.295  23.601  0.00  0.00    +0.108 C 
BRANCH  21  22
ATOM     22  C   UNL     1       1.038  -0.030  22.826  0.00  0.00    +0.199 C 
ATOM     23  O   UNL     1       1.796   0.082  22.520  0.00  0.00    -0.219 OA
ENDBRANCH  21  22
ENDBRANCH  20  21
ENDBRANCH  16  17
ENDBRANCH  15  16
TORSDOF 9
ENDMDL
MODEL 7
REMARK VINA RESULT:      -8.9      1.859      5.573
REMARK  Name = 
REMARK  9 active torsions:
REMARK  status: ('A' for Active; 'I' for Inactive)
REMARK    1  A    between atoms: C_2  and  C_3
REMARK    2  A    between atoms: C_3  and  C_4
REMARK    3  A    between atoms: C_7  and  C_8
REMARK    4  A    between atoms: C_8  and  C_9
REMARK    5  A    between atoms: C_11  and  C_12
REMARK    6  A    between atoms: C_15  and  C_16
REMARK    7  A    between atoms: C_16  and  N_17
REMARK    8  A    between atoms: N_20  and  C_21
REMARK    9  A    between atoms: C_21  and  C_22
REMARK                            x       y       z     vdW  Elec       q    Type
REMARK                         _______ _______ _______ _____ _____    ______ ____
ROOT
ATOM      9  C   UNL     1      -3.235   0.475  24.920  0.00  0.00    +0.027 C 
ATOM     10  C   UNL     1      -2.571   0.010  25.078  0.00  0.00    +0.005 C 
ATOM     11  C   UNL     1      -1.827   0.362  25.139  0.00  0.00    +0.006 C 
ATOM     15  C   UNL     1      -1.746   1.176  25.041  0.00  0.00    +0.037 C 
ATOM     26  C   UNL     1      -2.410   1.641  24.883  0.00  0.00    -0.034 C 
ATOM     27  C   UNL     1      -3.154   1.290  24.822  0.00  0.00    -0.048 C 
ATOM     28  C   UNL     1      -3.817   1.754  24.664  0.00  0.00    +0.026 C 
ENDROOT
BRANCH  11  12
ATOM     12  C   UNL     1      -1.163  -0.103  25.298  0.00  0.00    +0.000 C 
ATOM     13  C   UNL     1      -0.673  -0.345  24.681  0.00  0.00    +0.000 C 
ATOM     14  C   UNL     1      -0.991  -0.325  26.073  0.00  0.00    +0.000 C 
ENDBRANCH  11  12
BRANCH   9   8
ATOM      8  C   UNL     1      -3.979   0.124  24.859  0.00  0.00    +0.091 C 
BRANCH   8   7
ATOM      4  C   UNL     1      -4.150  -1.870  24.116  0.00  0.00    +0.226 A 
ATOM      5  N   UNL     1      -4.280  -1.433  23.429  0.00  0.00    -0.112 NA
ATOM      6  N   UNL     1      -4.232  -0.632  23.624  0.00  0.00    -0.112 NA
ATOM      7  C   UNL     1      -4.072  -0.575  24.431  0.00  0.00    +0.226 A 
ATOM     29  O   UNL     1      -4.021  -1.340  24.736  0.00  0.00    -0.423 OA
BRANCH   4   3
ATOM      3  C   UNL     1      -4.149  -2.693  24.174  0.00  0.00    +0.087 C 
BRANCH   3   2
ATOM      1  C   UNL     1      -3.314  -3.704  24.741  0.00  0.00    +0.001 C 
ATOM      2  C   UNL     1      -3.435  -3.105  24.187  0.00  0.00    +0.010 C 
ENDBRANCH   3   2
ENDBRANCH   4   3
ENDBRANCH   8   7
ENDBRANCH   9   8
BRANCH  15  16
ATOM     16  C   UNL     1      -1.002   1.528  25.102  0.00  0.00    +0.076 C 
BRANCH  16  17
ATOM     17  N   UNL     1      -0.930   2.349  25.069  0.00  0.00    -0.270 NA
ATOM     18  C   UNL     1      -0.784   2.722  24.347  0.00  0.00    +0.090 C 
ATOM     19  C   UNL     1      -0.712   3.542  24.314  0.00  0.00    +0.090 C 
ATOM     20  N   UNL     1      -0.785   3.991  25.002  0.00  0.00    -0.268 NA
ATOM     24  C   UNL     1      -0.930   3.619  25.723  0.00  0.00    +0.090 C 
ATOM     25  C   UNL     1      -1.002   2.798  25.757  0.00  0.00    +0.090 C 
BRANCH  20  21
ATOM     21  C   UNL     1      -0.712   4.812  24.968  0.00  0.00    +0.108 C 
BRANCH  21  22
ATOM     22  C   UNL     1      -1.383   5.290  25.024  0.00  0.00    +0.199 C 
ATOM     23  O   UNL     1      -1.310   6.109  24.964  0.00  0.00    -0.219 OA
ENDBRANCH  21  22
ENDBRANCH  20  21
ENDBRANCH  16  17
ENDBRANCH  15  16
TORSDOF 9
ENDMDL
MODEL 8
REMARK VINA RESULT:      -8.9      2.485      6.129
REMARK  Name = 
REMARK  9 active torsions:
REMARK  status: ('A' for Active; 'I' for Inactive)
REMARK    1  A    between atoms: C_2  and  C_3
REMARK    2  A    between atoms: C_3  and  C_4
REMARK    3  A    between atoms: C_7  and  C_8
REMARK    4  A    between atoms: C_8  and  C_9
REMARK    5  A    between atoms: C_11  and  C_12
REMARK    6  A    between atoms: C_15  and  C_16
REMARK    7  A    between atoms: C_16  and  N_17
REMARK    8  A    between atoms: N_20  and  C_21
REMARK    9  A    between atoms: C_21  and  C_22
REMARK                            x       y       z     vdW  Elec       q    Type
REMARK                         _______ _______ _______ _____ _____    ______ ____
ROOT
ATOM      9  C   UNL     1      -0.775  -0.781  25.079  0.00  0.00    +0.027 C 
ATOM     10  C   UNL     1      -0.356  -0.754  24.368  0.00  0.00    +0.005 C 
ATOM     11  C   UNL     1      -0.121  -0.026  24.056  0.00  0.00    +0.006 C 
ATOM     15  C   UNL     1      -0.304   0.672  24.454  0.00  0.00    +0.037 C 
ATOM     26  C   UNL     1      -0.723   0.644  25.165  0.00  0.00    -0.034 C 
ATOM     27  C   UNL     1      -0.958  -0.082  25.477  0.00  0.00    -0.048 C 
ATOM     28  C   UNL     1      -1.376  -0.109  26.187  0.00  0.00    +0.026 C 
ENDROOT
BRANCH  11  12
ATOM     12  C   UNL     1       0.297   0.001  23.345  0.00  0.00    +0.000 C 
ATOM     13  C   UNL     1       1.122  -0.019  23.351  0.00  0.00    +0.000 C 
ATOM     14  C   UNL     1      -0.109   0.048  22.629  0.00  0.00    +0.000 C 
ENDBRANCH  11  12
BRANCH   9   8
ATOM      8  C   UNL     1      -1.010  -1.507  25.391  0.00  0.00    +0.091 C 
BRANCH   8   7
ATOM      4  C   UNL     1      -2.693  -2.475  24.502  0.00  0.00    +0.226 A 
ATOM      5  N   UNL     1      -2.072  -2.925  24.200  0.00  0.00    -0.112 NA
ATOM      6  N   UNL     1      -1.366  -2.618  24.496  0.00  0.00    -0.112 NA
ATOM      7  C   UNL     1      -1.550  -1.977  24.981  0.00  0.00    +0.226 A 
ATOM     29  O   UNL     1      -2.371  -1.888  24.985  0.00  0.00    -0.423 OA
BRANCH   4   3
ATOM      3  C   UNL     1      -3.495  -2.590  24.348  0.00  0.00    +0.087 C 
BRANCH   3   2
ATOM      1  C   UNL     1      -4.696  -2.156  23.708  0.00  0.00    +0.001 C 
ATOM      2  C   UNL     1      -3.933  -1.998  23.977  0.00  0.00    +0.010 C 
ENDBRANCH   3   2
ENDBRANCH   4   3
ENDBRANCH   8   7
ENDBRANCH   9   8
BRANCH  15  16
ATOM     16  C   UNL     1      -0.069   1.399  24.142  0.00  0.00    +0.076 C 
BRANCH  16  17
ATOM     17  N   UNL     1      -0.398   2.097  24.430  0.00  0.00    -0.270 NA
ATOM     18  C   UNL     1      -0.028   2.506  25.045  0.00  0.00    +0.090 C 
ATOM     19  C   UNL     1      -0.358   3.204  25.333  0.00  0.00    +0.090 C 
ATOM     20  N   UNL     1      -1.058   3.496  25.007  0.00  0.00    -0.268 NA
ATOM     24  C   UNL     1      -1.427   3.088  24.393  0.00  0.00    +0.090 C 
ATOM     25  C   UNL     1      -1.098   2.389  24.104  0.00  0.00    +0.090 C 
BRANCH  20  21
ATOM     21  C   UNL     1      -1.387   4.195  25.296  0.00  0.00    +0.108 C 
BRANCH  21  22
ATOM     22  C   UNL     1      -1.156   4.922  24.981  0.00  0.00    +0.199 C 
ATOM     23  O   UNL     1      -1.509   5.617  25.251  0.00  0.00    -0.219 OA
ENDBRANCH  21  22
ENDBRANCH  20  21
ENDBRANCH  16  17
ENDBRANCH  15  16
TORSDOF 9
ENDMDL
MODEL 9
REMARK VINA RESULT:      -8.7      2.121      4.793
REMARK  Name = 
REMARK  9 active torsions:
REMARK  status: ('A' for Active; 'I' for Inactive)
REMARK    1  A    between atoms: C_2  and  C_3
REMARK    2  A    between atoms: C_3  and  C_4
REMARK    3  A    between atoms: C_7  and  C_8
REMARK    4  A    between atoms: C_8  and  C_9
REMARK    5  A    between atoms: C_11  and  C_12
REMARK    6  A    between atoms: C_15  and  C_16
REMARK    7  A    between atoms: C_16  and  N_17
REMARK    8  A    between atoms: N_20  and  C_21
REMARK    9  A    between atoms: C_21  and  C_22
REMARK                            x       y       z     vdW  Elec       q    Type
REMARK                         _______ _______ _______ _____ _____    ______ ____
ROOT
ATOM      9  C   UNL     1      -1.205   1.736  24.263  0.00  0.00    +0.027 C 
ATOM     10  C   UNL     1      -1.519   1.641  23.506  0.00  0.00    +0.005 C 
ATOM     11  C   UNL     1      -2.248   1.980  23.317  0.00  0.00    +0.006 C 
ATOM     15  C   UNL     1      -2.661   2.413  23.883  0.00  0.00    +0.037 C 
ATOM     26  C   UNL     1      -2.346   2.508  24.641  0.00  0.00    -0.034 C 
ATOM     27  C   UNL     1      -1.619   2.170  24.830  0.00  0.00    -0.048 C 
ATOM     28  C   UNL     1      -1.304   2.265  25.586  0.00  0.00    +0.026 C 
ENDROOT
BRANCH  11  12
ATOM     12  C   UNL     1      -2.563   1.884  22.560  0.00  0.00    +0.000 C 
ATOM     13  C   UNL     1      -2.953   1.186  22.361  0.00  0.00    +0.000 C 
ATOM     14  C   UNL     1      -2.486   2.487  22.003  0.00  0.00    +0.000 C 
ENDBRANCH  11  12
BRANCH   9   8
ATOM      8  C   UNL     1      -0.477   1.398  24.452  0.00  0.00    +0.091 C 
BRANCH   8   7
ATOM      4  C   UNL     1      -0.433  -0.736  24.438  0.00  0.00    +0.226 A 
ATOM      5  N   UNL     1       0.115  -0.562  23.847  0.00  0.00    -0.112 NA
ATOM      6  N   UNL     1       0.165   0.260  23.780  0.00  0.00    -0.112 NA
ATOM      7  C   UNL     1      -0.352   0.592  24.330  0.00  0.00    +0.226 A 
ATOM     29  O   UNL     1      -0.722  -0.023  24.737  0.00  0.00    -0.423 OA
BRANCH   4   3
ATOM      3  C   UNL     1      -0.654  -1.491  24.687  0.00  0.00    +0.087 C 
BRANCH   3   2
ATOM      1  C   UNL     1      -1.635  -2.529  24.714  0.00  0.00    +0.001 C 
ATOM      2  C   UNL     1      -1.440  -1.733  24.622  0.00  0.00    +0.010 C 
ENDBRANCH   3   2
ENDBRANCH   4   3
ENDBRANCH   8   7
ENDBRANCH   9   8
BRANCH  15  16
ATOM     16  C   UNL     1      -3.390   2.751  23.694  0.00  0.00    +0.076 C 
BRANCH  16  17
ATOM     17  N   UNL     1      -3.986   2.790  24.262  0.00  0.00    -0.270 NA
ATOM     18  C   UNL     1      -4.114   3.489  24.681  0.00  0.00    +0.090 C 
ATOM     19  C   UNL     1      -4.710   3.528  25.248  0.00  0.00    +0.090 C 
ATOM     20  N   UNL     1      -5.181   2.866  25.398  0.00  0.00    -0.268 NA
ATOM     24  C   UNL     1      -5.054   2.167  24.979  0.00  0.00    +0.090 C 
ATOM     25  C   UNL     1      -4.457   2.128  24.412  0.00  0.00    +0.090 C 
BRANCH  20  21
ATOM     21  C   UNL     1      -5.778   2.906  25.966  0.00  0.00    +0.108 C 
BRANCH  21  22
ATOM     22  C   UNL     1      -6.099   2.212  26.277  0.00  0.00    +0.199 C 
ATOM     23  O   UNL     1      -6.514   2.235  26.990  0.00  0.00    -0.219 OA
ENDBRANCH  21  22
ENDBRANCH  20  21
ENDBRANCH  16  17
ENDBRANCH  15  16
TORSDOF 9
ENDMDL
