MODEL 1
REMARK VINA RESULT:     -12.5      0.000      0.000
REMARK  Name = 
REMARK  5 active torsions:
REMARK  status: ('A' for Active; 'I' for Inactive)
REMARK    1  A    between atoms: O_2  and  C_3
REMARK    2  A    between atoms: C_6  and  C_7
REMARK    3  A    between atoms: C_7  and  C_8
REMARK    4  A    between atoms: N_10  and  C_11
REMARK    5  A    between atoms: N_23  and  C_24
REMARK                            x       y       z     vdW  Elec       q    Type
REMARK                         _______ _______ _______ _____ _____    ______ ____
ROOT
ATOM     11  C   UNL     1      -3.899   1.591  23.988  0.00  0.00    +0.129 A 
ATOM     12  C   UNL     1      -4.651   1.511  24.319  0.00  0.00    +0.023 A 
ATOM     13  C   UNL     1      -4.911   2.049  24.888  0.00  0.00    +0.014 A 
ATOM     14  C   UNL     1      -4.419   2.666  25.126  0.00  0.00    +0.041 A 
ATOM     15  C   UNL     1      -4.403   3.386  25.697  0.00  0.00    +0.058 C 
ATOM     16  C   UNL     1      -4.796   3.721  26.172  0.00  0.00    +0.011 C 
ATOM     17  C   UNL     1      -4.055   3.796  25.844  0.00  0.00    +0.043 C 
ATOM     18  C   UNL     1      -3.140   4.052  25.570  0.00  0.00    +0.097 C 
ATOM     19  N   UNL     1      -2.990   3.452  25.008  0.00  0.00    -0.262 N 
ATOM     20  C   UNL     1      -3.520   3.646  25.443  0.00  0.00    +0.101 C 
ATOM     21  C   UNL     1      -2.580   3.014  24.441  0.00  0.00    +0.323 C 
ATOM     22  O   UNL     1      -2.934   2.353  24.095  0.00  0.00    -0.251 OA
ATOM     23  N   UNL     1      -1.818   3.237  24.220  0.00  0.00    -0.190 NA
ATOM     30  C   UNL     1      -4.062   3.046  25.245  0.00  0.00    +0.110 C 
ATOM     31  N   UNL     1      -3.667   2.746  24.796  0.00  0.00    -0.298 N 
ATOM     32  C   UNL     1      -3.407   2.208  24.227  0.00  0.00    +0.276 A 
ATOM     33  O   UNL     1      -2.734   2.078  23.769  0.00  0.00    -0.266 OA
ENDROOT
BRANCH  23  24
ATOM     24  C   UNL     1      -1.464   3.897  24.565  0.00  0.00    +0.097 C 
ATOM     25  C   UNL     1      -1.590   4.647  24.246  0.00  0.00    +0.022 C 
ATOM     26  C   UNL     1      -1.236   5.307  24.590  0.00  0.00    +0.002 C 
ATOM     27  C   UNL     1      -0.755   5.218  25.255  0.00  0.00    +0.000 C 
ATOM     28  C   UNL     1      -0.629   4.467  25.574  0.00  0.00    +0.002 C 
ATOM     29  C   UNL     1      -0.983   3.807  25.230  0.00  0.00    +0.022 C 
ENDBRANCH  23  24
BRANCH  11  10
ATOM      8  C   UNL     1      -3.690   0.242  23.565  0.00  0.00    +0.250 C 
ATOM      9  O   UNL     1      -3.430  -0.296  22.995  0.00  0.00    -0.273 OA
ATOM     10  N   UNL     1      -3.640   1.053  23.419  0.00  0.00    -0.174 NA
BRANCH   8   7
ATOM      7  C   UNL     1      -3.999  -0.030  24.280  0.00  0.00    +0.113 C 
BRANCH   7   6
ATOM      3  C   UNL     1      -3.634  -2.380  24.968  0.00  0.00    +0.139 A 
ATOM      4  C   UNL     1      -3.310  -1.765  25.413  0.00  0.00    +0.037 A 
ATOM      5  C   UNL     1      -3.432  -0.982  25.183  0.00  0.00    -0.001 A 
ATOM      6  C   UNL     1      -3.877  -0.814  24.509  0.00  0.00    -0.013 A 
ATOM     34  C   UNL     1      -4.201  -1.429  24.064  0.00  0.00    -0.001 A 
ATOM     35  C   UNL     1      -4.079  -2.212  24.294  0.00  0.00    +0.037 A 
BRANCH   3   2
ATOM      1  C   UNL     1      -3.234  -3.714  24.651  0.00  0.00    +0.252 C 
ATOM      2  O   UNL     1      -3.512  -3.162  25.198  0.00  0.00    -0.471 OA
ENDBRANCH   3   2
ENDBRANCH   7   6
ENDBRANCH   8   7
ENDBRANCH  11  10
TORSDOF 5
ENDMDL
MODEL 2
REMARK VINA RESULT:     -11.6      2.824      4.615
REMARK  Name = 
REMARK  5 active torsions:
REMARK  status: ('A' for Active; 'I' for Inactive)
REMARK    1  A    between atoms: O_2  and  C_3
REMARK    2  A    between atoms: C_6  and  C_7
REMARK    3  A    between atoms: C_7  and  C_8
REMARK    4  A    between atoms: N_10  and  C_11
REMARK    5  A    between atoms: N_23  and  C_24
REMARK                            x       y       z     vdW  Elec       q    Type
REMARK                         _______ _______ _______ _____ _____    ______ ____
ROOT
ATOM     11  C   UNL     1      -1.396   0.772  24.967  0.00  0.00    +0.129 A 
ATOM     12  C   UNL     1      -1.131  -0.007  25.031  0.00  0.00    +0.023 A 
ATOM     13  C   UNL     1      -1.672  -0.621  25.132  0.00  0.00    +0.014 A 
ATOM     14  C   UNL     1      -2.479  -0.457  25.168  0.00  0.00    +0.041 A 
ATOM     15  C   UNL     1      -3.290  -0.879  25.267  0.00  0.00    +0.058 C 
ATOM     16  C   UNL     1      -3.572  -1.516  25.352  0.00  0.00    +0.011 C 
ATOM     17  C   UNL     1      -3.831  -0.746  25.289  0.00  0.00    +0.043 C 
ATOM     18  C   UNL     1      -4.332   0.104  25.232  0.00  0.00    +0.097 C 
ATOM     19  N   UNL     1      -3.696   0.636  25.134  0.00  0.00    -0.262 N 
ATOM     20  C   UNL     1      -3.789  -0.066  25.214  0.00  0.00    +0.101 C 
ATOM     21  C   UNL     1      -3.301   1.353  25.032  0.00  0.00    +0.323 C 
ATOM     22  O   UNL     1      -2.478   1.367  24.976  0.00  0.00    -0.251 OA
ATOM     23  N   UNL     1      -3.730   2.056  24.986  0.00  0.00    -0.190 NA
ATOM     30  C   UNL     1      -2.989  -0.296  25.185  0.00  0.00    +0.110 C 
ATOM     31  N   UNL     1      -2.745   0.322  25.104  0.00  0.00    -0.298 N 
ATOM     32  C   UNL     1      -2.204   0.936  25.003  0.00  0.00    +0.276 A 
ATOM     33  O   UNL     1      -2.216   1.756  24.918  0.00  0.00    -0.266 OA
ENDROOT
BRANCH  23  24
ATOM     24  C   UNL     1      -4.552   2.043  25.042  0.00  0.00    +0.097 C 
ATOM     25  C   UNL     1      -4.918   2.143  25.775  0.00  0.00    +0.022 C 
ATOM     26  C   UNL     1      -5.740   2.130  25.832  0.00  0.00    +0.002 C 
ATOM     27  C   UNL     1      -6.199   2.016  25.155  0.00  0.00    +0.000 C 
ATOM     28  C   UNL     1      -5.833   1.916  24.422  0.00  0.00    +0.002 C 
ATOM     29  C   UNL     1      -5.011   1.929  24.365  0.00  0.00    +0.022 C 
ENDBRANCH  23  24
BRANCH  11  10
ATOM      8  C   UNL     1      -0.190   1.275  24.391  0.00  0.00    +0.250 C 
ATOM      9  O   UNL     1       0.353   1.889  24.290  0.00  0.00    -0.273 OA
ATOM     10  N   UNL     1      -0.854   1.385  24.866  0.00  0.00    -0.174 NA
BRANCH   8   7
ATOM      7  C   UNL     1      -0.067   0.550  24.015  0.00  0.00    +0.113 C 
BRANCH   7   6
ATOM      3  C   UNL     1       1.962   0.198  22.642  0.00  0.00    +0.139 A 
ATOM      4  C   UNL     1       1.265  -0.202  22.457  0.00  0.00    +0.037 A 
ATOM      5  C   UNL     1       0.589  -0.084  22.915  0.00  0.00    -0.001 A 
ATOM      6  C   UNL     1       0.610   0.433  23.557  0.00  0.00    -0.013 A 
ATOM     34  C   UNL     1       1.308   0.832  23.742  0.00  0.00    -0.001 A 
ATOM     35  C   UNL     1       1.984   0.715  23.285  0.00  0.00    +0.037 A 
BRANCH   3   2
ATOM      1  C   UNL     1       3.349   0.441  22.398  0.00  0.00    +0.252 C 
ATOM      2  O   UNL     1       2.638   0.080  22.185  0.00  0.00    -0.471 OA
ENDBRANCH   3   2
ENDBRANCH   7   6
ENDBRANCH   8   7
ENDBRANCH  11  10
TORSDOF 5
ENDMDL
MODEL 3
REMARK VINA RESULT:     -11.4      1.458      4.762
REMARK  Name = 
REMARK  5 active torsions:
REMARK  status: ('A' for Active; 'I' for Inactive)
REMARK    1  A    between atoms: O_2  and  C_3
REMARK    2  A    between atoms: C_6  and  C_7
REMARK    3  A    between atoms: C_7  and  C_8
REMARK    4  A    between atoms: N_10  and  C_11
REMARK    5  A    between atoms: N_23  and  C_24
REMARK                            x       y       z     vdW  Elec       q    Type
REMARK                         _______ _______ _______ _____ _____    ______ ____
ROOT
ATOM     11  C   UNL     1      -2.922   2.085  23.967  0.00  0.00    +0.129 A 
ATOM     12  C   UNL     1      -3.394   2.701  24.248  0.00  0.00    +0.023 A 
ATOM     13  C   UNL     1      -4.106   2.536  24.629  0.00  0.00    +0.014 A 
ATOM     14  C   UNL     1      -4.348   1.753  24.728  0.00  0.00    +0.041 A 
ATOM     15  C   UNL     1      -5.037   1.259  25.083  0.00  0.00    +0.058 C 
ATOM     16  C   UNL     1      -5.649   1.330  25.418  0.00  0.00    +0.011 C 
ATOM     17  C   UNL     1      -5.182   0.724  25.140  0.00  0.00    +0.043 C 
ATOM     18  C   UNL     1      -4.763  -0.132  24.878  0.00  0.00    +0.097 C 
ATOM     19  N   UNL     1      -4.070   0.157  24.513  0.00  0.00    -0.262 N 
ATOM     20  C   UNL     1      -4.645   0.424  24.837  0.00  0.00    +0.101 C 
ATOM     21  C   UNL     1      -3.345   0.143  24.119  0.00  0.00    +0.323 C 
ATOM     22  O   UNL     1      -2.960   0.851  23.938  0.00  0.00    -0.251 OA
ATOM     23  N   UNL     1      -3.005  -0.577  23.905  0.00  0.00    -0.190 NA
ATOM     30  C   UNL     1      -4.458   1.232  24.767  0.00  0.00    +0.110 C 
ATOM     31  N   UNL     1      -3.877   1.137  24.448  0.00  0.00    -0.298 N 
ATOM     32  C   UNL     1      -3.164   1.303  24.067  0.00  0.00    +0.276 A 
ATOM     33  O   UNL     1      -2.546   0.886  23.715  0.00  0.00    -0.266 OA
ENDROOT
BRANCH  23  24
ATOM     24  C   UNL     1      -3.388  -1.284  24.085  0.00  0.00    +0.097 C 
ATOM     25  C   UNL     1      -3.212  -1.683  24.786  0.00  0.00    +0.022 C 
ATOM     26  C   UNL     1      -3.595  -2.390  24.966  0.00  0.00    +0.002 C 
ATOM     27  C   UNL     1      -4.156  -2.700  24.446  0.00  0.00    +0.000 C 
ATOM     28  C   UNL     1      -4.333  -2.301  23.746  0.00  0.00    +0.002 C 
ATOM     29  C   UNL     1      -3.950  -1.594  23.565  0.00  0.00    +0.022 C 
ENDBRANCH  23  24
BRANCH  11  10
ATOM      8  C   UNL     1      -1.590   2.599  24.005  0.00  0.00    +0.250 C 
ATOM      9  O   UNL     1      -0.877   2.765  23.624  0.00  0.00    -0.273 OA
ATOM     10  N   UNL     1      -2.210   2.252  23.587  0.00  0.00    -0.174 NA
BRANCH   8   7
ATOM      7  C   UNL     1      -1.682   2.780  24.805  0.00  0.00    +0.113 C 
BRANCH   7   6
ATOM      3  C   UNL     1       0.286   2.787  26.306  0.00  0.00    +0.139 A 
ATOM      4  C   UNL     1      -0.131   2.087  26.176  0.00  0.00    +0.037 A 
ATOM      5  C   UNL     1      -0.787   2.085  25.676  0.00  0.00    -0.001 A 
ATOM      6  C   UNL     1      -1.026   2.782  25.306  0.00  0.00    -0.013 A 
ATOM     34  C   UNL     1      -0.608   3.482  25.435  0.00  0.00    -0.001 A 
ATOM     35  C   UNL     1       0.048   3.484  25.935  0.00  0.00    +0.037 A 
BRANCH   3   2
ATOM      1  C   UNL     1       0.848   2.625  27.609  0.00  0.00    +0.252 C 
ATOM      2  O   UNL     1       0.942   2.789  26.806  0.00  0.00    -0.471 OA
ENDBRANCH   3   2
ENDBRANCH   7   6
ENDBRANCH   8   7
ENDBRANCH  11  10
TORSDOF 5
ENDMDL
MODEL 4
REMARK VINA RESULT:     -11.2      2.794      4.176
REMARK  Name = 
REMARK  5 active torsions:
REMARK  status: ('A' for Active; 'I' for Inactive)
REMARK    1  A    between atoms: O_2  and  C_3
REMARK    2  A    between atoms: C_6  and  C_7
REMARK    3  A    between atoms: C_7  and  C_8
REMARK    4  A    between atoms: N_10  and  C_11
REMARK    5  A    between atoms: N_23  and  C_24
REMARK                            x       y       z     vdW  Elec       q    Type
REMARK                         _______ _______ _______ _____ _____    ______ ____
ROOT
ATOM     11  C   UNL     1      -1.073   1.517  25.206  0.00  0.00    +0.129 A 
ATOM     12  C   UNL     1      -0.461   2.065  25.278  0.00  0.00    +0.023 A 
ATOM     13  C   UNL     1      -0.632   2.870  25.335  0.00  0.00    +0.014 A 
ATOM     14  C   UNL     1      -1.416   3.127  25.319  0.00  0.00    +0.041 A 
ATOM     15  C   UNL     1      -1.915   3.897  25.358  0.00  0.00    +0.058 C 
ATOM     16  C   UNL     1      -1.849   4.594  25.417  0.00  0.00    +0.011 C 
ATOM     17  C   UNL     1      -2.451   4.050  25.346  0.00  0.00    +0.043 C 
ATOM     18  C   UNL     1      -3.304   3.556  25.268  0.00  0.00    +0.097 C 
ATOM     19  N   UNL     1      -3.009   2.776  25.219  0.00  0.00    -0.262 N 
ATOM     20  C   UNL     1      -2.747   3.435  25.283  0.00  0.00    +0.101 C 
ATOM     21  C   UNL     1      -3.017   1.953  25.152  0.00  0.00    +0.323 C 
ATOM     22  O   UNL     1      -2.306   1.533  25.151  0.00  0.00    -0.251 OA
ATOM     23  N   UNL     1      -3.734   1.551  25.087  0.00  0.00    -0.190 NA
ATOM     30  C   UNL     1      -1.938   3.240  25.305  0.00  0.00    +0.110 C 
ATOM     31  N   UNL     1      -2.028   2.579  25.248  0.00  0.00    -0.298 N 
ATOM     32  C   UNL     1      -1.857   1.774  25.191  0.00  0.00    +0.276 A 
ATOM     33  O   UNL     1      -2.269   1.063  25.115  0.00  0.00    -0.266 OA
ENDROOT
BRANCH  23  24
ATOM     24  C   UNL     1      -4.444   1.971  25.089  0.00  0.00    +0.097 C 
ATOM     25  C   UNL     1      -4.838   2.114  25.799  0.00  0.00    +0.022 C 
ATOM     26  C   UNL     1      -5.547   2.533  25.801  0.00  0.00    +0.002 C 
ATOM     27  C   UNL     1      -5.865   2.810  25.091  0.00  0.00    +0.000 C 
ATOM     28  C   UNL     1      -5.471   2.667  24.381  0.00  0.00    +0.002 C 
ATOM     29  C   UNL     1      -4.762   2.248  24.379  0.00  0.00    +0.022 C 
ENDBRANCH  23  24
BRANCH  11  10
ATOM      8  C   UNL     1      -0.314   0.451  24.633  0.00  0.00    +0.250 C 
ATOM      9  O   UNL     1      -0.142  -0.355  24.577  0.00  0.00    -0.273 OA
ATOM     10  N   UNL     1      -0.901   0.713  25.150  0.00  0.00    -0.174 NA
BRANCH   8   7
ATOM      7  C   UNL     1       0.103   0.995  24.173  0.00  0.00    +0.113 C 
BRANCH   7   6
ATOM      3  C   UNL     1       1.885   0.212  22.644  0.00  0.00    +0.139 A 
ATOM      4  C   UNL     1       2.055   0.778  23.220  0.00  0.00    +0.037 A 
ATOM      5  C   UNL     1       1.461   1.038  23.730  0.00  0.00    -0.001 A 
ATOM      6  C   UNL     1       0.697   0.734  23.663  0.00  0.00    -0.013 A 
ATOM     34  C   UNL     1       0.527   0.169  23.086  0.00  0.00    -0.001 A 
ATOM     35  C   UNL     1       1.121  -0.092  22.577  0.00  0.00    +0.037 A 
BRANCH   3   2
ATOM      1  C   UNL     1       3.256   0.207  22.243  0.00  0.00    +0.252 C 
ATOM      2  O   UNL     1       2.479  -0.048  22.134  0.00  0.00    -0.471 OA
ENDBRANCH   3   2
ENDBRANCH   7   6
ENDBRANCH   8   7
ENDBRANCH  11  10
TORSDOF 5
ENDMDL
MODEL 5
REMARK VINA RESULT:     -11.2      2.324      4.129
REMARK  Name = 
REMARK  5 active torsions:
REMARK  status: ('A' for Active; 'I' for Inactive)
REMARK    1  A    between atoms: O_2  and  C_3
REMARK    2  A    between atoms: C_6  and  C_7
REMARK    3  A    between atoms: C_7  and  C_8
REMARK    4  A    between atoms: N_10  and  C_11
REMARK    5  A    between atoms: N_23  and  C_24
REMARK                            x       y       z     vdW  Elec       q    Type
REMARK                         _______ _______ _______ _____ _____    ______ ____
ROOT
ATOM     11  C   UNL     1      -2.196   3.241  24.453  0.00  0.00    +0.129 A 
ATOM     12  C   UNL     1      -2.108   3.762  25.087  0.00  0.00    +0.023 A 
ATOM     13  C   UNL     1      -1.490   3.659  25.623  0.00  0.00    +0.014 A 
ATOM     14  C   UNL     1      -0.959   3.036  25.526  0.00  0.00    +0.041 A 
ATOM     15  C   UNL     1      -0.214   2.665  25.916  0.00  0.00    +0.058 C 
ATOM     16  C   UNL     1       0.223   2.750  26.458  0.00  0.00    +0.011 C 
ATOM     17  C   UNL     1       0.133   2.237  25.831  0.00  0.00    +0.043 C 
ATOM     18  C   UNL     1       0.192   1.524  25.150  0.00  0.00    +0.097 C 
ATOM     19  N   UNL     1      -0.466   1.728  24.677  0.00  0.00    -0.262 N 
ATOM     20  C   UNL     1      -0.144   1.970  25.265  0.00  0.00    +0.101 C 
ATOM     21  C   UNL     1      -1.014   1.685  24.062  0.00  0.00    +0.323 C 
ATOM     22  O   UNL     1      -1.621   2.242  24.011  0.00  0.00    -0.251 OA
ATOM     23  N   UNL     1      -0.956   1.085  23.499  0.00  0.00    -0.190 NA
ATOM     30  C   UNL     1      -0.645   2.617  25.417  0.00  0.00    +0.110 C 
ATOM     31  N   UNL     1      -1.047   2.514  24.892  0.00  0.00    -0.298 N 
ATOM     32  C   UNL     1      -1.665   2.617  24.356  0.00  0.00    +0.276 A 
ATOM     33  O   UNL     1      -1.953   2.251  23.675  0.00  0.00    -0.266 OA
ENDROOT
BRANCH  23  24
ATOM     24  C   UNL     1      -0.350   0.528  23.550  0.00  0.00    +0.097 C 
ATOM     25  C   UNL     1      -0.461  -0.164  23.984  0.00  0.00    +0.022 C 
ATOM     26  C   UNL     1       0.144  -0.721  24.035  0.00  0.00    +0.002 C 
ATOM     27  C   UNL     1       0.863  -0.586  23.652  0.00  0.00    +0.000 C 
ATOM     28  C   UNL     1       0.974   0.107  23.218  0.00  0.00    +0.002 C 
ATOM     29  C   UNL     1       0.369   0.664  23.167  0.00  0.00    +0.022 C 
ENDBRANCH  23  24
BRANCH  11  10
ATOM      8  C   UNL     1      -3.595   3.349  24.184  0.00  0.00    +0.250 C 
ATOM      9  O   UNL     1      -4.214   3.453  23.647  0.00  0.00    -0.273 OA
ATOM     10  N   UNL     1      -2.814   3.344  23.917  0.00  0.00    -0.174 NA
BRANCH   8   7
ATOM      7  C   UNL     1      -3.757   3.250  24.987  0.00  0.00    +0.113 C 
BRANCH   7   6
ATOM      3  C   UNL     1      -5.932   2.308  25.701  0.00  0.00    +0.139 A 
ATOM      4  C   UNL     1      -5.791   3.118  25.769  0.00  0.00    +0.037 A 
ATOM      5  C   UNL     1      -5.066   3.432  25.531  0.00  0.00    -0.001 A 
ATOM      6  C   UNL     1      -4.483   2.936  25.225  0.00  0.00    -0.013 A 
ATOM     34  C   UNL     1      -4.624   2.126  25.156  0.00  0.00    -0.001 A 
ATOM     35  C   UNL     1      -5.348   1.812  25.394  0.00  0.00    +0.037 A 
BRANCH   3   2
ATOM      1  C   UNL     1      -6.724   1.624  26.672  0.00  0.00    +0.252 C 
ATOM      2  O   UNL     1      -6.657   1.995  25.939  0.00  0.00    -0.471 OA
ENDBRANCH   3   2
ENDBRANCH   7   6
ENDBRANCH   8   7
ENDBRANCH  11  10
TORSDOF 5
ENDMDL
MODEL 6
REMARK VINA RESULT:     -10.9      1.949      5.784
REMARK  Name = 
REMARK  5 active torsions:
REMARK  status: ('A' for Active; 'I' for Inactive)
REMARK    1  A    between atoms: O_2  and  C_3
REMARK    2  A    between atoms: C_6  and  C_7
REMARK    3  A    between atoms: C_7  and  C_8
REMARK    4  A    between atoms: N_10  and  C_11
REMARK    5  A    between atoms: N_23  and  C_24
REMARK                            x       y       z     vdW  Elec       q    Type
REMARK                         _______ _______ _______ _____ _____    ______ ____
ROOT
ATOM     11  C   UNL     1      -1.822   1.159  23.800  0.00  0.00    +0.129 A 
ATOM     12  C   UNL     1      -1.017   1.337  23.797  0.00  0.00    +0.023 A 
ATOM     13  C   UNL     1      -0.466   0.763  24.016  0.00  0.00    +0.014 A 
ATOM     14  C   UNL     1      -0.721   0.011  24.238  0.00  0.00    +0.041 A 
ATOM     15  C   UNL     1      -0.392  -0.801  24.517  0.00  0.00    +0.058 C 
ATOM     16  C   UNL     1       0.211  -1.130  24.662  0.00  0.00    +0.011 C 
ATOM     17  C   UNL     1      -0.585  -1.303  24.663  0.00  0.00    +0.043 C 
ATOM     18  C   UNL     1      -1.488  -1.699  24.728  0.00  0.00    +0.097 C 
ATOM     19  N   UNL     1      -1.947  -1.042  24.489  0.00  0.00    -0.262 N 
ATOM     20  C   UNL     1      -1.258  -1.197  24.585  0.00  0.00    +0.101 C 
ATOM     21  C   UNL     1      -2.617  -0.598  24.303  0.00  0.00    +0.323 C 
ATOM     22  O   UNL     1      -2.538   0.187  24.060  0.00  0.00    -0.251 OA
ATOM     23  N   UNL     1      -3.366  -0.939  24.361  0.00  0.00    -0.190 NA
ATOM     30  C   UNL     1      -0.938  -0.459  24.372  0.00  0.00    +0.110 C 
ATOM     31  N   UNL     1      -1.527  -0.168  24.240  0.00  0.00    -0.298 N 
ATOM     32  C   UNL     1      -2.077   0.406  24.021  0.00  0.00    +0.276 A 
ATOM     33  O   UNL     1      -2.896   0.473  23.945  0.00  0.00    -0.266 OA
ENDROOT
BRANCH  23  24
ATOM     24  C   UNL     1      -3.445  -1.723  24.604  0.00  0.00    +0.097 C 
ATOM     25  C   UNL     1      -3.514  -2.324  24.043  0.00  0.00    +0.022 C 
ATOM     26  C   UNL     1      -3.593  -3.107  24.286  0.00  0.00    +0.002 C 
ATOM     27  C   UNL     1      -3.605  -3.291  25.090  0.00  0.00    +0.000 C 
ATOM     28  C   UNL     1      -3.536  -2.690  25.651  0.00  0.00    +0.002 C 
ATOM     29  C   UNL     1      -3.457  -1.907  25.409  0.00  0.00    +0.022 C 
ENDBRANCH  23  24
BRANCH  11  10
ATOM      8  C   UNL     1      -2.300   2.503  23.866  0.00  0.00    +0.250 C 
ATOM      9  O   UNL     1      -2.851   3.078  23.646  0.00  0.00    -0.273 OA
ATOM     10  N   UNL     1      -2.372   1.733  23.581  0.00  0.00    -0.174 NA
BRANCH   8   7
ATOM      7  C   UNL     1      -1.677   2.700  24.370  0.00  0.00    +0.113 C 
BRANCH   7   6
ATOM      3  C   UNL     1      -1.418   5.030  25.163  0.00  0.00    +0.139 A 
ATOM      4  C   UNL     1      -0.877   4.715  24.627  0.00  0.00    +0.037 A 
ATOM      5  C   UNL     1      -0.964   3.938  24.362  0.00  0.00    -0.001 A 
ATOM      6  C   UNL     1      -1.591   3.477  24.635  0.00  0.00    -0.013 A 
ATOM     34  C   UNL     1      -2.132   3.793  25.172  0.00  0.00    -0.001 A 
ATOM     35  C   UNL     1      -2.046   4.569  25.436  0.00  0.00    +0.037 A 
BRANCH   3   2
ATOM      1  C   UNL     1      -1.763   6.414  25.072  0.00  0.00    +0.252 C 
ATOM      2  O   UNL     1      -1.332   5.807  25.428  0.00  0.00    -0.471 OA
ENDBRANCH   3   2
ENDBRANCH   7   6
ENDBRANCH   8   7
ENDBRANCH  11  10
TORSDOF 5
ENDMDL
MODEL 7
REMARK VINA RESULT:     -10.9      4.198      5.856
REMARK  Name = 
REMARK  5 active torsions:
REMARK  status: ('A' for Active; 'I' for Inactive)
REMARK    1  A    between atoms: O_2  and  C_3
REMARK    2  A    between atoms: C_6  and  C_7
REMARK    3  A    between atoms: C_7  and  C_8
REMARK    4  A    between atoms: N_10  and  C_11
REMARK    5  A    between atoms: N_23  and  C_24
REMARK                            x       y       z     vdW  Elec       q    Type
REMARK                         _______ _______ _______ _____ _____    ______ ____
ROOT
ATOM     11  C   UNL     1       0.531   0.603  23.463  0.00  0.00    +0.129 A 
ATOM     12  C   UNL     1       0.908   1.310  23.659  0.00  0.00    +0.023 A 
ATOM     13  C   UNL     1       0.610   1.782  24.266  0.00  0.00    +0.014 A 
ATOM     14  C   UNL     1      -0.065   1.548  24.677  0.00  0.00    +0.041 A 
ATOM     15  C   UNL     1      -0.618   1.823  25.358  0.00  0.00    +0.058 C 
ATOM     16  C   UNL     1      -0.705   2.344  25.819  0.00  0.00    +0.011 C 
ATOM     17  C   UNL     1      -1.076   1.646  25.622  0.00  0.00    +0.043 C 
ATOM     18  C   UNL     1      -1.655   0.850  25.535  0.00  0.00    +0.097 C 
ATOM     19  N   UNL     1      -1.264   0.460  24.909  0.00  0.00    -0.262 N 
ATOM     20  C   UNL     1      -1.187   1.059  25.286  0.00  0.00    +0.101 C 
ATOM     21  C   UNL     1      -1.105  -0.119  24.343  0.00  0.00    +0.323 C 
ATOM     22  O   UNL     1      -0.454  -0.038  23.841  0.00  0.00    -0.251 OA
ATOM     23  N   UNL     1      -1.595  -0.779  24.279  0.00  0.00    -0.190 NA
ATOM     30  C   UNL     1      -0.504   1.350  24.910  0.00  0.00    +0.110 C 
ATOM     31  N   UNL     1      -0.443   0.841  24.480  0.00  0.00    -0.298 N 
ATOM     32  C   UNL     1      -0.145   0.368  23.873  0.00  0.00    +0.276 A 
ATOM     33  O   UNL     1      -0.330  -0.346  23.506  0.00  0.00    -0.266 OA
ENDROOT
BRANCH  23  24
ATOM     24  C   UNL     1      -2.245  -0.861  24.780  0.00  0.00    +0.097 C 
ATOM     25  C   UNL     1      -2.160  -1.243  25.506  0.00  0.00    +0.022 C 
ATOM     26  C   UNL     1      -2.809  -1.325  26.008  0.00  0.00    +0.002 C 
ATOM     27  C   UNL     1      -3.544  -1.025  25.784  0.00  0.00    +0.000 C 
ATOM     28  C   UNL     1      -3.629  -0.642  25.058  0.00  0.00    +0.002 C 
ATOM     29  C   UNL     1      -2.980  -0.560  24.556  0.00  0.00    +0.022 C 
ENDBRANCH  23  24
BRANCH  11  10
ATOM      8  C   UNL     1       1.639   0.126  22.697  0.00  0.00    +0.250 C 
ATOM      9  O   UNL     1       1.937  -0.347  22.089  0.00  0.00    -0.273 OA
ATOM     10  N   UNL     1       0.829   0.131  22.856  0.00  0.00    -0.174 NA
BRANCH   8   7
ATOM      7  C   UNL     1       2.150   0.592  23.146  0.00  0.00    +0.113 C 
BRANCH   7   6
ATOM      3  C   UNL     1       4.598   0.273  22.962  0.00  0.00    +0.139 A 
ATOM      4  C   UNL     1       4.248   0.958  22.664  0.00  0.00    +0.037 A 
ATOM      5  C   UNL     1       3.432   1.065  22.725  0.00  0.00    -0.001 A 
ATOM      6  C   UNL     1       2.967   0.486  23.085  0.00  0.00    -0.013 A 
ATOM     34  C   UNL     1       3.317  -0.199  23.383  0.00  0.00    -0.001 A 
ATOM     35  C   UNL     1       4.132  -0.305  23.321  0.00  0.00    +0.037 A 
BRANCH   3   2
ATOM      1  C   UNL     1       5.833  -0.173  23.524  0.00  0.00    +0.252 C 
ATOM      2  O   UNL     1       5.413   0.167  22.900  0.00  0.00    -0.471 OA
ENDBRANCH   3   2
ENDBRANCH   7   6
ENDBRANCH   8   7
ENDBRANCH  11  10
TORSDOF 5
ENDMDL
MODEL 8
REMARK VINA RESULT:     -10.9      1.988      3.007
REMARK  Name = 
REMARK  5 active torsions:
REMARK  status: ('A' for Active; 'I' for Inactive)
REMARK    1  A    between atoms: O_2  and  C_3
REMARK    2  A    between atoms: C_6  and  C_7
REMARK    3  A    between atoms: C_7  and  C_8
REMARK    4  A    between atoms: N_10  and  C_11
REMARK    5  A    between atoms: N_23  and  C_24
REMARK                            x       y       z     vdW  Elec       q    Type
REMARK                         _______ _______ _______ _____ _____    ______ ____
ROOT
ATOM     11  C   UNL     1      -1.386   0.099  25.490  0.00  0.00    +0.129 A 
ATOM     12  C   UNL     1      -0.856  -0.413  25.118  0.00  0.00    +0.023 A 
ATOM     13  C   UNL     1      -0.272  -0.111  24.620  0.00  0.00    +0.014 A 
ATOM     14  C   UNL     1      -0.218   0.702  24.494  0.00  0.00    +0.041 A 
ATOM     15  C   UNL     1       0.281   1.321  24.032  0.00  0.00    +0.058 C 
ATOM     16  C   UNL     1       0.825   1.371  23.591  0.00  0.00    +0.011 C 
ATOM     17  C   UNL     1       0.300   1.873  23.960  0.00  0.00    +0.043 C 
ATOM     18  C   UNL     1      -0.232   2.630  24.308  0.00  0.00    +0.097 C 
ATOM     19  N   UNL     1      -0.775   2.211  24.786  0.00  0.00    -0.262 N 
ATOM     20  C   UNL     1      -0.224   2.062  24.360  0.00  0.00    +0.101 C 
ATOM     21  C   UNL     1      -1.405   2.083  25.303  0.00  0.00    +0.323 C 
ATOM     22  O   UNL     1      -1.597   1.314  25.536  0.00  0.00    -0.251 OA
ATOM     23  N   UNL     1      -1.842   2.721  25.588  0.00  0.00    -0.190 NA
ATOM     30  C   UNL     1      -0.226   1.234  24.446  0.00  0.00    +0.110 C 
ATOM     31  N   UNL     1      -0.748   1.214  24.866  0.00  0.00    -0.298 N 
ATOM     32  C   UNL     1      -1.332   0.912  25.364  0.00  0.00    +0.276 A 
ATOM     33  O   UNL     1      -1.949   1.200  25.829  0.00  0.00    -0.266 OA
ENDROOT
BRANCH  23  24
ATOM     24  C   UNL     1      -1.649   3.489  25.356  0.00  0.00    +0.097 C 
ATOM     25  C   UNL     1      -2.051   3.843  24.728  0.00  0.00    +0.022 C 
ATOM     26  C   UNL     1      -1.859   4.610  24.496  0.00  0.00    +0.002 C 
ATOM     27  C   UNL     1      -1.265   5.025  24.891  0.00  0.00    +0.000 C 
ATOM     28  C   UNL     1      -0.864   4.671  25.519  0.00  0.00    +0.002 C 
ATOM     29  C   UNL     1      -1.055   3.904  25.752  0.00  0.00    +0.022 C 
ENDBRANCH  23  24
BRANCH  11  10
ATOM      8  C   UNL     1      -2.470  -0.802  25.722  0.00  0.00    +0.250 C 
ATOM      9  O   UNL     1      -3.055  -1.105  26.221  0.00  0.00    -0.273 OA
ATOM     10  N   UNL     1      -1.970  -0.204  25.988  0.00  0.00    -0.174 NA
BRANCH   8   7
ATOM      7  C   UNL     1      -2.387  -1.100  24.956  0.00  0.00    +0.113 C 
BRANCH   7   6
ATOM      3  C   UNL     1      -4.220  -2.413  23.934  0.00  0.00    +0.139 A 
ATOM      4  C   UNL     1      -3.594  -2.799  24.309  0.00  0.00    +0.037 A 
ATOM      5  C   UNL     1      -2.984  -2.362  24.650  0.00  0.00    -0.001 A 
ATOM      6  C   UNL     1      -2.999  -1.537  24.615  0.00  0.00    -0.013 A 
ATOM     34  C   UNL     1      -3.624  -1.151  24.241  0.00  0.00    -0.001 A 
ATOM     35  C   UNL     1      -4.234  -1.588  23.900  0.00  0.00    +0.037 A 
BRANCH   3   2
ATOM      1  C   UNL     1      -4.660  -3.549  23.190  0.00  0.00    +0.252 C 
ATOM      2  O   UNL     1      -4.830  -2.850  23.594  0.00  0.00    -0.471 OA
ENDBRANCH   3   2
ENDBRANCH   7   6
ENDBRANCH   8   7
ENDBRANCH  11  10
TORSDOF 5
ENDMDL
MODEL 9
REMARK VINA RESULT:     -10.7      1.686      5.202
REMARK  Name = 
REMARK  5 active torsions:
REMARK  status: ('A' for Active; 'I' for Inactive)
REMARK    1  A    between atoms: O_2  and  C_3
REMARK    2  A    between atoms: C_6  and  C_7
REMARK    3  A    between atoms: C_7  and  C_8
REMARK    4  A    between atoms: N_10  and  C_11
REMARK    5  A    between atoms: N_23  and  C_24
REMARK                            x       y       z     vdW  Elec       q    Type
REMARK                         _______ _______ _______ _____ _____    ______ ____
ROOT
ATOM     11  C   UNL     1      -2.541   1.487  24.069  0.00  0.00    +0.129 A 
ATOM     12  C   UNL     1      -1.959   1.920  24.463  0.00  0.00    +0.023 A 
ATOM     13  C   UNL     1      -1.460   1.545  25.002  0.00  0.00    +0.014 A 
ATOM     14  C   UNL     1      -1.542   0.738  25.147  0.00  0.00    +0.041 A 
ATOM     15  C   UNL     1      -1.175   0.062  25.651  0.00  0.00    +0.058 C 
ATOM     16  C   UNL     1      -0.672  -0.060  26.125  0.00  0.00    +0.011 C 
ATOM     17  C   UNL     1      -1.248  -0.484  25.735  0.00  0.00    +0.043 C 
ATOM     18  C   UNL     1      -1.872  -1.158  25.369  0.00  0.00    +0.097 C 
ATOM     19  N   UNL     1      -2.313  -0.674  24.852  0.00  0.00    -0.262 N 
ATOM     20  C   UNL     1      -1.771  -0.601  25.307  0.00  0.00    +0.101 C 
ATOM     21  C   UNL     1      -2.884  -0.463  24.294  0.00  0.00    +0.323 C 
ATOM     22  O   UNL     1      -2.939   0.319  24.035  0.00  0.00    -0.251 OA
ATOM     23  N   UNL     1      -3.399  -1.034  23.996  0.00  0.00    -0.190 NA
ATOM     30  C   UNL     1      -1.638   0.215  25.205  0.00  0.00    +0.110 C 
ATOM     31  N   UNL     1      -2.124   0.305  24.754  0.00  0.00    -0.298 N 
ATOM     32  C   UNL     1      -2.624   0.679  24.215  0.00  0.00    +0.276 A 
ATOM     33  O   UNL     1      -3.251   0.479  23.719  0.00  0.00    -0.266 OA
ENDROOT
BRANCH  23  24
ATOM     24  C   UNL     1      -3.345  -1.815  24.254  0.00  0.00    +0.097 C 
ATOM     25  C   UNL     1      -2.860  -2.349  23.854  0.00  0.00    +0.022 C 
ATOM     26  C   UNL     1      -2.805  -3.130  24.112  0.00  0.00    +0.002 C 
ATOM     27  C   UNL     1      -3.235  -3.378  24.771  0.00  0.00    +0.000 C 
ATOM     28  C   UNL     1      -3.720  -2.844  25.171  0.00  0.00    +0.002 C 
ATOM     29  C   UNL     1      -3.775  -2.063  24.914  0.00  0.00    +0.022 C 
ENDBRANCH  23  24
BRANCH  11  10
ATOM      8  C   UNL     1      -3.522   2.484  23.778  0.00  0.00    +0.250 C 
ATOM      9  O   UNL     1      -4.022   2.860  23.238  0.00  0.00    -0.273 OA
ATOM     10  N   UNL     1      -3.040   1.862  23.530  0.00  0.00    -0.174 NA
BRANCH   8   7
ATOM      7  C   UNL     1      -3.506   2.731  24.565  0.00  0.00    +0.113 C 
BRANCH   7   6
ATOM      3  C   UNL     1      -5.428   3.969  25.513  0.00  0.00    +0.139 A 
ATOM      4  C   UNL     1      -5.452   3.146  25.463  0.00  0.00    +0.037 A 
ATOM      5  C   UNL     1      -4.811   2.733  25.148  0.00  0.00    -0.001 A 
ATOM      6  C   UNL     1      -4.147   3.144  24.881  0.00  0.00    -0.013 A 
ATOM     34  C   UNL     1      -4.123   3.967  24.931  0.00  0.00    -0.001 A 
ATOM     35  C   UNL     1      -4.763   4.380  25.247  0.00  0.00    +0.037 A 
BRANCH   3   2
ATOM      1  C   UNL     1      -6.237   5.145  25.567  0.00  0.00    +0.252 C 
ATOM      2  O   UNL     1      -6.068   4.381  25.829  0.00  0.00    -0.471 OA
ENDBRANCH   3   2
ENDBRANCH   7   6
ENDBRANCH   8   7
ENDBRANCH  11  10
TORSDOF 5
ENDMDL
MODEL 10
REMARK VINA RESULT:     -10.3      2.634      4.551
REMARK  Name = 
REMARK  5 active torsions:
REMARK  status: ('A' for Active; 'I' for Inactive)
REMARK    1  A    between atoms: O_2  and  C_3
REMARK    2  A    between atoms: C_6  and  C_7
REMARK    3  A    between atoms: C_7  and  C_8
REMARK    4  A    between atoms: N_10  and  C_11
REMARK    5  A    between atoms: N_23  and  C_24
REMARK                            x       y       z     vdW  Elec       q    Type
REMARK                         _______ _______ _______ _____ _____    ______ ____
ROOT
ATOM     11  C   UNL     1      -2.742   0.780  23.985  0.00  0.00    +0.129 A 
ATOM     12  C   UNL     1      -3.159   0.371  24.568  0.00  0.00    +0.023 A 
ATOM     13  C   UNL     1      -2.769  -0.177  25.047  0.00  0.00    +0.014 A 
ATOM     14  C   UNL     1      -1.963  -0.316  24.942  0.00  0.00    +0.041 A 
ATOM     15  C   UNL     1      -1.276  -0.824  25.281  0.00  0.00    +0.058 C 
ATOM     16  C   UNL     1      -1.139  -1.308  25.770  0.00  0.00    +0.011 C 
ATOM     17  C   UNL     1      -0.731  -0.903  25.193  0.00  0.00    +0.043 C 
ATOM     18  C   UNL     1      -0.075  -0.520  24.562  0.00  0.00    +0.097 C 
ATOM     19  N   UNL     1      -0.572   0.005  24.143  0.00  0.00    -0.262 N 
ATOM     20  C   UNL     1      -0.630  -0.463  24.677  0.00  0.00    +0.101 C 
ATOM     21  C   UNL     1      -0.800   0.574  23.590  0.00  0.00    +0.323 C 
ATOM     22  O   UNL     1      -1.584   0.829  23.560  0.00  0.00    -0.251 OA
ATOM     23  N   UNL     1      -0.243   0.886  23.068  0.00  0.00    -0.190 NA
ATOM     30  C   UNL     1      -1.442  -0.368  24.832  0.00  0.00    +0.110 C 
ATOM     31  N   UNL     1      -1.546   0.093  24.358  0.00  0.00    -0.298 N 
ATOM     32  C   UNL     1      -1.936   0.641  23.880  0.00  0.00    +0.276 A 
ATOM     33  O   UNL     1      -1.753   1.152  23.259  0.00  0.00    -0.266 OA
ENDROOT
BRANCH  23  24
ATOM     24  C   UNL     1       0.540   0.631  23.098  0.00  0.00    +0.097 C 
ATOM     25  C   UNL     1       0.777  -0.027  22.661  0.00  0.00    +0.022 C 
ATOM     26  C   UNL     1       1.560  -0.283  22.691  0.00  0.00    +0.002 C 
ATOM     27  C   UNL     1       2.108   0.120  23.157  0.00  0.00    +0.000 C 
ATOM     28  C   UNL     1       1.872   0.779  23.594  0.00  0.00    +0.002 C 
ATOM     29  C   UNL     1       1.089   1.035  23.565  0.00  0.00    +0.022 C 
ENDBRANCH  23  24
BRANCH  11  10
ATOM      8  C   UNL     1      -3.687   1.841  23.837  0.00  0.00    +0.250 C 
ATOM      9  O   UNL     1      -4.077   2.389  23.358  0.00  0.00    -0.273 OA
ATOM     10  N   UNL     1      -3.132   1.327  23.508  0.00  0.00    -0.174 NA
BRANCH   8   7
ATOM      7  C   UNL     1      -3.851   1.808  24.645  0.00  0.00    +0.113 C 
BRANCH   7   6
ATOM      3  C   UNL     1      -5.374   3.471  25.666  0.00  0.00    +0.139 A 
ATOM      4  C   UNL     1      -4.569   3.638  25.596  0.00  0.00    +0.037 A 
ATOM      5  C   UNL     1      -4.061   3.083  25.255  0.00  0.00    -0.001 A 
ATOM      6  C   UNL     1      -4.359   2.363  24.985  0.00  0.00    -0.013 A 
ATOM     34  C   UNL     1      -5.164   2.196  25.056  0.00  0.00    -0.001 A 
ATOM     35  C   UNL     1      -5.671   2.751  25.396  0.00  0.00    +0.037 A 
BRANCH   3   2
ATOM      1  C   UNL     1      -6.065   4.719  25.599  0.00  0.00    +0.252 C 
ATOM      2  O   UNL     1      -5.881   4.026  26.006  0.00  0.00    -0.471 OA
ENDBRANCH   3   2
ENDBRANCH   7   6
ENDBRANCH   8   7
ENDBRANCH  11  10
TORSDOF 5
ENDMDL
