MODEL 1
REMARK VINA RESULT:     -12.9      0.000      0.000
REMARK  Name = 
REMARK  5 active torsions:
REMARK  status: ('A' for Active; 'I' for Inactive)
REMARK    1  A    between atoms: C_2  and  C_4
REMARK    2  A    between atoms: C_7  and  C_8
REMARK    3  A    between atoms: C_8  and  N_9
REMARK    4  A    between atoms: C_12  and  C_14
REMARK    5  A    between atoms: C_17  and  C_19
REMARK                            x       y       z     vdW  Elec       q    Type
REMARK                         _______ _______ _______ _____ _____    ______ ____
ROOT
ATOM      9  N   UNL     1      -3.234   3.299  24.778  0.00  0.00    -0.268 NA
ATOM     10  C   UNL     1      -3.877   3.496  24.301  0.00  0.00    +0.073 C 
ATOM     11  C   UNL     1      -4.346   2.823  24.216  0.00  0.00    +0.028 C 
ATOM     12  C   UNL     1      -3.993   2.210  24.641  0.00  0.00    +0.096 C 
ATOM     13  C   UNL     1      -3.305   2.506  24.989  0.00  0.00    +0.082 C 
ENDROOT
BRANCH  12  14
ATOM     14  C   UNL     1      -4.277   1.439  24.707  0.00  0.00    +0.227 A 
ATOM     15  N   UNL     1      -5.046   1.221  24.912  0.00  0.00    -0.111 NA
ATOM     16  N   UNL     1      -5.087   0.398  24.912  0.00  0.00    -0.107 NA
ATOM     17  C   UNL     1      -4.343   0.105  24.707  0.00  0.00    +0.250 A 
ATOM     18  O   UNL     1      -3.842   0.749  24.581  0.00  0.00    -0.419 OA
BRANCH  17  19
ATOM     19  C   UNL     1      -4.135  -0.691  24.641  0.00  0.00    +0.055 A 
ATOM     20  C   UNL     1      -3.740  -1.066  25.260  0.00  0.00    +0.006 A 
ATOM     21  C   UNL     1      -3.532  -1.862  25.193  0.00  0.00    +0.012 A 
ATOM     22  C   UNL     1      -3.720  -2.282  24.508  0.00  0.00    +0.058 A 
ATOM     23 CL   UNL     1      -3.513  -3.077  24.442  0.00  0.00    -0.082 Cl
ATOM     24  C   UNL     1      -4.116  -1.905  23.890  0.00  0.00    +0.012 A 
ATOM     25  C   UNL     1      -4.323  -1.110  23.956  0.00  0.00    +0.006 A 
ENDBRANCH  17  19
ENDBRANCH  12  14
BRANCH   9   8
ATOM      8  C   UNL     1      -2.626   3.808  25.006  0.00  0.00    +0.099 C 
BRANCH   8   7
ATOM      4  C   UNL     1      -0.402   2.895  25.597  0.00  0.00    +0.080 A 
ATOM      5  C   UNL     1      -0.583   3.063  24.810  0.00  0.00    +0.006 A 
ATOM      6  C   UNL     1      -1.325   3.368  24.612  0.00  0.00    -0.003 A 
ATOM      7  C   UNL     1      -1.884   3.503  25.203  0.00  0.00    -0.006 A 
ATOM     26  C   UNL     1      -1.704   3.335  25.990  0.00  0.00    -0.003 A 
ATOM     27  C   UNL     1      -0.963   3.031  26.187  0.00  0.00    +0.006 A 
BRANCH   4   2
ATOM      1  O   UNL     1       0.636   2.690  26.557  0.00  0.00    -0.241 OA
ATOM      2  C   UNL     1       0.338   2.590  25.793  0.00  0.00    +0.388 C 
ATOM      3  O   UNL     1       0.783   2.187  25.227  0.00  0.00    -0.241 OA
ENDBRANCH   4   2
ENDBRANCH   8   7
ENDBRANCH   9   8
TORSDOF 5
ENDMDL
MODEL 2
REMARK VINA RESULT:     -12.9      2.796      5.807
REMARK  Name = 
REMARK  5 active torsions:
REMARK  status: ('A' for Active; 'I' for Inactive)
REMARK    1  A    between atoms: C_2  and  C_4
REMARK    2  A    between atoms: C_7  and  C_8
REMARK    3  A    between atoms: C_8  and  N_9
REMARK    4  A    between atoms: C_12  and  C_14
REMARK    5  A    between atoms: C_17  and  C_19
REMARK                            x       y       z     vdW  Elec       q    Type
REMARK                         _______ _______ _______ _____ _____    ______ ____
ROOT
ATOM      9  N   UNL     1      -0.902  -0.514  25.229  0.00  0.00    -0.268 NA
ATOM     10  C   UNL     1      -0.505  -0.341  24.527  0.00  0.00    +0.073 C 
ATOM     11  C   UNL     1      -0.327   0.465  24.528  0.00  0.00    +0.028 C 
ATOM     12  C   UNL     1      -0.614   0.789  25.231  0.00  0.00    +0.096 C 
ATOM     13  C   UNL     1      -0.970   0.183  25.664  0.00  0.00    +0.082 C 
ENDROOT
BRANCH  12  14
ATOM     14  C   UNL     1      -0.557   1.579  25.460  0.00  0.00    +0.227 A 
ATOM     15  N   UNL     1      -0.046   1.881  26.034  0.00  0.00    -0.111 NA
ATOM     16  N   UNL     1      -0.172   2.694  26.085  0.00  0.00    -0.107 NA
ATOM     17  C   UNL     1      -0.761   2.895  25.543  0.00  0.00    +0.250 A 
ATOM     18  O   UNL     1      -0.999   2.206  25.157  0.00  0.00    -0.419 OA
BRANCH  17  19
ATOM     19  C   UNL     1      -1.061   3.653  25.411  0.00  0.00    +0.055 A 
ATOM     20  C   UNL     1      -0.603   4.213  25.014  0.00  0.00    +0.006 A 
ATOM     21  C   UNL     1      -0.903   4.971  24.881  0.00  0.00    +0.012 A 
ATOM     22  C   UNL     1      -1.659   5.168  25.146  0.00  0.00    +0.058 A 
ATOM     23 CL   UNL     1      -1.958   5.924  25.014  0.00  0.00    -0.082 Cl
ATOM     24  C   UNL     1      -2.116   4.607  25.543  0.00  0.00    +0.012 A 
ATOM     25  C   UNL     1      -1.817   3.850  25.676  0.00  0.00    +0.006 A 
ENDBRANCH  17  19
ENDBRANCH  12  14
BRANCH   9   8
ATOM      8  C   UNL     1      -1.183  -1.256  25.456  0.00  0.00    +0.099 C 
BRANCH   8   7
ATOM      4  C   UNL     1      -3.274  -2.144  24.472  0.00  0.00    +0.080 A 
ATOM      5  C   UNL     1      -3.308  -1.578  25.072  0.00  0.00    +0.006 A 
ATOM      6  C   UNL     1      -2.611  -1.282  25.400  0.00  0.00    -0.003 A 
ATOM      7  C   UNL     1      -1.880  -1.552  25.128  0.00  0.00    -0.006 A 
ATOM     26  C   UNL     1      -1.846  -2.118  24.528  0.00  0.00    -0.003 A 
ATOM     27  C   UNL     1      -2.543  -2.413  24.201  0.00  0.00    +0.006 A 
BRANCH   4   2
ATOM      1  O   UNL     1      -4.514  -1.924  23.796  0.00  0.00    -0.241 OA
ATOM      2  C   UNL     1      -3.970  -2.439  24.144  0.00  0.00    +0.388 C 
ATOM      3  O   UNL     1      -4.125  -3.249  24.164  0.00  0.00    -0.241 OA
ENDBRANCH   4   2
ENDBRANCH   8   7
ENDBRANCH   9   8
TORSDOF 5
ENDMDL
MODEL 3
REMARK VINA RESULT:     -12.7      2.280      2.941
REMARK  Name = 
REMARK  5 active torsions:
REMARK  status: ('A' for Active; 'I' for Inactive)
REMARK    1  A    between atoms: C_2  and  C_4
REMARK    2  A    between atoms: C_7  and  C_8
REMARK    3  A    between atoms: C_8  and  N_9
REMARK    4  A    between atoms: C_12  and  C_14
REMARK    5  A    between atoms: C_17  and  C_19
REMARK                            x       y       z     vdW  Elec       q    Type
REMARK                         _______ _______ _______ _____ _____    ______ ____
ROOT
ATOM      9  N   UNL     1      -0.136   1.552  25.163  0.00  0.00    -0.268 NA
ATOM     10  C   UNL     1       0.168   1.341  24.426  0.00  0.00    +0.073 C 
ATOM     11  C   UNL     1      -0.145   0.605  24.223  0.00  0.00    +0.028 C 
ATOM     12  C   UNL     1      -0.642   0.362  24.835  0.00  0.00    +0.096 C 
ATOM     13  C   UNL     1      -0.636   0.948  25.416  0.00  0.00    +0.082 C 
ENDROOT
BRANCH  12  14
ATOM     14  C   UNL     1      -1.070  -0.343  24.863  0.00  0.00    +0.227 A 
ATOM     15  N   UNL     1      -0.828  -1.043  25.226  0.00  0.00    -0.111 NA
ATOM     16  N   UNL     1      -1.422  -1.605  25.119  0.00  0.00    -0.107 NA
ATOM     17  C   UNL     1      -2.033  -1.251  24.690  0.00  0.00    +0.250 A 
ATOM     18  O   UNL     1      -1.814  -0.471  24.531  0.00  0.00    -0.419 OA
BRANCH  17  19
ATOM     19  C   UNL     1      -2.737  -1.614  24.460  0.00  0.00    +0.055 A 
ATOM     20  C   UNL     1      -3.368  -1.156  24.190  0.00  0.00    +0.006 A 
ATOM     21  C   UNL     1      -4.073  -1.519  23.960  0.00  0.00    +0.012 A 
ATOM     22  C   UNL     1      -4.146  -2.339  24.000  0.00  0.00    +0.058 A 
ATOM     23 CL   UNL     1      -4.850  -2.702  23.769  0.00  0.00    -0.082 Cl
ATOM     24  C   UNL     1      -3.515  -2.797  24.269  0.00  0.00    +0.012 A 
ATOM     25  C   UNL     1      -2.811  -2.435  24.499  0.00  0.00    +0.006 A 
ENDBRANCH  17  19
ENDBRANCH  12  14
BRANCH   9   8
ATOM      8  C   UNL     1       0.032   2.247  25.575  0.00  0.00    +0.099 C 
BRANCH   8   7
ATOM      4  C   UNL     1      -1.427   4.229  25.305  0.00  0.00    +0.080 A 
ATOM      5  C   UNL     1      -1.592   3.672  25.891  0.00  0.00    +0.006 A 
ATOM      6  C   UNL     1      -1.106   3.011  25.981  0.00  0.00    -0.003 A 
ATOM      7  C   UNL     1      -0.455   2.908  25.485  0.00  0.00    -0.006 A 
ATOM     26  C   UNL     1      -0.290   3.465  24.899  0.00  0.00    -0.003 A 
ATOM     27  C   UNL     1      -0.776   4.125  24.810  0.00  0.00    +0.006 A 
BRANCH   4   2
ATOM      1  O   UNL     1      -1.589   5.648  25.247  0.00  0.00    -0.241 OA
ATOM      2  C   UNL     1      -1.914   4.889  25.216  0.00  0.00    +0.388 C 
ATOM      3  O   UNL     1      -2.724   4.792  25.096  0.00  0.00    -0.241 OA
ENDBRANCH   4   2
ENDBRANCH   8   7
ENDBRANCH   9   8
TORSDOF 5
ENDMDL
MODEL 4
REMARK VINA RESULT:     -12.5      2.294      5.046
REMARK  Name = 
REMARK  5 active torsions:
REMARK  status: ('A' for Active; 'I' for Inactive)
REMARK    1  A    between atoms: C_2  and  C_4
REMARK    2  A    between atoms: C_7  and  C_8
REMARK    3  A    between atoms: C_8  and  N_9
REMARK    4  A    between atoms: C_12  and  C_14
REMARK    5  A    between atoms: C_17  and  C_19
REMARK                            x       y       z     vdW  Elec       q    Type
REMARK                         _______ _______ _______ _____ _____    ______ ____
ROOT
ATOM      9  N   UNL     1      -4.705   0.765  25.091  0.00  0.00    -0.268 NA
ATOM     10  C   UNL     1      -5.129   1.168  24.509  0.00  0.00    +0.073 C 
ATOM     11  C   UNL     1      -4.873   1.953  24.507  0.00  0.00    +0.028 C 
ATOM     12  C   UNL     1      -4.293   2.034  25.088  0.00  0.00    +0.096 C 
ATOM     13  C   UNL     1      -4.189   1.298  25.449  0.00  0.00    +0.082 C 
ENDROOT
BRANCH  12  14
ATOM     14  C   UNL     1      -3.887   2.727  25.275  0.00  0.00    +0.227 A 
ATOM     15  N   UNL     1      -4.155   3.325  25.777  0.00  0.00    -0.111 NA
ATOM     16  N   UNL     1      -3.576   3.912  25.806  0.00  0.00    -0.107 NA
ATOM     17  C   UNL     1      -2.949   3.676  25.323  0.00  0.00    +0.250 A 
ATOM     18  O   UNL     1      -3.142   2.943  24.995  0.00  0.00    -0.419 OA
BRANCH  17  19
ATOM     19  C   UNL     1      -2.253   4.099  25.191  0.00  0.00    +0.055 A 
ATOM     20  C   UNL     1      -2.259   4.923  25.219  0.00  0.00    +0.006 A 
ATOM     21  C   UNL     1      -1.563   5.346  25.087  0.00  0.00    +0.012 A 
ATOM     22  C   UNL     1      -0.860   4.943  24.927  0.00  0.00    +0.058 A 
ATOM     23 CL   UNL     1      -0.165   5.366  24.795  0.00  0.00    -0.082 Cl
ATOM     24  C   UNL     1      -0.855   4.119  24.899  0.00  0.00    +0.012 A 
ATOM     25  C   UNL     1      -1.550   3.697  25.031  0.00  0.00    +0.006 A 
ENDBRANCH  17  19
ENDBRANCH  12  14
BRANCH   9   8
ATOM      8  C   UNL     1      -4.785  -0.034  25.281  0.00  0.00    +0.099 C 
BRANCH   8   7
ATOM      4  C   UNL     1      -3.009  -1.640  24.653  0.00  0.00    +0.080 A 
ATOM      5  C   UNL     1      -3.011  -1.300  25.405  0.00  0.00    +0.006 A 
ATOM      6  C   UNL     1      -3.603  -0.765  25.615  0.00  0.00    -0.003 A 
ATOM      7  C   UNL     1      -4.193  -0.570  25.072  0.00  0.00    -0.006 A 
ATOM     26  C   UNL     1      -4.191  -0.910  24.320  0.00  0.00    -0.003 A 
ATOM     27  C   UNL     1      -3.600  -1.445  24.111  0.00  0.00    +0.006 A 
BRANCH   4   2
ATOM      1  O   UNL     1      -2.618  -2.942  24.210  0.00  0.00    -0.241 OA
ATOM      2  C   UNL     1      -2.418  -2.175  24.444  0.00  0.00    +0.388 C 
ATOM      3  O   UNL     1      -1.626  -1.946  24.469  0.00  0.00    -0.241 OA
ENDBRANCH   4   2
ENDBRANCH   8   7
ENDBRANCH   9   8
TORSDOF 5
ENDMDL
MODEL 5
REMARK VINA RESULT:     -12.3      1.986      3.303
REMARK  Name = 
REMARK  5 active torsions:
REMARK  status: ('A' for Active; 'I' for Inactive)
REMARK    1  A    between atoms: C_2  and  C_4
REMARK    2  A    between atoms: C_7  and  C_8
REMARK    3  A    between atoms: C_8  and  N_9
REMARK    4  A    between atoms: C_12  and  C_14
REMARK    5  A    between atoms: C_17  and  C_19
REMARK                            x       y       z     vdW  Elec       q    Type
REMARK                         _______ _______ _______ _____ _____    ______ ____
ROOT
ATOM      9  N   UNL     1      -1.724   2.826  25.166  0.00  0.00    -0.268 NA
ATOM     10  C   UNL     1      -1.012   2.815  25.582  0.00  0.00    +0.073 C 
ATOM     11  C   UNL     1      -0.777   2.028  25.662  0.00  0.00    +0.028 C 
ATOM     12  C   UNL     1      -1.344   1.554  25.295  0.00  0.00    +0.096 C 
ATOM     13  C   UNL     1      -1.929   2.048  24.989  0.00  0.00    +0.082 C 
ENDROOT
BRANCH  12  14
ATOM     14  C   UNL     1      -1.328   0.731  25.243  0.00  0.00    +0.227 A 
ATOM     15  N   UNL     1      -0.659   0.253  25.312  0.00  0.00    -0.111 NA
ATOM     16  N   UNL     1      -0.895  -0.532  25.225  0.00  0.00    -0.107 NA
ATOM     17  C   UNL     1      -1.712  -0.540  25.102  0.00  0.00    +0.250 A 
ATOM     18  O   UNL     1      -1.979   0.241  25.113  0.00  0.00    -0.419 OA
BRANCH  17  19
ATOM     19  C   UNL     1      -2.178  -1.211  24.987  0.00  0.00    +0.055 A 
ATOM     20  C   UNL     1      -2.940  -1.242  25.303  0.00  0.00    +0.006 A 
ATOM     21  C   UNL     1      -3.407  -1.912  25.189  0.00  0.00    +0.012 A 
ATOM     22  C   UNL     1      -3.112  -2.552  24.759  0.00  0.00    +0.058 A 
ATOM     23 CL   UNL     1      -3.579  -3.222  24.645  0.00  0.00    -0.082 Cl
ATOM     24  C   UNL     1      -2.350  -2.520  24.443  0.00  0.00    +0.012 A 
ATOM     25  C   UNL     1      -1.884  -1.850  24.557  0.00  0.00    +0.006 A 
ENDBRANCH  17  19
ENDBRANCH  12  14
BRANCH   9   8
ATOM      8  C   UNL     1      -2.156   3.500  24.964  0.00  0.00    +0.099 C 
BRANCH   8   7
ATOM      4  C   UNL     1      -4.562   3.645  25.527  0.00  0.00    +0.080 A 
ATOM      5  C   UNL     1      -3.993   3.845  26.091  0.00  0.00    +0.006 A 
ATOM      6  C   UNL     1      -3.191   3.797  25.903  0.00  0.00    -0.003 A 
ATOM      7  C   UNL     1      -2.958   3.548  25.152  0.00  0.00    -0.006 A 
ATOM     26  C   UNL     1      -3.527   3.347  24.588  0.00  0.00    -0.003 A 
ATOM     27  C   UNL     1      -4.328   3.396  24.776  0.00  0.00    +0.006 A 
BRANCH   4   2
ATOM      1  O   UNL     1      -5.784   4.385  25.553  0.00  0.00    -0.241 OA
ATOM      2  C   UNL     1      -5.363   3.693  25.715  0.00  0.00    +0.388 C 
ATOM      3  O   UNL     1      -5.745   3.051  26.065  0.00  0.00    -0.241 OA
ENDBRANCH   4   2
ENDBRANCH   8   7
ENDBRANCH   9   8
TORSDOF 5
ENDMDL
