MODEL 1
REMARK VINA RESULT:      -9.7      0.000      0.000
REMARK  Name = 
REMARK  6 active torsions:
REMARK  status: ('A' for Active; 'I' for Inactive)
REMARK    1  A    between atoms: O_2  and  C_3
REMARK    2  A    between atoms: C_3  and  C_4
REMARK    3  A    between atoms: N_6  and  C_7
REMARK    4  A    between atoms: C_7  and  C_8
REMARK    5  A    between atoms: C_15  and  C_16
REMARK    6  A    between atoms: C_18  and  C_22
REMARK                            x       y       z     vdW  Elec       q    Type
REMARK                         _______ _______ _______ _____ _____    ______ ____
ROOT
ATOM      8  C   UNL     1      -3.866   0.189  24.068  0.00  0.00    +0.079 C 
ATOM      9  C   UNL     1      -3.553   0.758  23.639  0.00  0.00    +0.018 C 
ATOM     10  C   UNL     1      -3.383   1.506  23.897  0.00  0.00    +0.010 C 
ATOM     11  C   UNL     1      -3.026   2.011  23.248  0.00  0.00    +0.018 C 
ATOM     12  C   UNL     1      -3.281   1.468  23.508  0.00  0.00    +0.072 C 
ATOM     13  N   UNL     1      -3.690   0.954  24.325  0.00  0.00    -0.272 NA
ATOM     14  C   UNL     1      -3.792   1.365  25.133  0.00  0.00    +0.078 C 
ATOM     15  C   UNL     1      -3.484   1.895  24.677  0.00  0.00    +0.056 C 
ENDROOT
BRANCH  15  16
ATOM     16  C   UNL     1      -3.288   2.672  24.877  0.00  0.00    +0.058 A 
ATOM     17  C   UNL     1      -2.548   3.024  24.782  0.00  0.00    +0.038 A 
ATOM     18  C   UNL     1      -2.599   3.801  25.052  0.00  0.00    +0.136 A 
ATOM     19  N   UNL     1      -3.371   3.930  25.314  0.00  0.00    -0.166 NA
ATOM     20  N   UNL     1      -3.797   3.231  25.206  0.00  0.00    -0.253 N 
ATOM     21  C   UNL     1      -4.592   3.113  25.393  0.00  0.00    +0.153 C 
BRANCH  18  22
ATOM     22  C   UNL     1      -1.987   4.354  25.060  0.00  0.00    +0.165 A 
ATOM     23  C   UNL     1      -1.180   4.183  25.078  0.00  0.00    +0.042 A 
ATOM     24  C   UNL     1      -0.768   4.898  25.080  0.00  0.00    +0.044 A 
ATOM     25  C   UNL     1      -1.320   5.510  25.064  0.00  0.00    +0.180 A 
ATOM     26  O   UNL     1      -2.074   5.175  25.051  0.00  0.00    -0.449 OA
ENDBRANCH  18  22
ENDBRANCH  15  16
BRANCH   8   7
ATOM      7  C   UNL     1      -4.150  -0.577  24.181  0.00  0.00    +0.131 C 
BRANCH   7   6
ATOM      4  C   UNL     1      -3.828  -1.965  24.296  0.00  0.00    +0.272 C 
ATOM      5  O   UNL     1      -4.525  -2.160  23.902  0.00  0.00    -0.271 OA
ATOM      6  N   UNL     1      -3.640  -1.173  24.436  0.00  0.00    -0.202 NA
BRANCH   4   3
ATOM      3  C   UNL     1      -3.317  -2.560  24.552  0.00  0.00    +0.229 C 
BRANCH   3   2
ATOM      1  C   UNL     1      -1.956  -2.992  24.512  0.00  0.00    +0.175 C 
ATOM      2  O   UNL     1      -2.632  -2.728  24.122  0.00  0.00    -0.342 OA
ENDBRANCH   3   2
ENDBRANCH   4   3
ENDBRANCH   7   6
ENDBRANCH   8   7
TORSDOF 6
ENDMDL
MODEL 2
REMARK VINA RESULT:      -9.7      3.342      4.185
REMARK  Name = 
REMARK  6 active torsions:
REMARK  status: ('A' for Active; 'I' for Inactive)
REMARK    1  A    between atoms: O_2  and  C_3
REMARK    2  A    between atoms: C_3  and  C_4
REMARK    3  A    between atoms: N_6  and  C_7
REMARK    4  A    between atoms: C_7  and  C_8
REMARK    5  A    between atoms: C_15  and  C_16
REMARK    6  A    between atoms: C_18  and  C_22
REMARK                            x       y       z     vdW  Elec       q    Type
REMARK                         _______ _______ _______ _____ _____    ______ ____
ROOT
ATOM      8  C   UNL     1      -0.263   0.377  23.651  0.00  0.00    +0.079 C 
ATOM      9  C   UNL     1      -0.641   0.347  24.331  0.00  0.00    +0.018 C 
ATOM     10  C   UNL     1      -1.266   0.815  24.545  0.00  0.00    +0.010 C 
ATOM     11  C   UNL     1      -1.560   0.623  25.370  0.00  0.00    +0.018 C 
ATOM     12  C   UNL     1      -1.176   0.559  24.845  0.00  0.00    +0.072 C 
ATOM     13  N   UNL     1      -0.901   0.851  23.877  0.00  0.00    -0.272 NA
ATOM     14  C   UNL     1      -1.348   1.519  23.444  0.00  0.00    +0.078 C 
ATOM     15  C   UNL     1      -1.691   1.456  24.123  0.00  0.00    +0.056 C 
ENDROOT
BRANCH  15  16
ATOM     16  C   UNL     1      -2.330   1.900  24.402  0.00  0.00    +0.058 A 
ATOM     17  C   UNL     1      -3.088   1.614  24.554  0.00  0.00    +0.038 A 
ATOM     18  C   UNL     1      -3.548   2.243  24.824  0.00  0.00    +0.136 A 
ATOM     19  N   UNL     1      -3.073   2.918  24.839  0.00  0.00    -0.166 NA
ATOM     20  N   UNL     1      -2.320   2.706  24.578  0.00  0.00    -0.253 N 
ATOM     21  C   UNL     1      -1.671   3.210  24.505  0.00  0.00    +0.153 C 
BRANCH  18  22
ATOM     22  C   UNL     1      -4.343   2.205  25.041  0.00  0.00    +0.165 A 
ATOM     23  C   UNL     1      -4.936   1.795  24.640  0.00  0.00    +0.042 A 
ATOM     24  C   UNL     1      -5.644   1.908  25.049  0.00  0.00    +0.044 A 
ATOM     25  C   UNL     1      -5.489   2.387  25.702  0.00  0.00    +0.180 A 
ATOM     26  O   UNL     1      -4.685   2.571  25.698  0.00  0.00    -0.449 OA
ENDBRANCH  18  22
ENDBRANCH  15  16
BRANCH   8   7
ATOM      7  C   UNL     1       0.318   0.131  23.121  0.00  0.00    +0.131 C 
BRANCH   7   6
ATOM      4  C   UNL     1       1.697   0.037  22.757  0.00  0.00    +0.272 C 
ATOM      5  O   UNL     1       1.481  -0.221  22.004  0.00  0.00    -0.271 OA
ATOM      6  N   UNL     1       1.116   0.213  23.316  0.00  0.00    -0.202 NA
BRANCH   4   3
ATOM      3  C   UNL     1       2.495   0.119  22.953  0.00  0.00    +0.229 C 
BRANCH   3   2
ATOM      1  C   UNL     1       3.780   0.676  22.668  0.00  0.00    +0.175 C 
ATOM      2  O   UNL     1       3.009   0.502  22.432  0.00  0.00    -0.342 OA
ENDBRANCH   3   2
ENDBRANCH   4   3
ENDBRANCH   7   6
ENDBRANCH   8   7
TORSDOF 6
ENDMDL
MODEL 3
REMARK VINA RESULT:      -9.6      2.895      3.936
REMARK  Name = 
REMARK  6 active torsions:
REMARK  status: ('A' for Active; 'I' for Inactive)
REMARK    1  A    between atoms: O_2  and  C_3
REMARK    2  A    between atoms: C_3  and  C_4
REMARK    3  A    between atoms: N_6  and  C_7
REMARK    4  A    between atoms: C_7  and  C_8
REMARK    5  A    between atoms: C_15  and  C_16
REMARK    6  A    between atoms: C_18  and  C_22
REMARK                            x       y       z     vdW  Elec       q    Type
REMARK                         _______ _______ _______ _____ _____    ______ ____
ROOT
ATOM      8  C   UNL     1      -0.854   0.610  23.744  0.00  0.00    +0.079 C 
ATOM      9  C   UNL     1      -1.346   1.162  23.501  0.00  0.00    +0.018 C 
ATOM     10  C   UNL     1      -2.109   1.259  23.754  0.00  0.00    +0.010 C 
ATOM     11  C   UNL     1      -2.508   1.954  23.352  0.00  0.00    +0.018 C 
ATOM     12  C   UNL     1      -2.018   1.542  23.479  0.00  0.00    +0.072 C 
ATOM     13  N   UNL     1      -1.633   0.715  23.997  0.00  0.00    -0.272 NA
ATOM     14  C   UNL     1      -2.146   0.260  24.599  0.00  0.00    +0.078 C 
ATOM     15  C   UNL     1      -2.597   0.816  24.334  0.00  0.00    +0.056 C 
ENDROOT
BRANCH  15  16
ATOM     16  C   UNL     1      -3.379   0.970  24.549  0.00  0.00    +0.058 A 
ATOM     17  C   UNL     1      -3.676   1.692  24.812  0.00  0.00    +0.038 A 
ATOM     18  C   UNL     1      -4.481   1.597  24.963  0.00  0.00    +0.136 A 
ATOM     19  N   UNL     1      -4.682   0.815  24.793  0.00  0.00    -0.166 NA
ATOM     20  N   UNL     1      -4.000   0.427  24.537  0.00  0.00    -0.253 N 
ATOM     21  C   UNL     1      -3.948  -0.364  24.308  0.00  0.00    +0.153 C 
BRANCH  18  22
ATOM     22  C   UNL     1      -4.996   2.180  25.237  0.00  0.00    +0.165 A 
ATOM     23  C   UNL     1      -5.809   2.093  25.352  0.00  0.00    +0.042 A 
ATOM     24  C   UNL     1      -6.105   2.813  25.630  0.00  0.00    +0.044 A 
ATOM     25  C   UNL     1      -5.475   3.343  25.686  0.00  0.00    +0.180 A 
ATOM     26  O   UNL     1      -4.790   2.953  25.443  0.00  0.00    -0.449 OA
ENDBRANCH  18  22
ENDBRANCH  15  16
BRANCH   8   7
ATOM      7  C   UNL     1      -0.126   0.223  23.748  0.00  0.00    +0.131 C 
BRANCH   7   6
ATOM      4  C   UNL     1       1.154   0.015  23.146  0.00  0.00    +0.272 C 
ATOM      5  O   UNL     1       1.220  -0.709  23.534  0.00  0.00    -0.271 OA
ATOM      6  N   UNL     1       0.481   0.482  23.252  0.00  0.00    -0.202 NA
BRANCH   4   3
ATOM      3  C   UNL     1       1.761   0.275  22.650  0.00  0.00    +0.229 C 
BRANCH   3   2
ATOM      1  C   UNL     1       3.159   0.314  22.359  0.00  0.00    +0.175 C 
ATOM      2  O   UNL     1       2.513  -0.059  22.710  0.00  0.00    -0.342 OA
ENDBRANCH   3   2
ENDBRANCH   4   3
ENDBRANCH   7   6
ENDBRANCH   8   7
TORSDOF 6
ENDMDL
MODEL 4
REMARK VINA RESULT:      -9.3      2.235      2.628
REMARK  Name = 
REMARK  6 active torsions:
REMARK  status: ('A' for Active; 'I' for Inactive)
REMARK    1  A    between atoms: O_2  and  C_3
REMARK    2  A    between atoms: C_3  and  C_4
REMARK    3  A    between atoms: N_6  and  C_7
REMARK    4  A    between atoms: C_7  and  C_8
REMARK    5  A    between atoms: C_15  and  C_16
REMARK    6  A    between atoms: C_18  and  C_22
REMARK                            x       y       z     vdW  Elec       q    Type
REMARK                         _______ _______ _______ _____ _____    ______ ____
ROOT
ATOM      8  C   UNL     1      -0.739  -0.303  24.681  0.00  0.00    +0.079 C 
ATOM      9  C   UNL     1      -0.496   0.305  24.261  0.00  0.00    +0.018 C 
ATOM     10  C   UNL     1      -0.475   1.075  24.512  0.00  0.00    +0.010 C 
ATOM     11  C   UNL     1      -0.161   1.625  23.878  0.00  0.00    +0.018 C 
ATOM     12  C   UNL     1      -0.339   1.050  24.132  0.00  0.00    +0.072 C 
ATOM     13  N   UNL     1      -0.715   0.484  24.930  0.00  0.00    -0.272 NA
ATOM     14  C   UNL     1      -0.945   0.882  25.719  0.00  0.00    +0.078 C 
ATOM     15  C   UNL     1      -0.698   1.451  25.273  0.00  0.00    +0.056 C 
ENDROOT
BRANCH  15  16
ATOM     16  C   UNL     1      -0.651   2.252  25.467  0.00  0.00    +0.058 A 
ATOM     17  C   UNL     1      -1.027   2.869  25.069  0.00  0.00    +0.038 A 
ATOM     18  C   UNL     1      -0.829   3.574  25.448  0.00  0.00    +0.136 A 
ATOM     19  N   UNL     1      -0.331   3.392  26.081  0.00  0.00    -0.166 NA
ATOM     20  N   UNL     1      -0.221   2.574  26.092  0.00  0.00    -0.253 N 
ATOM     21  C   UNL     1       0.238   2.154  26.634  0.00  0.00    +0.153 C 
BRANCH  18  22
ATOM     22  C   UNL     1      -1.083   4.328  25.234  0.00  0.00    +0.165 A 
ATOM     23  C   UNL     1      -1.832   4.646  25.376  0.00  0.00    +0.042 A 
ATOM     24  C   UNL     1      -1.845   5.413  25.069  0.00  0.00    +0.044 A 
ATOM     25  C   UNL     1      -1.106   5.568  24.738  0.00  0.00    +0.180 A 
ATOM     26  O   UNL     1      -0.635   4.899  24.840  0.00  0.00    -0.449 OA
ENDBRANCH  18  22
ENDBRANCH  15  16
BRANCH   8   7
ATOM      7  C   UNL     1      -0.898  -1.104  24.791  0.00  0.00    +0.131 C 
BRANCH   7   6
ATOM      4  C   UNL     1      -1.759  -2.230  24.603  0.00  0.00    +0.272 C 
ATOM      5  O   UNL     1      -1.305  -2.667  25.135  0.00  0.00    -0.271 OA
ATOM      6  N   UNL     1      -1.556  -1.448  24.431  0.00  0.00    -0.202 NA
BRANCH   4   3
ATOM      3  C   UNL     1      -2.417  -2.573  24.242  0.00  0.00    +0.229 C 
BRANCH   3   2
ATOM      1  C   UNL     1      -3.822  -2.833  24.274  0.00  0.00    +0.175 C 
ATOM      2  O   UNL     1      -3.117  -2.671  24.669  0.00  0.00    -0.342 OA
ENDBRANCH   3   2
ENDBRANCH   4   3
ENDBRANCH   7   6
ENDBRANCH   8   7
TORSDOF 6
ENDMDL
MODEL 5
REMARK VINA RESULT:      -9.2      4.041      5.282
REMARK  Name = 
REMARK  6 active torsions:
REMARK  status: ('A' for Active; 'I' for Inactive)
REMARK    1  A    between atoms: O_2  and  C_3
REMARK    2  A    between atoms: C_3  and  C_4
REMARK    3  A    between atoms: N_6  and  C_7
REMARK    4  A    between atoms: C_7  and  C_8
REMARK    5  A    between atoms: C_15  and  C_16
REMARK    6  A    between atoms: C_18  and  C_22
REMARK                            x       y       z     vdW  Elec       q    Type
REMARK                         _______ _______ _______ _____ _____    ______ ____
ROOT
ATOM      8  C   UNL     1       0.868   0.429  23.336  0.00  0.00    +0.079 C 
ATOM      9  C   UNL     1       0.411   0.948  23.693  0.00  0.00    +0.018 C 
ATOM     10  C   UNL     1      -0.291   0.783  24.061  0.00  0.00    +0.010 C 
ATOM     11  C   UNL     1      -0.665   1.519  24.412  0.00  0.00    +0.018 C 
ATOM     12  C   UNL     1      -0.210   1.179  24.089  0.00  0.00    +0.072 C 
ATOM     13  N   UNL     1       0.151   0.270  23.713  0.00  0.00    -0.272 NA
ATOM     14  C   UNL     1      -0.315  -0.505  23.834  0.00  0.00    +0.078 C 
ATOM     15  C   UNL     1      -0.735   0.035  24.173  0.00  0.00    +0.056 C 
ENDROOT
BRANCH  15  16
ATOM     16  C   UNL     1      -1.455  -0.065  24.564  0.00  0.00    +0.058 A 
ATOM     17  C   UNL     1      -2.170   0.291  24.360  0.00  0.00    +0.038 A 
ATOM     18  C   UNL     1      -2.743   0.038  24.897  0.00  0.00    +0.136 A 
ATOM     19  N   UNL     1      -2.382  -0.475  25.433  0.00  0.00    -0.166 NA
ATOM     20  N   UNL     1      -1.585  -0.539  25.227  0.00  0.00    -0.253 N 
ATOM     21  C   UNL     1      -1.018  -0.995  25.616  0.00  0.00    +0.153 C 
BRANCH  18  22
ATOM     22  C   UNL     1      -3.538   0.258  24.898  0.00  0.00    +0.165 A 
ATOM     23  C   UNL     1      -4.162  -0.174  24.574  0.00  0.00    +0.042 A 
ATOM     24  C   UNL     1      -4.859   0.250  24.700  0.00  0.00    +0.044 A 
ATOM     25  C   UNL     1      -4.665   0.944  25.101  0.00  0.00    +0.180 A 
ATOM     26  O   UNL     1      -3.850   0.950  25.224  0.00  0.00    -0.449 OA
ENDBRANCH  18  22
ENDBRANCH  15  16
BRANCH   8   7
ATOM      7  C   UNL     1       1.541   0.210  22.912  0.00  0.00    +0.131 C 
BRANCH   7   6
ATOM      4  C   UNL     1       2.929   0.392  22.621  0.00  0.00    +0.272 C 
ATOM      5  O   UNL     1       2.853  -0.091  21.957  0.00  0.00    -0.271 OA
ATOM      6  N   UNL     1       2.272   0.543  23.099  0.00  0.00    -0.202 NA
BRANCH   4   3
ATOM      3  C   UNL     1       3.660   0.725  22.809  0.00  0.00    +0.229 C 
BRANCH   3   2
ATOM      1  C   UNL     1       4.997   0.505  23.263  0.00  0.00    +0.175 C 
ATOM      2  O   UNL     1       4.332   0.247  22.849  0.00  0.00    -0.342 OA
ENDBRANCH   3   2
ENDBRANCH   4   3
ENDBRANCH   7   6
ENDBRANCH   8   7
TORSDOF 6
ENDMDL
MODEL 6
REMARK VINA RESULT:      -9.0      1.070      5.503
REMARK  Name = 
REMARK  6 active torsions:
REMARK  status: ('A' for Active; 'I' for Inactive)
REMARK    1  A    between atoms: O_2  and  C_3
REMARK    2  A    between atoms: C_3  and  C_4
REMARK    3  A    between atoms: N_6  and  C_7
REMARK    4  A    between atoms: C_7  and  C_8
REMARK    5  A    between atoms: C_15  and  C_16
REMARK    6  A    between atoms: C_18  and  C_22
REMARK                            x       y       z     vdW  Elec       q    Type
REMARK                         _______ _______ _______ _____ _____    ______ ____
ROOT
ATOM      8  C   UNL     1      -3.120   2.661  24.904  0.00  0.00    +0.079 C 
ATOM      9  C   UNL     1      -3.351   2.203  24.319  0.00  0.00    +0.018 C 
ATOM     10  C   UNL     1      -3.221   1.406  24.265  0.00  0.00    +0.010 C 
ATOM     11  C   UNL     1      -3.568   1.062  23.512  0.00  0.00    +0.018 C 
ATOM     12  C   UNL     1      -3.426   1.535  23.940  0.00  0.00    +0.072 C 
ATOM     13  N   UNL     1      -2.991   1.848  24.841  0.00  0.00    -0.272 NA
ATOM     14  C   UNL     1      -2.569   1.253  25.389  0.00  0.00    +0.078 C 
ATOM     15  C   UNL     1      -2.814   0.839  24.796  0.00  0.00    +0.056 C 
ENDROOT
BRANCH  15  16
ATOM     16  C   UNL     1      -2.716   0.028  24.680  0.00  0.00    +0.058 A 
ATOM     17  C   UNL     1      -3.320  -0.523  24.574  0.00  0.00    +0.038 A 
ATOM     18  C   UNL     1      -2.974  -1.265  24.478  0.00  0.00    +0.136 A 
ATOM     19  N   UNL     1      -2.156  -1.174  24.524  0.00  0.00    -0.166 NA
ATOM     20  N   UNL     1      -1.996  -0.374  24.650  0.00  0.00    -0.253 N 
ATOM     21  C   UNL     1      -1.248  -0.035  24.730  0.00  0.00    +0.153 C 
BRANCH  18  22
ATOM     22  C   UNL     1      -3.376  -1.976  24.356  0.00  0.00    +0.165 A 
ATOM     23  C   UNL     1      -3.279  -2.668  24.794  0.00  0.00    +0.042 A 
ATOM     24  C   UNL     1      -3.788  -3.240  24.484  0.00  0.00    +0.044 A 
ATOM     25  C   UNL     1      -4.199  -2.900  23.855  0.00  0.00    +0.180 A 
ATOM     26  O   UNL     1      -3.945  -2.119  23.775  0.00  0.00    -0.449 OA
ENDBRANCH  18  22
ENDBRANCH  15  16
BRANCH   8   7
ATOM      7  C   UNL     1      -3.054   3.389  25.287  0.00  0.00    +0.131 C 
BRANCH   7   6
ATOM      4  C   UNL     1      -2.322   4.605  25.463  0.00  0.00    +0.272 C 
ATOM      5  O   UNL     1      -2.600   4.661  26.237  0.00  0.00    -0.271 OA
ATOM      6  N   UNL     1      -2.548   3.969  24.987  0.00  0.00    -0.202 NA
BRANCH   4   3
ATOM      3  C   UNL     1      -1.817   5.184  25.162  0.00  0.00    +0.229 C 
BRANCH   3   2
ATOM      1  C   UNL     1      -0.514   5.489  24.660  0.00  0.00    +0.175 C 
ATOM      2  O   UNL     1      -1.000   5.063  25.172  0.00  0.00    -0.342 OA
ENDBRANCH   3   2
ENDBRANCH   4   3
ENDBRANCH   7   6
ENDBRANCH   8   7
TORSDOF 6
ENDMDL
