MODEL 1
REMARK VINA RESULT:     -13.5      0.000      0.000
REMARK  Name = 
REMARK  5 active torsions:
REMARK  status: ('A' for Active; 'I' for Inactive)
REMARK    1  A    between atoms: O_2  and  C_3
REMARK    2  A    between atoms: C_6  and  C_9
REMARK    3  A    between atoms: N_11  and  C_12
REMARK    4  A    between atoms: N_20  and  S_22
REMARK    5  A    between atoms: S_22  and  C_25
REMARK                            x       y       z     vdW  Elec       q    Type
REMARK                         _______ _______ _______ _____ _____    ______ ____
ROOT
ATOM     12  C   UNL     1      -4.173   1.217  24.940  0.00  0.00    +0.130 A 
ATOM     13  C   UNL     1      -5.085   1.080  25.273  0.00  0.00    +0.023 A 
ATOM     14  C   UNL     1      -5.429   1.815  25.422  0.00  0.00    +0.014 A 
ATOM     15  C   UNL     1      -5.000   2.505  25.285  0.00  0.00    +0.041 A 
ATOM     16  C   UNL     1      -5.081   3.419  25.342  0.00  0.00    +0.056 C 
ATOM     17  C   UNL     1      -5.536   3.921  25.525  0.00  0.00    +0.011 C 
ATOM     18  C   UNL     1      -4.774   3.874  25.243  0.00  0.00    +0.041 C 
ATOM     19  C   UNL     1      -3.856   4.022  24.909  0.00  0.00    +0.098 C 
ATOM     20  N   UNL     1      -3.617   3.230  24.797  0.00  0.00    -0.155 NA
ATOM     21  C   UNL     1      -4.196   3.579  25.021  0.00  0.00    +0.102 C 
ATOM     30  C   UNL     1      -4.680   2.920  25.179  0.00  0.00    +0.110 C 
ATOM     31  N   UNL     1      -4.227   2.461  24.998  0.00  0.00    -0.298 N 
ATOM     32  C   UNL     1      -3.884   1.726  24.849  0.00  0.00    +0.276 A 
ATOM     33  O   UNL     1      -2.964   1.679  24.509  0.00  0.00    -0.266 OA
ENDROOT
BRANCH  12  11
ATOM      9  C   UNL     1      -3.949  -0.431  25.427  0.00  0.00    +0.269 C 
ATOM     10  O   UNL     1      -3.859  -0.746  26.227  0.00  0.00    -0.268 OA
ATOM     11  N   UNL     1      -4.068   0.277  24.873  0.00  0.00    -0.171 NA
BRANCH   9   6
ATOM      3  C   UNL     1      -3.562  -2.553  24.191  0.00  0.00    +0.139 A 
ATOM      4  C   UNL     1      -3.165  -2.339  24.880  0.00  0.00    +0.037 A 
ATOM      5  C   UNL     1      -3.335  -1.621  25.248  0.00  0.00    +0.008 A 
ATOM      6  C   UNL     1      -3.902  -1.117  24.926  0.00  0.00    +0.056 A 
ATOM      7  C   UNL     1      -4.300  -1.330  24.235  0.00  0.00    +0.008 A 
ATOM      8  C   UNL     1      -4.130  -2.050  23.867  0.00  0.00    +0.037 A 
BRANCH   3   2
ATOM      1  C   UNL     1      -2.612  -3.540  23.780  0.00  0.00    +0.252 C 
ATOM      2  O   UNL     1      -3.391  -3.272  23.823  0.00  0.00    -0.471 OA
ENDBRANCH   3   2
ENDBRANCH   9   6
ENDBRANCH  12  11
BRANCH  20  22
ATOM     22  S   UNL     1      -3.000   2.685  24.553  0.00  0.00    +0.069 S 
ATOM     23  O   UNL     1      -3.467   2.040  24.141  0.00  0.00    -0.152 OA
ATOM     24  O   UNL     1      -2.396   2.158  24.317  0.00  0.00    -0.152 OA
BRANCH  22  25
ATOM     25  C   UNL     1      -2.482   3.399  25.008  0.00  0.00    +0.152 A 
ATOM     26  C   UNL     1      -2.251   3.415  25.800  0.00  0.00    +0.027 A 
ATOM     27  C   UNL     1      -1.832   4.114  25.928  0.00  0.00    +0.009 A 
ATOM     28  C   UNL     1      -1.804   4.529  25.215  0.00  0.00    +0.037 A 
ATOM     29  S   UNL     1      -2.205   4.087  24.646  0.00  0.00    -0.067 S 
ENDBRANCH  22  25
ENDBRANCH  20  22
TORSDOF 5
ENDMDL
MODEL 2
REMARK VINA RESULT:     -13.2      1.765      4.960
REMARK  Name = 
REMARK  5 active torsions:
REMARK  status: ('A' for Active; 'I' for Inactive)
REMARK    1  A    between atoms: O_2  and  C_3
REMARK    2  A    between atoms: C_6  and  C_9
REMARK    3  A    between atoms: N_11  and  C_12
REMARK    4  A    between atoms: N_20  and  S_22
REMARK    5  A    between atoms: S_22  and  C_25
REMARK                            x       y       z     vdW  Elec       q    Type
REMARK                         _______ _______ _______ _____ _____    ______ ____
ROOT
ATOM     12  C   UNL     1      -3.762  -0.017  24.778  0.00  0.00    +0.130 A 
ATOM     13  C   UNL     1      -4.558  -0.361  24.319  0.00  0.00    +0.023 A 
ATOM     14  C   UNL     1      -4.449  -1.162  24.157  0.00  0.00    +0.014 A 
ATOM     15  C   UNL     1      -3.748  -1.536  24.380  0.00  0.00    +0.041 A 
ATOM     16  C   UNL     1      -3.337  -2.357  24.352  0.00  0.00    +0.056 C 
ATOM     17  C   UNL     1      -3.438  -3.015  24.130  0.00  0.00    +0.011 C 
ATOM     18  C   UNL     1      -2.856  -2.590  24.511  0.00  0.00    +0.041 C 
ATOM     19  C   UNL     1      -2.050  -2.254  24.972  0.00  0.00    +0.098 C 
ATOM     20  N   UNL     1      -2.273  -1.457  25.081  0.00  0.00    -0.155 NA
ATOM     21  C   UNL     1      -2.551  -2.047  24.796  0.00  0.00    +0.102 C 
ATOM     30  C   UNL     1      -3.278  -1.729  24.546  0.00  0.00    +0.110 C 
ATOM     31  N   UNL     1      -3.157  -1.108  24.766  0.00  0.00    -0.298 N 
ATOM     32  C   UNL     1      -3.267  -0.307  24.929  0.00  0.00    +0.276 A 
ATOM     33  O   UNL     1      -2.561   0.198  25.389  0.00  0.00    -0.266 OA
ENDROOT
BRANCH  12  11
ATOM      9  C   UNL     1      -4.199   1.595  24.321  0.00  0.00    +0.269 C 
ATOM     10  O   UNL     1      -3.961   2.035  23.615  0.00  0.00    -0.268 OA
ATOM     11  N   UNL     1      -4.168   0.839  24.818  0.00  0.00    -0.171 NA
BRANCH   9   6
ATOM      3  C   UNL     1      -5.394   3.410  25.531  0.00  0.00    +0.139 A 
ATOM      4  C   UNL     1      -4.632   3.481  25.223  0.00  0.00    +0.037 A 
ATOM      5  C   UNL     1      -4.285   2.844  24.830  0.00  0.00    +0.008 A 
ATOM      6  C   UNL     1      -4.700   2.136  24.745  0.00  0.00    +0.056 A 
ATOM      7  C   UNL     1      -5.462   2.064  25.053  0.00  0.00    +0.008 A 
ATOM      8  C   UNL     1      -5.809   2.702  25.446  0.00  0.00    +0.037 A 
BRANCH   3   2
ATOM      1  C   UNL     1      -5.880   4.754  25.522  0.00  0.00    +0.252 C 
ATOM      2  O   UNL     1      -5.741   4.047  25.924  0.00  0.00    -0.471 OA
ENDBRANCH   3   2
ENDBRANCH   9   6
ENDBRANCH  12  11
BRANCH  20  22
ATOM     22  S   UNL     1      -2.066  -0.680  25.383  0.00  0.00    +0.069 S 
ATOM     23  O   UNL     1      -2.850  -0.383  25.700  0.00  0.00    -0.152 OA
ATOM     24  O   UNL     1      -1.860   0.075  25.676  0.00  0.00    -0.152 OA
BRANCH  22  25
ATOM     25  C   UNL     1      -1.197  -1.007  25.033  0.00  0.00    +0.152 A 
ATOM     26  C   UNL     1      -0.727  -1.605  25.353  0.00  0.00    +0.027 A 
ATOM     27  C   UNL     1      -0.058  -1.685  24.877  0.00  0.00    +0.009 A 
ATOM     28  C   UNL     1      -0.115  -1.137  24.263  0.00  0.00    +0.037 A 
ATOM     29  S   UNL     1      -0.819  -0.717  24.360  0.00  0.00    -0.067 S 
ENDBRANCH  22  25
ENDBRANCH  20  22
TORSDOF 5
ENDMDL
MODEL 3
REMARK VINA RESULT:     -12.2      1.968      5.324
REMARK  Name = 
REMARK  5 active torsions:
REMARK  status: ('A' for Active; 'I' for Inactive)
REMARK    1  A    between atoms: O_2  and  C_3
REMARK    2  A    between atoms: C_6  and  C_9
REMARK    3  A    between atoms: N_11  and  C_12
REMARK    4  A    between atoms: N_20  and  S_22
REMARK    5  A    between atoms: S_22  and  C_25
REMARK                            x       y       z     vdW  Elec       q    Type
REMARK                         _______ _______ _______ _____ _____    ______ ____
ROOT
ATOM     12  C   UNL     1      -2.774   0.732  24.847  0.00  0.00    +0.130 A 
ATOM     13  C   UNL     1      -1.997   1.231  24.516  0.00  0.00    +0.023 A 
ATOM     14  C   UNL     1      -1.370   0.706  24.403  0.00  0.00    +0.014 A 
ATOM     15  C   UNL     1      -1.470  -0.096  24.567  0.00  0.00    +0.041 A 
ATOM     16  C   UNL     1      -1.008  -0.890  24.551  0.00  0.00    +0.056 C 
ATOM     17  C   UNL     1      -0.379  -1.158  24.394  0.00  0.00    +0.011 C 
ATOM     18  C   UNL     1      -1.097  -1.428  24.668  0.00  0.00    +0.041 C 
ATOM     19  C   UNL     1      -1.874  -1.940  25.001  0.00  0.00    +0.098 C 
ATOM     20  N   UNL     1      -2.428  -1.319  25.075  0.00  0.00    -0.155 NA
ATOM     21  C   UNL     1      -1.750  -1.399  24.872  0.00  0.00    +0.102 C 
ATOM     30  C   UNL     1      -1.587  -0.603  24.688  0.00  0.00    +0.110 C 
ATOM     31  N   UNL     1      -2.196  -0.373  24.845  0.00  0.00    -0.298 N 
ATOM     32  C   UNL     1      -2.822   0.152  24.958  0.00  0.00    +0.276 A 
ATOM     33  O   UNL     1      -3.685  -0.183  25.289  0.00  0.00    -0.266 OA
ENDROOT
BRANCH  12  11
ATOM      9  C   UNL     1      -3.589   2.154  24.287  0.00  0.00    +0.269 C 
ATOM     10  O   UNL     1      -3.683   2.432  23.474  0.00  0.00    -0.268 OA
ATOM     11  N   UNL     1      -3.268   1.541  24.872  0.00  0.00    -0.171 NA
BRANCH   9   6
ATOM      3  C   UNL     1      -5.061   3.707  25.554  0.00  0.00    +0.139 A 
ATOM      4  C   UNL     1      -5.335   3.080  25.093  0.00  0.00    +0.037 A 
ATOM      5  C   UNL     1      -4.798   2.597  24.694  0.00  0.00    +0.008 A 
ATOM      6  C   UNL     1      -3.989   2.741  24.756  0.00  0.00    +0.056 A 
ATOM      7  C   UNL     1      -3.714   3.367  25.217  0.00  0.00    +0.008 A 
ATOM      8  C   UNL     1      -4.251   3.851  25.616  0.00  0.00    +0.037 A 
BRANCH   3   2
ATOM      1  C   UNL     1      -6.062   4.727  25.532  0.00  0.00    +0.252 C 
ATOM      2  O   UNL     1      -5.598   4.190  25.953  0.00  0.00    -0.471 OA
ENDBRANCH   3   2
ENDBRANCH   9   6
ENDBRANCH  12  11
BRANCH  20  22
ATOM     22  S   UNL     1      -3.224  -1.080  25.290  0.00  0.00    +0.069 S 
ATOM     23  O   UNL     1      -3.083  -0.296  25.702  0.00  0.00    -0.152 OA
ATOM     24  O   UNL     1      -4.001  -0.850  25.498  0.00  0.00    -0.152 OA
BRANCH  22  25
ATOM     25  C   UNL     1      -3.383  -1.947  24.835  0.00  0.00    +0.152 A 
ATOM     26  C   UNL     1      -3.620  -2.060  24.053  0.00  0.00    +0.027 A 
ATOM     27  C   UNL     1      -3.680  -2.872  23.921  0.00  0.00    +0.009 A 
ATOM     28  C   UNL     1      -3.481  -3.261  24.621  0.00  0.00    +0.037 A 
ATOM     29  S   UNL     1      -3.297  -2.688  25.186  0.00  0.00    -0.067 S 
ENDBRANCH  22  25
ENDBRANCH  20  22
TORSDOF 5
ENDMDL
MODEL 4
REMARK VINA RESULT:     -12.1      2.556      3.449
REMARK  Name = 
REMARK  5 active torsions:
REMARK  status: ('A' for Active; 'I' for Inactive)
REMARK    1  A    between atoms: O_2  and  C_3
REMARK    2  A    between atoms: C_6  and  C_9
REMARK    3  A    between atoms: N_11  and  C_12
REMARK    4  A    between atoms: N_20  and  S_22
REMARK    5  A    between atoms: S_22  and  C_25
REMARK                            x       y       z     vdW  Elec       q    Type
REMARK                         _______ _______ _______ _____ _____    ______ ____
ROOT
ATOM     12  C   UNL     1      -1.818   2.177  24.789  0.00  0.00    +0.130 A 
ATOM     13  C   UNL     1      -1.187   2.663  25.361  0.00  0.00    +0.023 A 
ATOM     14  C   UNL     1      -1.590   3.269  25.749  0.00  0.00    +0.014 A 
ATOM     15  C   UNL     1      -2.397   3.378  25.616  0.00  0.00    +0.041 A 
ATOM     16  C   UNL     1      -3.095   3.920  25.869  0.00  0.00    +0.056 C 
ATOM     17  C   UNL     1      -3.244   4.470  26.279  0.00  0.00    +0.011 C 
ATOM     18  C   UNL     1      -3.640   3.977  25.765  0.00  0.00    +0.041 C 
ATOM     19  C   UNL     1      -4.283   3.493  25.191  0.00  0.00    +0.098 C 
ATOM     20  N   UNL     1      -3.773   2.920  24.861  0.00  0.00    -0.155 NA
ATOM     21  C   UNL     1      -3.728   3.463  25.319  0.00  0.00    +0.102 C 
ATOM     30  C   UNL     1      -2.917   3.405  25.495  0.00  0.00    +0.110 C 
ATOM     31  N   UNL     1      -2.800   2.881  25.096  0.00  0.00    -0.298 N 
ATOM     32  C   UNL     1      -2.397   2.274  24.709  0.00  0.00    +0.276 A 
ATOM     33  O   UNL     1      -2.882   1.683  24.091  0.00  0.00    -0.266 OA
ENDROOT
BRANCH  12  11
ATOM      9  C   UNL     1      -0.703   0.851  24.804  0.00  0.00    +0.269 C 
ATOM     10  O   UNL     1      -0.634   0.216  25.387  0.00  0.00    -0.268 OA
ATOM     11  N   UNL     1      -1.112   1.606  24.515  0.00  0.00    -0.171 NA
BRANCH   9   6
ATOM      3  C   UNL     1       0.912   0.024  23.103  0.00  0.00    +0.139 A 
ATOM      4  C   UNL     1       0.277  -0.415  23.393  0.00  0.00    +0.037 A 
ATOM      5  C   UNL     1      -0.227  -0.089  23.958  0.00  0.00    +0.008 A 
ATOM      6  C   UNL     1      -0.097   0.678  24.233  0.00  0.00    +0.056 A 
ATOM      7  C   UNL     1       0.538   1.118  23.944  0.00  0.00    +0.008 A 
ATOM      8  C   UNL     1       1.043   0.791  23.378  0.00  0.00    +0.037 A 
BRANCH   3   2
ATOM      1  C   UNL     1       2.160   0.030  22.407  0.00  0.00    +0.252 C 
ATOM      2  O   UNL     1       1.416  -0.302  22.538  0.00  0.00    -0.471 OA
ENDBRANCH   3   2
ENDBRANCH   9   6
ENDBRANCH  12  11
BRANCH  20  22
ATOM     22  S   UNL     1      -3.681   2.248  24.335  0.00  0.00    +0.069 S 
ATOM     23  O   UNL     1      -2.884   2.409  23.957  0.00  0.00    -0.152 OA
ATOM     24  O   UNL     1      -3.596   1.592  23.824  0.00  0.00    -0.152 OA
BRANCH  22  25
ATOM     25  C   UNL     1      -4.563   2.068  24.752  0.00  0.00    +0.152 A 
ATOM     26  C   UNL     1      -4.718   1.563  25.386  0.00  0.00    +0.027 A 
ATOM     27  C   UNL     1      -5.528   1.590  25.541  0.00  0.00    +0.009 A 
ATOM     28  C   UNL     1      -5.873   2.111  25.002  0.00  0.00    +0.037 A 
ATOM     29  S   UNL     1      -5.277   2.406  24.514  0.00  0.00    -0.067 S 
ENDBRANCH  22  25
ENDBRANCH  20  22
TORSDOF 5
ENDMDL
MODEL 5
REMARK VINA RESULT:     -12.0      1.277      2.365
REMARK  Name = 
REMARK  5 active torsions:
REMARK  status: ('A' for Active; 'I' for Inactive)
REMARK    1  A    between atoms: O_2  and  C_3
REMARK    2  A    between atoms: C_6  and  C_9
REMARK    3  A    between atoms: N_11  and  C_12
REMARK    4  A    between atoms: N_20  and  S_22
REMARK    5  A    between atoms: S_22  and  C_25
REMARK                            x       y       z     vdW  Elec       q    Type
REMARK                         _______ _______ _______ _____ _____    ______ ____
ROOT
ATOM     12  C   UNL     1      -2.047   1.096  25.059  0.00  0.00    +0.130 A 
ATOM     13  C   UNL     1      -1.124   1.008  25.377  0.00  0.00    +0.023 A 
ATOM     14  C   UNL     1      -0.797   1.760  25.461  0.00  0.00    +0.014 A 
ATOM     15  C   UNL     1      -1.247   2.428  25.282  0.00  0.00    +0.041 A 
ATOM     16  C   UNL     1      -1.189   3.345  25.268  0.00  0.00    +0.056 C 
ATOM     17  C   UNL     1      -0.743   3.870  25.400  0.00  0.00    +0.011 C 
ATOM     18  C   UNL     1      -1.511   3.782  25.142  0.00  0.00    +0.041 C 
ATOM     19  C   UNL     1      -2.440   3.882  24.821  0.00  0.00    +0.098 C 
ATOM     20  N   UNL     1      -2.660   3.077  24.777  0.00  0.00    -0.155 NA
ATOM     21  C   UNL     1      -2.086   3.457  24.958  0.00  0.00    +0.102 C 
ATOM     30  C   UNL     1      -1.581   2.825  25.154  0.00  0.00    +0.110 C 
ATOM     31  N   UNL     1      -2.025   2.342  25.021  0.00  0.00    -0.298 N 
ATOM     32  C   UNL     1      -2.352   1.590  24.937  0.00  0.00    +0.276 A 
ATOM     33  O   UNL     1      -3.279   1.493  24.625  0.00  0.00    -0.266 OA
ENDROOT
BRANCH  12  11
ATOM      9  C   UNL     1      -1.943  -0.538  25.625  0.00  0.00    +0.269 C 
ATOM     10  O   UNL     1      -1.633  -0.825  26.380  0.00  0.00    -0.268 OA
ATOM     11  N   UNL     1      -2.129   0.151  25.067  0.00  0.00    -0.171 NA
BRANCH   9   6
ATOM      3  C   UNL     1      -2.970  -2.560  24.605  0.00  0.00    +0.139 A 
ATOM      4  C   UNL     1      -3.353  -2.064  25.140  0.00  0.00    +0.037 A 
ATOM      5  C   UNL     1      -2.962  -1.406  25.447  0.00  0.00    +0.008 A 
ATOM      6  C   UNL     1      -2.187  -1.244  25.218  0.00  0.00    +0.056 A 
ATOM      7  C   UNL     1      -1.802  -1.739  24.681  0.00  0.00    +0.008 A 
ATOM      8  C   UNL     1      -2.194  -2.398  24.375  0.00  0.00    +0.037 A 
BRANCH   3   2
ATOM      1  C   UNL     1      -4.071  -3.123  23.888  0.00  0.00    +0.252 C 
ATOM      2  O   UNL     1      -3.361  -3.218  24.298  0.00  0.00    -0.471 OA
ENDBRANCH   3   2
ENDBRANCH   9   6
ENDBRANCH  12  11
BRANCH  20  22
ATOM     22  S   UNL     1      -3.268   2.501  24.591  0.00  0.00    +0.069 S 
ATOM     23  O   UNL     1      -2.796   1.842  24.206  0.00  0.00    -0.152 OA
ATOM     24  O   UNL     1      -3.864   1.942  24.412  0.00  0.00    -0.152 OA
BRANCH  22  25
ATOM     25  C   UNL     1      -3.792   3.228  25.016  0.00  0.00    +0.152 A 
ATOM     26  C   UNL     1      -3.993   3.293  25.814  0.00  0.00    +0.027 A 
ATOM     27  C   UNL     1      -4.430   3.986  25.910  0.00  0.00    +0.009 A 
ATOM     28  C   UNL     1      -4.500   4.348  25.171  0.00  0.00    +0.037 A 
ATOM     29  S   UNL     1      -4.106   3.879  24.619  0.00  0.00    -0.067 S 
ENDBRANCH  22  25
ENDBRANCH  20  22
TORSDOF 5
ENDMDL
MODEL 6
REMARK VINA RESULT:     -11.6      2.464      3.052
REMARK  Name = 
REMARK  5 active torsions:
REMARK  status: ('A' for Active; 'I' for Inactive)
REMARK    1  A    between atoms: O_2  and  C_3
REMARK    2  A    between atoms: C_6  and  C_9
REMARK    3  A    between atoms: N_11  and  C_12
REMARK    4  A    between atoms: N_20  and  S_22
REMARK    5  A    between atoms: S_22  and  C_25
REMARK                            x       y       z     vdW  Elec       q    Type
REMARK                         _______ _______ _______ _____ _____    ______ ____
ROOT
ATOM     12  C   UNL     1      -2.637   0.869  24.453  0.00  0.00    +0.130 A 
ATOM     13  C   UNL     1      -2.877  -0.038  24.738  0.00  0.00    +0.023 A 
ATOM     14  C   UNL     1      -3.676  -0.051  24.943  0.00  0.00    +0.014 A 
ATOM     15  C   UNL     1      -4.128   0.636  24.887  0.00  0.00    +0.041 A 
ATOM     16  C   UNL     1      -4.983   0.942  25.026  0.00  0.00    +0.056 C 
ATOM     17  C   UNL     1      -5.617   0.728  25.239  0.00  0.00    +0.011 C 
ATOM     18  C   UNL     1      -5.270   1.418  24.981  0.00  0.00    +0.041 C 
ATOM     19  C   UNL     1      -5.038   2.335  24.695  0.00  0.00    +0.098 C 
ATOM     20  N   UNL     1      -4.229   2.226  24.518  0.00  0.00    -0.155 NA
ATOM     21  C   UNL     1      -4.775   1.833  24.753  0.00  0.00    +0.102 C 
ATOM     30  C   UNL     1      -4.374   1.108  24.832  0.00  0.00    +0.110 C 
ATOM     31  N   UNL     1      -3.780   1.338  24.625  0.00  0.00    -0.298 N 
ATOM     32  C   UNL     1      -2.981   1.351  24.421  0.00  0.00    +0.276 A 
ATOM     33  O   UNL     1      -2.572   2.188  24.110  0.00  0.00    -0.266 OA
ENDROOT
BRANCH  12  11
ATOM      9  C   UNL     1      -0.979   0.482  24.771  0.00  0.00    +0.269 C 
ATOM     10  O   UNL     1      -0.544   0.559  25.514  0.00  0.00    -0.268 OA
ATOM     11  N   UNL     1      -1.749   0.574  24.302  0.00  0.00    -0.171 NA
BRANCH   9   6
ATOM      3  C   UNL     1       0.818  -0.092  23.152  0.00  0.00    +0.139 A 
ATOM      4  C   UNL     1       0.681   0.667  23.443  0.00  0.00    +0.037 A 
ATOM      5  C   UNL     1       0.068   0.799  23.979  0.00  0.00    +0.008 A 
ATOM      6  C   UNL     1      -0.406   0.171  24.225  0.00  0.00    +0.056 A 
ATOM      7  C   UNL     1      -0.269  -0.589  23.935  0.00  0.00    +0.008 A 
ATOM      8  C   UNL     1       0.344  -0.721  23.397  0.00  0.00    +0.037 A 
BRANCH   3   2
ATOM      1  C   UNL     1       2.153   0.165  22.709  0.00  0.00    +0.252 C 
ATOM      2  O   UNL     1       1.431  -0.223  22.615  0.00  0.00    -0.471 OA
ENDBRANCH   3   2
ENDBRANCH   9   6
ENDBRANCH  12  11
BRANCH  20  22
ATOM     22  S   UNL     1      -3.493   2.575  24.247  0.00  0.00    +0.069 S 
ATOM     23  O   UNL     1      -3.168   1.936  23.707  0.00  0.00    -0.152 OA
ATOM     24  O   UNL     1      -2.777   2.917  23.984  0.00  0.00    -0.152 OA
BRANCH  22  25
ATOM     25  C   UNL     1      -3.851   3.282  24.844  0.00  0.00    +0.152 A 
ATOM     26  C   UNL     1      -3.647   3.415  25.632  0.00  0.00    +0.027 A 
ATOM     27  C   UNL     1      -4.083   4.060  25.902  0.00  0.00    +0.009 A 
ATOM     28  C   UNL     1      -4.557   4.326  25.281  0.00  0.00    +0.037 A 
ATOM     29  S   UNL     1      -4.413   3.845  24.626  0.00  0.00    -0.067 S 
ENDBRANCH  22  25
ENDBRANCH  20  22
TORSDOF 5
ENDMDL
