MODEL 1
REMARK VINA RESULT:     -10.1      0.000      0.000
REMARK  Name = 
REMARK  9 active torsions:
REMARK  status: ('A' for Active; 'I' for Inactive)
REMARK    1  A    between atoms: C_2  and  C_4
REMARK    2  A    between atoms: C_6  and  C_7
REMARK    3  A    between atoms: C_7  and  C_8
REMARK    4  A    between atoms: C_11  and  C_13
REMARK    5  A    between atoms: C_22  and  C_23
REMARK    6  A    between atoms: C_23  and  N_24
REMARK    7  A    between atoms: N_24  and  C_26
REMARK    8  A    between atoms: C_26  and  C_27
REMARK    9  A    between atoms: C_27  and  C_28
REMARK                            x       y       z     vdW  Elec       q    Type
REMARK                         _______ _______ _______ _____ _____    ______ ____
ROOT
ATOM      4  C   UNL     1      -3.335   1.932  23.831  0.00  0.00    +0.006 C 
ATOM      5  C   UNL     1      -3.731   1.229  24.003  0.00  0.00    +0.005 C 
ATOM      6  C   UNL     1      -4.343   1.225  24.556  0.00  0.00    +0.027 C 
ATOM     19  C   UNL     1      -4.560   1.925  24.936  0.00  0.00    -0.048 C 
ATOM     20  C   UNL     1      -5.172   1.921  25.490  0.00  0.00    +0.026 C 
ATOM     21  C   UNL     1      -4.164   2.628  24.764  0.00  0.00    -0.034 C 
ATOM     22  C   UNL     1      -3.552   2.632  24.211  0.00  0.00    +0.037 C 
ENDROOT
BRANCH   4   2
ATOM      1  C   UNL     1      -2.876   2.139  22.494  0.00  0.00    +0.000 C 
ATOM      2  C   UNL     1      -2.723   1.937  23.278  0.00  0.00    +0.000 C 
ATOM      3  C   UNL     1      -1.956   1.738  23.511  0.00  0.00    +0.000 C 
ENDBRANCH   4   2
BRANCH   6   7
ATOM      7  C   UNL     1      -4.739   0.523  24.729  0.00  0.00    +0.091 C 
BRANCH   7   8
ATOM      8  C   UNL     1      -4.314  -0.141  24.973  0.00  0.00    +0.227 A 
ATOM      9  N   UNL     1      -4.121  -0.334  25.751  0.00  0.00    -0.111 NA
ATOM     10  N   UNL     1      -3.695  -1.041  25.740  0.00  0.00    -0.107 NA
ATOM     11  C   UNL     1      -3.626  -1.285  24.956  0.00  0.00    +0.251 A 
ATOM     12  O   UNL     1      -4.008  -0.728  24.480  0.00  0.00    -0.419 OA
BRANCH  11  13
ATOM     13  C   UNL     1      -3.242  -1.965  24.690  0.00  0.00    +0.074 A 
ATOM     14  C   UNL     1      -2.418  -1.975  24.629  0.00  0.00    +0.104 A 
ATOM     15  N   UNL     1      -2.034  -2.656  24.364  0.00  0.00    -0.242 NA
ATOM     16  C   UNL     1      -2.471  -3.324  24.160  0.00  0.00    +0.099 A 
ATOM     17  C   UNL     1      -3.294  -3.313  24.221  0.00  0.00    +0.021 A 
ATOM     18  C   UNL     1      -3.678  -2.633  24.486  0.00  0.00    +0.008 A 
ENDBRANCH  11  13
ENDBRANCH   7   8
ENDBRANCH   6   7
BRANCH  22  23
ATOM     23  C   UNL     1      -3.156   3.334  24.039  0.00  0.00    +0.076 C 
BRANCH  23  24
ATOM     24  N   UNL     1      -3.176   3.961  24.574  0.00  0.00    -0.270 NA
ATOM     25  C   UNL     1      -3.859   4.418  24.651  0.00  0.00    +0.090 C 
BRANCH  24  26
ATOM     26  C   UNL     1      -2.512   4.132  25.034  0.00  0.00    +0.088 C 
BRANCH  26  27
ATOM     27  C   UNL     1      -2.224   4.904  25.070  0.00  0.00    +0.123 C 
BRANCH  27  28
ATOM     28  C   UNL     1      -1.409   5.040  25.072  0.00  0.00    +0.075 C 
ATOM     29  N   UNL     1      -0.596   5.176  25.075  0.00  0.00    -0.196 NA
ENDBRANCH  27  28
ENDBRANCH  26  27
ENDBRANCH  24  26
ENDBRANCH  23  24
ENDBRANCH  22  23
TORSDOF 9
ENDMDL
MODEL 2
REMARK VINA RESULT:      -9.8      2.506      4.612
REMARK  Name = 
REMARK  9 active torsions:
REMARK  status: ('A' for Active; 'I' for Inactive)
REMARK    1  A    between atoms: C_2  and  C_4
REMARK    2  A    between atoms: C_6  and  C_7
REMARK    3  A    between atoms: C_7  and  C_8
REMARK    4  A    between atoms: C_11  and  C_13
REMARK    5  A    between atoms: C_22  and  C_23
REMARK    6  A    between atoms: C_23  and  N_24
REMARK    7  A    between atoms: N_24  and  C_26
REMARK    8  A    between atoms: C_26  and  C_27
REMARK    9  A    between atoms: C_27  and  C_28
REMARK                            x       y       z     vdW  Elec       q    Type
REMARK                         _______ _______ _______ _____ _____    ______ ____
ROOT
ATOM      4  C   UNL     1      -1.195   2.302  24.511  0.00  0.00    +0.006 C 
ATOM      5  C   UNL     1      -1.863   2.728  24.280  0.00  0.00    +0.005 C 
ATOM      6  C   UNL     1      -2.303   2.485  23.625  0.00  0.00    +0.027 C 
ATOM     19  C   UNL     1      -2.074   1.815  23.202  0.00  0.00    -0.048 C 
ATOM     20  C   UNL     1      -2.514   1.572  22.547  0.00  0.00    +0.026 C 
ATOM     21  C   UNL     1      -1.406   1.389  23.432  0.00  0.00    -0.034 C 
ATOM     22  C   UNL     1      -0.966   1.632  24.086  0.00  0.00    +0.037 C 
ENDROOT
BRANCH   4   2
ATOM      1  C   UNL     1      -0.902   2.216  25.906  0.00  0.00    +0.000 C 
ATOM      2  C   UNL     1      -0.755   2.545  25.165  0.00  0.00    +0.000 C 
ATOM      3  C   UNL     1      -0.168   3.118  25.077  0.00  0.00    +0.000 C 
ENDBRANCH   4   2
BRANCH   6   7
ATOM      7  C   UNL     1      -2.969   2.911  23.395  0.00  0.00    +0.091 C 
BRANCH   7   8
ATOM      8  C   UNL     1      -3.561   3.080  23.944  0.00  0.00    +0.227 A 
ATOM      9  N   UNL     1      -3.729   3.822  24.263  0.00  0.00    -0.111 NA
ATOM     10  N   UNL     1      -4.361   3.738  24.788  0.00  0.00    -0.107 NA
ATOM     11  C   UNL     1      -4.583   2.944  24.793  0.00  0.00    +0.251 A 
ATOM     12  O   UNL     1      -4.089   2.537  24.271  0.00  0.00    -0.419 OA
BRANCH  11  13
ATOM     13  C   UNL     1      -5.192   2.613  25.239  0.00  0.00    +0.074 A 
ATOM     14  C   UNL     1      -5.381   2.931  25.977  0.00  0.00    +0.104 A 
ATOM     15  N   UNL     1      -5.991   2.600  26.425  0.00  0.00    -0.242 NA
ATOM     16  C   UNL     1      -6.410   1.952  26.135  0.00  0.00    +0.099 A 
ATOM     17  C   UNL     1      -6.221   1.634  25.397  0.00  0.00    +0.021 A 
ATOM     18  C   UNL     1      -5.612   1.965  24.950  0.00  0.00    +0.008 A 
ENDBRANCH  11  13
ENDBRANCH   7   8
ENDBRANCH   6   7
BRANCH  22  23
ATOM     23  C   UNL     1      -0.300   1.206  24.316  0.00  0.00    +0.076 C 
BRANCH  23  24
ATOM     24  N   UNL     1      -0.095   0.513  23.919  0.00  0.00    -0.270 NA
ATOM     25  C   UNL     1      -0.473  -0.197  24.104  0.00  0.00    +0.090 C 
BRANCH  24  26
ATOM     26  C   UNL     1       0.489   0.529  23.335  0.00  0.00    +0.088 C 
BRANCH  26  27
ATOM     27  C   UNL     1       1.003  -0.110  23.249  0.00  0.00    +0.123 C 
BRANCH  27  28
ATOM     28  C   UNL     1       1.682  -0.033  22.785  0.00  0.00    +0.075 C 
ATOM     29  N   UNL     1       2.359   0.043  22.321  0.00  0.00    -0.196 NA
ENDBRANCH  27  28
ENDBRANCH  26  27
ENDBRANCH  24  26
ENDBRANCH  23  24
ENDBRANCH  22  23
TORSDOF 9
ENDMDL
MODEL 3
REMARK VINA RESULT:      -9.6      1.191      5.154
REMARK  Name = 
REMARK  9 active torsions:
REMARK  status: ('A' for Active; 'I' for Inactive)
REMARK    1  A    between atoms: C_2  and  C_4
REMARK    2  A    between atoms: C_6  and  C_7
REMARK    3  A    between atoms: C_7  and  C_8
REMARK    4  A    between atoms: C_11  and  C_13
REMARK    5  A    between atoms: C_22  and  C_23
REMARK    6  A    between atoms: C_23  and  N_24
REMARK    7  A    between atoms: N_24  and  C_26
REMARK    8  A    between atoms: C_26  and  C_27
REMARK    9  A    between atoms: C_27  and  C_28
REMARK                            x       y       z     vdW  Elec       q    Type
REMARK                         _______ _______ _______ _____ _____    ______ ____
ROOT
ATOM      4  C   UNL     1      -3.362   1.247  23.887  0.00  0.00    +0.006 C 
ATOM      5  C   UNL     1      -3.566   1.994  24.169  0.00  0.00    +0.005 C 
ATOM      6  C   UNL     1      -4.195   2.079  24.698  0.00  0.00    +0.027 C 
ATOM     19  C   UNL     1      -4.619   1.415  24.943  0.00  0.00    -0.048 C 
ATOM     20  C   UNL     1      -5.248   1.500  25.471  0.00  0.00    +0.026 C 
ATOM     21  C   UNL     1      -4.415   0.667  24.661  0.00  0.00    -0.034 C 
ATOM     22  C   UNL     1      -3.787   0.582  24.133  0.00  0.00    +0.037 C 
ENDROOT
BRANCH   4   2
ATOM      1  C   UNL     1      -1.981   0.980  23.640  0.00  0.00    +0.000 C 
ATOM      2  C   UNL     1      -2.734   1.162  23.359  0.00  0.00    +0.000 C 
ATOM      3  C   UNL     1      -2.861   1.258  22.549  0.00  0.00    +0.000 C 
ENDBRANCH   4   2
BRANCH   6   7
ATOM      7  C   UNL     1      -4.399   2.826  24.980  0.00  0.00    +0.091 C 
BRANCH   7   8
ATOM      8  C   UNL     1      -3.822   3.315  25.309  0.00  0.00    +0.227 A 
ATOM      9  N   UNL     1      -3.783   3.558  26.095  0.00  0.00    -0.111 NA
ATOM     10  N   UNL     1      -3.118   4.041  26.181  0.00  0.00    -0.107 NA
ATOM     11  C   UNL     1      -2.747   4.095  25.447  0.00  0.00    +0.251 A 
ATOM     12  O   UNL     1      -3.181   3.646  24.907  0.00  0.00    -0.419 OA
BRANCH  11  13
ATOM     13  C   UNL     1      -2.062   4.522  25.280  0.00  0.00    +0.074 A 
ATOM     14  C   UNL     1      -2.096   5.344  25.206  0.00  0.00    +0.104 A 
ATOM     15  N   UNL     1      -1.410   5.771  25.039  0.00  0.00    -0.242 NA
ATOM     16  C   UNL     1      -0.692   5.379  24.947  0.00  0.00    +0.099 A 
ATOM     17  C   UNL     1      -0.657   4.557  25.021  0.00  0.00    +0.021 A 
ATOM     18  C   UNL     1      -1.342   4.130  25.188  0.00  0.00    +0.008 A 
ENDBRANCH  11  13
ENDBRANCH   7   8
ENDBRANCH   6   7
BRANCH  22  23
ATOM     23  C   UNL     1      -3.583  -0.165  23.851  0.00  0.00    +0.076 C 
BRANCH  23  24
ATOM     24  N   UNL     1      -3.906  -0.839  24.198  0.00  0.00    -0.270 NA
ATOM     25  C   UNL     1      -4.695  -1.038  24.058  0.00  0.00    +0.090 C 
BRANCH  24  26
ATOM     26  C   UNL     1      -3.440  -1.316  24.685  0.00  0.00    +0.088 C 
BRANCH  26  27
ATOM     27  C   UNL     1      -3.362  -2.121  24.521  0.00  0.00    +0.123 C 
BRANCH  27  28
ATOM     28  C   UNL     1      -2.640  -2.499  24.649  0.00  0.00    +0.075 C 
ATOM     29  N   UNL     1      -1.919  -2.878  24.778  0.00  0.00    -0.196 NA
ENDBRANCH  27  28
ENDBRANCH  26  27
ENDBRANCH  24  26
ENDBRANCH  23  24
ENDBRANCH  22  23
TORSDOF 9
ENDMDL
MODEL 4
REMARK VINA RESULT:      -9.6      1.497      2.549
REMARK  Name = 
REMARK  9 active torsions:
REMARK  status: ('A' for Active; 'I' for Inactive)
REMARK    1  A    between atoms: C_2  and  C_4
REMARK    2  A    between atoms: C_6  and  C_7
REMARK    3  A    between atoms: C_7  and  C_8
REMARK    4  A    between atoms: C_11  and  C_13
REMARK    5  A    between atoms: C_22  and  C_23
REMARK    6  A    between atoms: C_23  and  N_24
REMARK    7  A    between atoms: N_24  and  C_26
REMARK    8  A    between atoms: C_26  and  C_27
REMARK    9  A    between atoms: C_27  and  C_28
REMARK                            x       y       z     vdW  Elec       q    Type
REMARK                         _______ _______ _______ _____ _____    ______ ____
ROOT
ATOM      4  C   UNL     1      -2.097   1.877  23.822  0.00  0.00    +0.006 C 
ATOM      5  C   UNL     1      -1.564   1.260  23.950  0.00  0.00    +0.005 C 
ATOM      6  C   UNL     1      -1.127   1.232  24.650  0.00  0.00    +0.027 C 
ATOM     19  C   UNL     1      -1.223   1.821  25.220  0.00  0.00    -0.048 C 
ATOM     20  C   UNL     1      -0.785   1.792  25.919  0.00  0.00    +0.026 C 
ATOM     21  C   UNL     1      -1.755   2.437  25.091  0.00  0.00    -0.034 C 
ATOM     22  C   UNL     1      -2.193   2.466  24.392  0.00  0.00    +0.037 C 
ENDROOT
BRANCH   4   2
ATOM      1  C   UNL     1      -3.274   1.544  23.084  0.00  0.00    +0.000 C 
ATOM      2  C   UNL     1      -2.535   1.906  23.123  0.00  0.00    +0.000 C 
ATOM      3  C   UNL     1      -2.231   2.298  22.462  0.00  0.00    +0.000 C 
ENDBRANCH   4   2
BRANCH   6   7
ATOM      7  C   UNL     1      -0.595   0.616  24.778  0.00  0.00    +0.091 C 
BRANCH   7   8
ATOM      8  C   UNL     1      -0.831  -0.165  24.660  0.00  0.00    +0.227 A 
ATOM      9  N   UNL     1      -0.381  -0.760  24.309  0.00  0.00    -0.111 NA
ATOM     10  N   UNL     1      -0.832  -1.453  24.305  0.00  0.00    -0.107 NA
ATOM     11  C   UNL     1      -1.560  -1.284  24.654  0.00  0.00    +0.251 A 
ATOM     12  O   UNL     1      -1.560  -0.488  24.874  0.00  0.00    -0.419 OA
BRANCH  11  13
ATOM     13  C   UNL     1      -2.180  -1.816  24.764  0.00  0.00    +0.074 A 
ATOM     14  C   UNL     1      -2.196  -2.524  24.340  0.00  0.00    +0.104 A 
ATOM     15  N   UNL     1      -2.816  -3.057  24.450  0.00  0.00    -0.242 NA
ATOM     16  C   UNL     1      -3.420  -2.883  24.983  0.00  0.00    +0.099 A 
ATOM     17  C   UNL     1      -3.404  -2.175  25.408  0.00  0.00    +0.021 A 
ATOM     18  C   UNL     1      -2.784  -1.643  25.298  0.00  0.00    +0.008 A 
ENDBRANCH  11  13
ENDBRANCH   7   8
ENDBRANCH   6   7
BRANCH  22  23
ATOM     23  C   UNL     1      -2.725   3.082  24.264  0.00  0.00    +0.076 C 
BRANCH  23  24
ATOM     24  N   UNL     1      -2.969   3.555  24.894  0.00  0.00    -0.270 NA
ATOM     25  C   UNL     1      -2.517   4.207  25.120  0.00  0.00    +0.090 C 
BRANCH  24  26
ATOM     26  C   UNL     1      -3.667   3.376  25.298  0.00  0.00    +0.088 C 
BRANCH  26  27
ATOM     27  C   UNL     1      -4.250   3.952  25.387  0.00  0.00    +0.123 C 
BRANCH  27  28
ATOM     28  C   UNL     1      -5.015   3.733  25.607  0.00  0.00    +0.075 C 
ATOM     29  N   UNL     1      -5.779   3.514  25.827  0.00  0.00    -0.196 NA
ENDBRANCH  27  28
ENDBRANCH  26  27
ENDBRANCH  24  26
ENDBRANCH  23  24
ENDBRANCH  22  23
TORSDOF 9
ENDMDL
MODEL 5
REMARK VINA RESULT:      -9.5      1.897      3.102
REMARK  Name = 
REMARK  9 active torsions:
REMARK  status: ('A' for Active; 'I' for Inactive)
REMARK    1  A    between atoms: C_2  and  C_4
REMARK    2  A    between atoms: C_6  and  C_7
REMARK    3  A    between atoms: C_7  and  C_8
REMARK    4  A    between atoms: C_11  and  C_13
REMARK    5  A    between atoms: C_22  and  C_23
REMARK    6  A    between atoms: C_23  and  N_24
REMARK    7  A    between atoms: N_24  and  C_26
REMARK    8  A    between atoms: C_26  and  C_27
REMARK    9  A    between atoms: C_27  and  C_28
REMARK                            x       y       z     vdW  Elec       q    Type
REMARK                         _______ _______ _______ _____ _____    ______ ____
ROOT
ATOM      4  C   UNL     1      -1.820   3.090  24.738  0.00  0.00    +0.006 C 
ATOM      5  C   UNL     1      -1.334   2.584  24.304  0.00  0.00    +0.005 C 
ATOM      6  C   UNL     1      -1.646   2.157  23.669  0.00  0.00    +0.027 C 
ATOM     19  C   UNL     1      -2.442   2.237  23.471  0.00  0.00    -0.048 C 
ATOM     20  C   UNL     1      -2.754   1.809  22.837  0.00  0.00    +0.026 C 
ATOM     21  C   UNL     1      -2.928   2.742  23.906  0.00  0.00    -0.034 C 
ATOM     22  C   UNL     1      -2.617   3.169  24.540  0.00  0.00    +0.037 C 
ENDROOT
BRANCH   4   2
ATOM      1  C   UNL     1      -1.230   4.283  25.256  0.00  0.00    +0.000 C 
ATOM      2  C   UNL     1      -1.509   3.517  25.372  0.00  0.00    +0.000 C 
ATOM      3  C   UNL     1      -1.478   3.176  26.123  0.00  0.00    +0.000 C 
ENDBRANCH   4   2
BRANCH   6   7
ATOM      7  C   UNL     1      -1.161   1.652  23.235  0.00  0.00    +0.091 C 
BRANCH   7   8
ATOM      8  C   UNL     1      -0.829   0.988  23.595  0.00  0.00    +0.227 A 
ATOM      9  N   UNL     1      -0.026   0.860  23.730  0.00  0.00    -0.111 NA
ATOM     10  N   UNL     1       0.057   0.127  24.101  0.00  0.00    -0.107 NA
ATOM     11  C   UNL     1      -0.695  -0.197  24.195  0.00  0.00    +0.251 A 
ATOM     12  O   UNL     1      -1.244   0.334  23.882  0.00  0.00    -0.419 OA
BRANCH  11  13
ATOM     13  C   UNL     1      -0.870  -0.925  24.541  0.00  0.00    +0.074 A 
ATOM     14  C   UNL     1      -0.542  -1.123  25.272  0.00  0.00    +0.104 A 
ATOM     15  N   UNL     1      -0.717  -1.852  25.618  0.00  0.00    -0.242 NA
ATOM     16  C   UNL     1      -1.219  -2.381  25.235  0.00  0.00    +0.099 A 
ATOM     17  C   UNL     1      -1.548  -2.183  24.504  0.00  0.00    +0.021 A 
ATOM     18  C   UNL     1      -1.373  -1.455  24.158  0.00  0.00    +0.008 A 
ENDBRANCH  11  13
ENDBRANCH   7   8
ENDBRANCH   6   7
BRANCH  22  23
ATOM     23  C   UNL     1      -3.102   3.675  24.974  0.00  0.00    +0.076 C 
BRANCH  23  24
ATOM     24  N   UNL     1      -3.918   3.671  24.851  0.00  0.00    -0.270 NA
ATOM     25  C   UNL     1      -4.249   4.152  24.268  0.00  0.00    +0.090 C 
BRANCH  24  26
ATOM     26  C   UNL     1      -4.402   3.187  25.312  0.00  0.00    +0.088 C 
BRANCH  26  27
ATOM     27  C   UNL     1      -5.162   3.436  25.513  0.00  0.00    +0.123 C 
BRANCH  27  28
ATOM     28  C   UNL     1      -5.650   2.947  25.965  0.00  0.00    +0.075 C 
ATOM     29  N   UNL     1      -6.138   2.458  26.415  0.00  0.00    -0.196 NA
ENDBRANCH  27  28
ENDBRANCH  26  27
ENDBRANCH  24  26
ENDBRANCH  23  24
ENDBRANCH  22  23
TORSDOF 9
ENDMDL
MODEL 6
REMARK VINA RESULT:      -9.1      1.321      2.136
REMARK  Name = 
REMARK  9 active torsions:
REMARK  status: ('A' for Active; 'I' for Inactive)
REMARK    1  A    between atoms: C_2  and  C_4
REMARK    2  A    between atoms: C_6  and  C_7
REMARK    3  A    between atoms: C_7  and  C_8
REMARK    4  A    between atoms: C_11  and  C_13
REMARK    5  A    between atoms: C_22  and  C_23
REMARK    6  A    between atoms: C_23  and  N_24
REMARK    7  A    between atoms: N_24  and  C_26
REMARK    8  A    between atoms: C_26  and  C_27
REMARK    9  A    between atoms: C_27  and  C_28
REMARK                            x       y       z     vdW  Elec       q    Type
REMARK                         _______ _______ _______ _____ _____    ______ ____
ROOT
ATOM      4  C   UNL     1      -3.396   3.003  24.832  0.00  0.00    +0.006 C 
ATOM      5  C   UNL     1      -3.781   2.397  24.426  0.00  0.00    +0.005 C 
ATOM      6  C   UNL     1      -3.369   1.947  23.869  0.00  0.00    +0.027 C 
ATOM     19  C   UNL     1      -2.574   2.105  23.719  0.00  0.00    -0.048 C 
ATOM     20  C   UNL     1      -2.162   1.655  23.162  0.00  0.00    +0.026 C 
ATOM     21  C   UNL     1      -2.189   2.712  24.125  0.00  0.00    -0.034 C 
ATOM     22  C   UNL     1      -2.600   3.161  24.681  0.00  0.00    +0.037 C 
ENDROOT
BRANCH   4   2
ATOM      1  C   UNL     1      -4.225   4.122  25.151  0.00  0.00    +0.000 C 
ATOM      2  C   UNL     1      -3.807   3.453  25.388  0.00  0.00    +0.000 C 
ATOM      3  C   UNL     1      -3.800   3.231  26.183  0.00  0.00    +0.000 C 
ENDBRANCH   4   2
BRANCH   6   7
ATOM      7  C   UNL     1      -3.753   1.341  23.463  0.00  0.00    +0.091 C 
BRANCH   7   8
ATOM      8  C   UNL     1      -4.006   0.669  23.868  0.00  0.00    +0.227 A 
ATOM      9  N   UNL     1      -4.704   0.598  24.302  0.00  0.00    -0.111 NA
ATOM     10  N   UNL     1      -4.735  -0.167  24.613  0.00  0.00    -0.107 NA
ATOM     11  C   UNL     1      -4.056  -0.567  24.371  0.00  0.00    +0.251 A 
ATOM     12  O   UNL     1      -3.605  -0.051  23.911  0.00  0.00    -0.419 OA
BRANCH  11  13
ATOM     13  C   UNL     1      -3.861  -1.347  24.556  0.00  0.00    +0.074 A 
ATOM     14  C   UNL     1      -3.512  -1.522  25.284  0.00  0.00    +0.104 A 
ATOM     15  N   UNL     1      -3.316  -2.302  25.469  0.00  0.00    -0.242 NA
ATOM     16  C   UNL     1      -3.469  -2.906  24.929  0.00  0.00    +0.099 A 
ATOM     17  C   UNL     1      -3.818  -2.730  24.201  0.00  0.00    +0.021 A 
ATOM     18  C   UNL     1      -4.013  -1.951  24.016  0.00  0.00    +0.008 A 
ENDBRANCH  11  13
ENDBRANCH   7   8
ENDBRANCH   6   7
BRANCH  22  23
ATOM     23  C   UNL     1      -2.216   3.767  25.087  0.00  0.00    +0.076 C 
BRANCH  23  24
ATOM     24  N   UNL     1      -1.392   3.789  25.113  0.00  0.00    -0.270 NA
ATOM     25  C   UNL     1      -0.976   4.295  24.611  0.00  0.00    +0.090 C 
BRANCH  24  26
ATOM     26  C   UNL     1      -0.984   3.304  25.642  0.00  0.00    +0.088 C 
BRANCH  26  27
ATOM     27  C   UNL     1      -0.179   3.427  25.777  0.00  0.00    +0.123 C 
BRANCH  27  28
ATOM     28  C   UNL     1       0.238   2.918  26.274  0.00  0.00    +0.075 C 
ATOM     29  N   UNL     1       0.655   2.409  26.772  0.00  0.00    -0.196 NA
ENDBRANCH  27  28
ENDBRANCH  26  27
ENDBRANCH  24  26
ENDBRANCH  23  24
ENDBRANCH  22  23
TORSDOF 9
ENDMDL
MODEL 7
REMARK VINA RESULT:      -9.0      1.759      5.673
REMARK  Name = 
REMARK  9 active torsions:
REMARK  status: ('A' for Active; 'I' for Inactive)
REMARK    1  A    between atoms: C_2  and  C_4
REMARK    2  A    between atoms: C_6  and  C_7
REMARK    3  A    between atoms: C_7  and  C_8
REMARK    4  A    between atoms: C_11  and  C_13
REMARK    5  A    between atoms: C_22  and  C_23
REMARK    6  A    between atoms: C_23  and  N_24
REMARK    7  A    between atoms: N_24  and  C_26
REMARK    8  A    between atoms: C_26  and  C_27
REMARK    9  A    between atoms: C_27  and  C_28
REMARK                            x       y       z     vdW  Elec       q    Type
REMARK                         _______ _______ _______ _____ _____    ______ ____
ROOT
ATOM      4  C   UNL     1      -2.807   0.523  24.819  0.00  0.00    +0.006 C 
ATOM      5  C   UNL     1      -2.122   0.982  24.795  0.00  0.00    +0.005 C 
ATOM      6  C   UNL     1      -1.397   0.654  25.017  0.00  0.00    +0.027 C 
ATOM     19  C   UNL     1      -1.360  -0.133  25.262  0.00  0.00    -0.048 C 
ATOM     20  C   UNL     1      -0.635  -0.461  25.484  0.00  0.00    +0.026 C 
ATOM     21  C   UNL     1      -2.045  -0.592  25.285  0.00  0.00    -0.034 C 
ATOM     22  C   UNL     1      -2.769  -0.264  25.064  0.00  0.00    +0.037 C 
ENDROOT
BRANCH   4   2
ATOM      1  C   UNL     1      -3.739   0.891  23.801  0.00  0.00    +0.000 C 
ATOM      2  C   UNL     1      -3.531   0.850  24.597  0.00  0.00    +0.000 C 
ATOM      3  C   UNL     1      -4.047   1.138  25.174  0.00  0.00    +0.000 C 
ENDBRANCH   4   2
BRANCH   6   7
ATOM      7  C   UNL     1      -0.713   1.112  24.994  0.00  0.00    +0.091 C 
BRANCH   7   8
ATOM      8  C   UNL     1      -0.715   1.874  25.310  0.00  0.00    +0.227 A 
ATOM      9  N   UNL     1      -0.484   2.083  26.074  0.00  0.00    -0.111 NA
ATOM     10  N   UNL     1      -0.575   2.900  26.153  0.00  0.00    -0.107 NA
ATOM     11  C   UNL     1      -0.862   3.195  25.439  0.00  0.00    +0.251 A 
ATOM     12  O   UNL     1      -0.949   2.561  24.917  0.00  0.00    -0.419 OA
BRANCH  11  13
ATOM     13  C   UNL     1      -1.033   3.984  25.274  0.00  0.00    +0.074 A 
ATOM     14  C   UNL     1      -0.482   4.450  24.872  0.00  0.00    +0.104 A 
ATOM     15  N   UNL     1      -0.653   5.240  24.707  0.00  0.00    -0.242 NA
ATOM     16  C   UNL     1      -1.373   5.564  24.942  0.00  0.00    +0.099 A 
ATOM     17  C   UNL     1      -1.925   5.099  25.344  0.00  0.00    +0.021 A 
ATOM     18  C   UNL     1      -1.754   4.309  25.509  0.00  0.00    +0.008 A 
ENDBRANCH  11  13
ENDBRANCH   7   8
ENDBRANCH   6   7
BRANCH  22  23
ATOM     23  C   UNL     1      -3.453  -0.723  25.087  0.00  0.00    +0.076 C 
BRANCH  23  24
ATOM     24  N   UNL     1      -3.402  -1.535  25.222  0.00  0.00    -0.270 NA
ATOM     25  C   UNL     1      -3.370  -1.825  25.993  0.00  0.00    +0.090 C 
BRANCH  24  26
ATOM     26  C   UNL     1      -3.382  -2.058  24.583  0.00  0.00    +0.088 C 
BRANCH  26  27
ATOM     27  C   UNL     1      -3.904  -2.696  24.557  0.00  0.00    +0.123 C 
BRANCH  27  28
ATOM     28  C   UNL     1      -4.198  -2.960  23.832  0.00  0.00    +0.075 C 
ATOM     29  N   UNL     1      -4.491  -3.223  23.108  0.00  0.00    -0.196 NA
ENDBRANCH  27  28
ENDBRANCH  26  27
ENDBRANCH  24  26
ENDBRANCH  23  24
ENDBRANCH  22  23
TORSDOF 9
ENDMDL
MODEL 8
REMARK VINA RESULT:      -8.9      2.291      4.611
REMARK  Name = 
REMARK  9 active torsions:
REMARK  status: ('A' for Active; 'I' for Inactive)
REMARK    1  A    between atoms: C_2  and  C_4
REMARK    2  A    between atoms: C_6  and  C_7
REMARK    3  A    between atoms: C_7  and  C_8
REMARK    4  A    between atoms: C_11  and  C_13
REMARK    5  A    between atoms: C_22  and  C_23
REMARK    6  A    between atoms: C_23  and  N_24
REMARK    7  A    between atoms: N_24  and  C_26
REMARK    8  A    between atoms: C_26  and  C_27
REMARK    9  A    between atoms: C_27  and  C_28
REMARK                            x       y       z     vdW  Elec       q    Type
REMARK                         _______ _______ _______ _____ _____    ______ ____
ROOT
ATOM      4  C   UNL     1      -1.696  -0.149  24.667  0.00  0.00    +0.006 C 
ATOM      5  C   UNL     1      -2.503  -0.083  24.507  0.00  0.00    +0.005 C 
ATOM      6  C   UNL     1      -2.765   0.418  23.906  0.00  0.00    +0.027 C 
ATOM     19  C   UNL     1      -2.220   0.853  23.465  0.00  0.00    -0.048 C 
ATOM     20  C   UNL     1      -2.483   1.354  22.863  0.00  0.00    +0.026 C 
ATOM     21  C   UNL     1      -1.413   0.787  23.625  0.00  0.00    -0.034 C 
ATOM     22  C   UNL     1      -1.151   0.287  24.226  0.00  0.00    +0.037 C 
ENDROOT
BRANCH   4   2
ATOM      1  C   UNL     1      -1.337  -0.359  26.033  0.00  0.00    +0.000 C 
ATOM      2  C   UNL     1      -1.433  -0.649  25.268  0.00  0.00    +0.000 C 
ATOM      3  C   UNL     1      -1.267  -1.441  25.102  0.00  0.00    +0.000 C 
ENDBRANCH   4   2
BRANCH   6   7
ATOM      7  C   UNL     1      -3.571   0.483  23.746  0.00  0.00    +0.091 C 
BRANCH   7   8
ATOM      8  C   UNL     1      -4.073   0.840  24.294  0.00  0.00    +0.227 A 
ATOM      9  N   UNL     1      -4.553   0.449  24.839  0.00  0.00    -0.111 NA
ATOM     10  N   UNL     1      -4.960   1.020  25.276  0.00  0.00    -0.107 NA
ATOM     11  C   UNL     1      -4.731   1.762  25.001  0.00  0.00    +0.251 A 
ATOM     12  O   UNL     1      -4.183   1.652  24.394  0.00  0.00    -0.419 OA
BRANCH  11  13
ATOM     13  C   UNL     1      -5.003   2.489  25.282  0.00  0.00    +0.074 A 
ATOM     14  C   UNL     1      -5.780   2.563  25.549  0.00  0.00    +0.104 A 
ATOM     15  N   UNL     1      -6.052   3.290  25.830  0.00  0.00    -0.242 NA
ATOM     16  C   UNL     1      -5.547   3.941  25.844  0.00  0.00    +0.099 A 
ATOM     17  C   UNL     1      -4.770   3.867  25.577  0.00  0.00    +0.021 A 
ATOM     18  C   UNL     1      -4.498   3.141  25.296  0.00  0.00    +0.008 A 
ENDBRANCH  11  13
ENDBRANCH   7   8
ENDBRANCH   6   7
BRANCH  22  23
ATOM     23  C   UNL     1      -0.345   0.221  24.385  0.00  0.00    +0.076 C 
BRANCH  23  24
ATOM     24  N   UNL     1       0.197   0.685  23.971  0.00  0.00    -0.270 NA
ATOM     25  C   UNL     1       0.303   1.478  24.175  0.00  0.00    +0.090 C 
BRANCH  24  26
ATOM     26  C   UNL     1       0.633   0.356  23.352  0.00  0.00    +0.088 C 
BRANCH  26  27
ATOM     27  C   UNL     1       1.446   0.491  23.304  0.00  0.00    +0.123 C 
BRANCH  27  28
ATOM     28  C   UNL     1       1.881   0.165  22.683  0.00  0.00    +0.075 C 
ATOM     29  N   UNL     1       2.316  -0.161  22.062  0.00  0.00    -0.196 NA
ENDBRANCH  27  28
ENDBRANCH  26  27
ENDBRANCH  24  26
ENDBRANCH  23  24
ENDBRANCH  22  23
TORSDOF 9
ENDMDL
