MODEL 1
REMARK VINA RESULT:      -9.5      0.000      0.000
REMARK  Name = 
REMARK  4 active torsions:
REMARK  status: ('A' for Active; 'I' for Inactive)
REMARK    1  A    between atoms: N_3  and  C_4
REMARK    2  A    between atoms: C_4  and  C_5
REMARK    3  A    between atoms: N_14  and  C_15
REMARK    4  A    between atoms: C_15  and  C_16
REMARK                            x       y       z     vdW  Elec       q    Type
REMARK                         _______ _______ _______ _____ _____    ______ ____
ROOT
ATOM      1  O   UNL     1      -5.052   1.158  25.043  0.00  0.00    -0.252 OA
ATOM      2  C   UNL     1      -4.304   0.994  24.735  0.00  0.00    +0.308 C 
ATOM      3  N   UNL     1      -4.052   0.269  24.433  0.00  0.00    -0.257 N 
ATOM     11  C   UNL     1      -3.269   0.353  24.187  0.00  0.00    +0.117 C 
ATOM     12  C   UNL     1      -3.037   1.130  24.338  0.00  0.00    +0.113 C 
ATOM     13  C   UNL     1      -2.326   1.529  24.211  0.00  0.00    +0.094 C 
ATOM     14  N   UNL     1      -2.254   2.323  24.422  0.00  0.00    -0.263 NA
ATOM     21  C   UNL     1      -2.894   2.719  24.760  0.00  0.00    +0.094 C 
ATOM     22  C   UNL     1      -3.605   2.321  24.888  0.00  0.00    +0.112 C 
ATOM     23  N   UNL     1      -3.677   1.526  24.677  0.00  0.00    -0.261 N 
ENDROOT
BRANCH   3   4
ATOM      4  C   UNL     1      -4.504  -0.420  24.385  0.00  0.00    +0.141 C 
BRANCH   4   5
ATOM      5  C   UNL     1      -4.150  -1.155  24.506  0.00  0.00    +0.079 A 
ATOM      6  N   UNL     1      -3.847  -1.349  25.249  0.00  0.00    -0.246 NA
ATOM      7  C   UNL     1      -3.493  -2.084  25.370  0.00  0.00    +0.099 A 
ATOM      8  C   UNL     1      -3.443  -2.625  24.750  0.00  0.00    +0.021 A 
ATOM      9  C   UNL     1      -3.746  -2.432  24.008  0.00  0.00    +0.003 A 
ATOM     10  C   UNL     1      -4.100  -1.696  23.886  0.00  0.00    +0.016 A 
ENDBRANCH   4   5
ENDBRANCH   3   4
BRANCH  14  15
ATOM     15  C   UNL     1      -1.543   2.722  24.294  0.00  0.00    +0.139 C 
BRANCH  15  16
ATOM     16  C   UNL     1      -0.932   2.662  24.845  0.00  0.00    +0.155 A 
ATOM     17  N   UNL     1      -0.869   3.089  25.548  0.00  0.00    -0.226 NA
ATOM     18  C   UNL     1      -0.174   2.856  25.927  0.00  0.00    +0.121 A 
ATOM     19  C   UNL     1       0.193   2.285  25.457  0.00  0.00    +0.121 A 
ATOM     20  N   UNL     1      -0.276   2.166  24.788  0.00  0.00    -0.226 NA
ENDBRANCH  15  16
ENDBRANCH  14  15
TORSDOF 4
ENDMDL
MODEL 2
REMARK VINA RESULT:      -9.3      1.106      4.483
REMARK  Name = 
REMARK  4 active torsions:
REMARK  status: ('A' for Active; 'I' for Inactive)
REMARK    1  A    between atoms: N_3  and  C_4
REMARK    2  A    between atoms: C_4  and  C_5
REMARK    3  A    between atoms: N_14  and  C_15
REMARK    4  A    between atoms: C_15  and  C_16
REMARK                            x       y       z     vdW  Elec       q    Type
REMARK                         _______ _______ _______ _____ _____    ______ ____
ROOT
ATOM      1  O   UNL     1      -4.694   2.315  24.268  0.00  0.00    -0.252 OA
ATOM      2  C   UNL     1      -4.003   1.918  24.481  0.00  0.00    +0.308 C 
ATOM      3  N   UNL     1      -3.237   2.220  24.437  0.00  0.00    -0.257 N 
ATOM     11  C   UNL     1      -2.717   1.638  24.705  0.00  0.00    +0.117 C 
ATOM     12  C   UNL     1      -3.162   0.976  24.913  0.00  0.00    +0.113 C 
ATOM     13  C   UNL     1      -2.947   0.237  25.211  0.00  0.00    +0.094 C 
ATOM     14  N   UNL     1      -3.526  -0.328  25.370  0.00  0.00    -0.263 NA
ATOM     21  C   UNL     1      -4.320  -0.155  25.232  0.00  0.00    +0.094 C 
ATOM     22  C   UNL     1      -4.536   0.583  24.935  0.00  0.00    +0.112 C 
ATOM     23  N   UNL     1      -3.957   1.149  24.775  0.00  0.00    -0.261 N 
ENDROOT
BRANCH   3   4
ATOM      4  C   UNL     1      -3.027   2.973  24.173  0.00  0.00    +0.141 C 
BRANCH   4   5
ATOM      5  C   UNL     1      -2.462   3.412  24.583  0.00  0.00    +0.079 A 
ATOM      6  N   UNL     1      -1.660   3.315  24.411  0.00  0.00    -0.246 NA
ATOM      7  C   UNL     1      -1.095   3.754  24.821  0.00  0.00    +0.099 A 
ATOM      8  C   UNL     1      -1.330   4.289  25.403  0.00  0.00    +0.021 A 
ATOM      9  C   UNL     1      -2.130   4.386  25.574  0.00  0.00    +0.003 A 
ATOM     10  C   UNL     1      -2.697   3.948  25.165  0.00  0.00    +0.016 A 
ENDBRANCH   4   5
ENDBRANCH   3   4
BRANCH  14  15
ATOM     15  C   UNL     1      -3.311  -1.067  25.668  0.00  0.00    +0.139 C 
BRANCH  15  16
ATOM     16  C   UNL     1      -3.183  -1.698  25.154  0.00  0.00    +0.155 A 
ATOM     17  N   UNL     1      -2.460  -1.913  24.819  0.00  0.00    -0.226 NA
ATOM     18  C   UNL     1      -2.585  -2.574  24.342  0.00  0.00    +0.121 A 
ATOM     19  C   UNL     1      -3.387  -2.768  24.381  0.00  0.00    +0.121 A 
ATOM     20  N   UNL     1      -3.756  -2.227  24.883  0.00  0.00    -0.226 NA
ENDBRANCH  15  16
ENDBRANCH  14  15
TORSDOF 4
ENDMDL
MODEL 3
REMARK VINA RESULT:      -9.2      1.924      2.608
REMARK  Name = 
REMARK  4 active torsions:
REMARK  status: ('A' for Active; 'I' for Inactive)
REMARK    1  A    between atoms: N_3  and  C_4
REMARK    2  A    between atoms: C_4  and  C_5
REMARK    3  A    between atoms: N_14  and  C_15
REMARK    4  A    between atoms: C_15  and  C_16
REMARK                            x       y       z     vdW  Elec       q    Type
REMARK                         _______ _______ _______ _____ _____    ______ ____
ROOT
ATOM      1  O   UNL     1      -0.180  -0.426  23.724  0.00  0.00    -0.252 OA
ATOM      2  C   UNL     1      -0.571  -0.078  24.362  0.00  0.00    +0.308 C 
ATOM      3  N   UNL     1      -1.161  -0.429  24.820  0.00  0.00    -0.257 N 
ATOM     11  C   UNL     1      -1.396   0.115  25.394  0.00  0.00    +0.117 C 
ATOM     12  C   UNL     1      -0.951   0.802  25.291  0.00  0.00    +0.113 C 
ATOM     13  C   UNL     1      -0.944   1.521  25.696  0.00  0.00    +0.094 C 
ATOM     14  N   UNL     1      -0.429   2.121  25.463  0.00  0.00    -0.263 NA
ATOM     21  C   UNL     1       0.081   2.002  24.825  0.00  0.00    +0.094 C 
ATOM     22  C   UNL     1       0.074   1.283  24.420  0.00  0.00    +0.112 C 
ATOM     23  N   UNL     1      -0.442   0.683  24.653  0.00  0.00    -0.261 N 
ENDROOT
BRANCH   3   4
ATOM      4  C   UNL     1      -1.462  -1.191  24.721  0.00  0.00    +0.141 C 
BRANCH   4   5
ATOM      5  C   UNL     1      -2.277  -1.319  24.749  0.00  0.00    +0.079 A 
ATOM      6  N   UNL     1      -2.748  -1.123  24.100  0.00  0.00    -0.246 NA
ATOM      7  C   UNL     1      -3.562  -1.251  24.129  0.00  0.00    +0.099 A 
ATOM      8  C   UNL     1      -3.906  -1.576  24.805  0.00  0.00    +0.021 A 
ATOM      9  C   UNL     1      -3.435  -1.771  25.453  0.00  0.00    +0.003 A 
ATOM     10  C   UNL     1      -2.620  -1.643  25.426  0.00  0.00    +0.016 A 
ENDBRANCH   4   5
ENDBRANCH   3   4
BRANCH  14  15
ATOM     15  C   UNL     1      -0.422   2.840  25.867  0.00  0.00    +0.139 C 
BRANCH  15  16
ATOM     16  C   UNL     1      -0.917   3.454  25.627  0.00  0.00    +0.155 A 
ATOM     17  N   UNL     1      -1.698   3.568  25.865  0.00  0.00    -0.226 NA
ATOM     18  C   UNL     1      -1.983   4.247  25.492  0.00  0.00    +0.121 A 
ATOM     19  C   UNL     1      -1.376   4.552  25.021  0.00  0.00    +0.121 A 
ATOM     20  N   UNL     1      -0.718   4.061  25.105  0.00  0.00    -0.226 NA
ENDBRANCH  15  16
ENDBRANCH  14  15
TORSDOF 4
ENDMDL
MODEL 4
REMARK VINA RESULT:      -9.2      2.211      3.447
REMARK  Name = 
REMARK  4 active torsions:
REMARK  status: ('A' for Active; 'I' for Inactive)
REMARK    1  A    between atoms: N_3  and  C_4
REMARK    2  A    between atoms: C_4  and  C_5
REMARK    3  A    between atoms: N_14  and  C_15
REMARK    4  A    between atoms: C_15  and  C_16
REMARK                            x       y       z     vdW  Elec       q    Type
REMARK                         _______ _______ _______ _____ _____    ______ ____
ROOT
ATOM      1  O   UNL     1      -3.247   2.625  22.779  0.00  0.00    -0.252 OA
ATOM      2  C   UNL     1      -3.047   2.390  23.544  0.00  0.00    +0.308 C 
ATOM      3  N   UNL     1      -3.474   2.555  24.230  0.00  0.00    -0.257 N 
ATOM     11  C   UNL     1      -3.075   2.215  24.867  0.00  0.00    +0.117 C 
ATOM     12  C   UNL     1      -2.402   1.840  24.575  0.00  0.00    +0.113 C 
ATOM     13  C   UNL     1      -1.802   1.414  24.948  0.00  0.00    +0.094 C 
ATOM     14  N   UNL     1      -1.185   1.095  24.503  0.00  0.00    -0.263 NA
ATOM     21  C   UNL     1      -1.167   1.203  23.686  0.00  0.00    +0.094 C 
ATOM     22  C   UNL     1      -1.766   1.629  23.312  0.00  0.00    +0.112 C 
ATOM     23  N   UNL     1      -2.384   1.948  23.757  0.00  0.00    -0.261 N 
ENDROOT
BRANCH   3   4
ATOM      4  C   UNL     1      -4.177   2.985  24.271  0.00  0.00    +0.141 C 
BRANCH   4   5
ATOM      5  C   UNL     1      -4.788   2.731  24.763  0.00  0.00    +0.079 A 
ATOM      6  N   UNL     1      -5.263   2.095  24.535  0.00  0.00    -0.246 NA
ATOM      7  C   UNL     1      -5.875   1.841  25.027  0.00  0.00    +0.099 A 
ATOM      8  C   UNL     1      -6.012   2.222  25.746  0.00  0.00    +0.021 A 
ATOM      9  C   UNL     1      -5.537   2.856  25.973  0.00  0.00    +0.003 A 
ATOM     10  C   UNL     1      -4.925   3.112  25.482  0.00  0.00    +0.016 A 
ENDBRANCH   4   5
ENDBRANCH   3   4
BRANCH  14  15
ATOM     15  C   UNL     1      -0.584   0.669  24.876  0.00  0.00    +0.139 C 
BRANCH  15  16
ATOM     16  C   UNL     1      -0.638  -0.152  24.938  0.00  0.00    +0.155 A 
ATOM     17  N   UNL     1      -0.361  -0.699  24.386  0.00  0.00    -0.226 NA
ATOM     18  C   UNL     1      -0.529  -1.455  24.670  0.00  0.00    +0.121 A 
ATOM     19  C   UNL     1      -0.911  -1.375  25.398  0.00  0.00    +0.121 A 
ATOM     20  N   UNL     1      -0.978  -0.569  25.563  0.00  0.00    -0.226 NA
ENDBRANCH  15  16
ENDBRANCH  14  15
TORSDOF 4
ENDMDL
MODEL 5
REMARK VINA RESULT:      -9.0      1.668      2.745
REMARK  Name = 
REMARK  4 active torsions:
REMARK  status: ('A' for Active; 'I' for Inactive)
REMARK    1  A    between atoms: N_3  and  C_4
REMARK    2  A    between atoms: C_4  and  C_5
REMARK    3  A    between atoms: N_14  and  C_15
REMARK    4  A    between atoms: C_15  and  C_16
REMARK                            x       y       z     vdW  Elec       q    Type
REMARK                         _______ _______ _______ _____ _____    ______ ____
ROOT
ATOM      1  O   UNL     1      -0.921   0.496  25.446  0.00  0.00    -0.252 OA
ATOM      2  C   UNL     1      -1.720   0.492  25.241  0.00  0.00    +0.308 C 
ATOM      3  N   UNL     1      -2.220  -0.164  25.254  0.00  0.00    -0.257 N 
ATOM     11  C   UNL     1      -2.969   0.081  25.008  0.00  0.00    +0.117 C 
ATOM     12  C   UNL     1      -2.931   0.888  24.842  0.00  0.00    +0.113 C 
ATOM     13  C   UNL     1      -3.499   1.425  24.579  0.00  0.00    +0.094 C 
ATOM     14  N   UNL     1      -3.296   2.215  24.460  0.00  0.00    -0.263 NA
ATOM     21  C   UNL     1      -2.524   2.469  24.604  0.00  0.00    +0.094 C 
ATOM     22  C   UNL     1      -1.955   1.933  24.867  0.00  0.00    +0.112 C 
ATOM     23  N   UNL     1      -2.159   1.142  24.986  0.00  0.00    -0.261 N 
ENDROOT
BRANCH   3   4
ATOM      4  C   UNL     1      -2.009  -0.930  25.475  0.00  0.00    +0.141 C 
BRANCH   4   5
ATOM      5  C   UNL     1      -2.404  -1.577  25.150  0.00  0.00    +0.079 A 
ATOM      6  N   UNL     1      -2.112  -1.938  24.467  0.00  0.00    -0.246 NA
ATOM      7  C   UNL     1      -2.507  -2.585  24.142  0.00  0.00    +0.099 A 
ATOM      8  C   UNL     1      -3.194  -2.872  24.498  0.00  0.00    +0.021 A 
ATOM      9  C   UNL     1      -3.485  -2.512  25.180  0.00  0.00    +0.003 A 
ATOM     10  C   UNL     1      -3.091  -1.864  25.507  0.00  0.00    +0.016 A 
ENDBRANCH   4   5
ENDBRANCH   3   4
BRANCH  14  15
ATOM     15  C   UNL     1      -3.864   2.753  24.196  0.00  0.00    +0.139 C 
BRANCH  15  16
ATOM     16  C   UNL     1      -4.402   3.079  24.729  0.00  0.00    +0.155 A 
ATOM     17  N   UNL     1      -4.288   3.762  25.177  0.00  0.00    -0.226 NA
ATOM     18  C   UNL     1      -4.964   3.885  25.633  0.00  0.00    +0.121 A 
ATOM     19  C   UNL     1      -5.498   3.278  25.466  0.00  0.00    +0.121 A 
ATOM     20  N   UNL     1      -5.150   2.780  24.907  0.00  0.00    -0.226 NA
ENDBRANCH  15  16
ENDBRANCH  14  15
TORSDOF 4
ENDMDL
MODEL 6
REMARK VINA RESULT:      -9.0      1.637      4.844
REMARK  Name = 
REMARK  4 active torsions:
REMARK  status: ('A' for Active; 'I' for Inactive)
REMARK    1  A    between atoms: N_3  and  C_4
REMARK    2  A    between atoms: C_4  and  C_5
REMARK    3  A    between atoms: N_14  and  C_15
REMARK    4  A    between atoms: C_15  and  C_16
REMARK                            x       y       z     vdW  Elec       q    Type
REMARK                         _______ _______ _______ _____ _____    ______ ____
ROOT
ATOM      1  O   UNL     1      -0.216   1.058  24.969  0.00  0.00    -0.252 OA
ATOM      2  C   UNL     1      -1.040   1.034  24.938  0.00  0.00    +0.308 C 
ATOM      3  N   UNL     1      -1.534   1.654  24.709  0.00  0.00    -0.257 N 
ATOM     11  C   UNL     1      -2.315   1.390  24.760  0.00  0.00    +0.117 C 
ATOM     12  C   UNL     1      -2.302   0.608  25.020  0.00  0.00    +0.113 C 
ATOM     13  C   UNL     1      -2.906   0.066  25.172  0.00  0.00    +0.094 C 
ATOM     14  N   UNL     1      -2.723  -0.694  25.433  0.00  0.00    -0.263 NA
ATOM     21  C   UNL     1      -1.936  -0.913  25.544  0.00  0.00    +0.094 C 
ATOM     22  C   UNL     1      -1.331  -0.373  25.393  0.00  0.00    +0.112 C 
ATOM     23  N   UNL     1      -1.515   0.388  25.131  0.00  0.00    -0.261 N 
ENDROOT
BRANCH   3   4
ATOM      4  C   UNL     1      -1.291   2.405  24.470  0.00  0.00    +0.141 C 
BRANCH   4   5
ATOM      5  C   UNL     1      -1.642   3.076  24.798  0.00  0.00    +0.079 A 
ATOM      6  N   UNL     1      -2.353   3.361  24.490  0.00  0.00    -0.246 NA
ATOM      7  C   UNL     1      -2.704   4.032  24.817  0.00  0.00    +0.099 A 
ATOM      8  C   UNL     1      -2.345   4.418  25.451  0.00  0.00    +0.021 A 
ATOM      9  C   UNL     1      -1.635   4.133  25.759  0.00  0.00    +0.003 A 
ATOM     10  C   UNL     1      -1.283   3.462  25.432  0.00  0.00    +0.016 A 
ENDBRANCH   4   5
ENDBRANCH   3   4
BRANCH  14  15
ATOM     15  C   UNL     1      -3.327  -1.235  25.585  0.00  0.00    +0.139 C 
BRANCH  15  16
ATOM     16  C   UNL     1      -3.569  -1.759  24.997  0.00  0.00    +0.155 A 
ATOM     17  N   UNL     1      -4.103  -1.595  24.389  0.00  0.00    -0.226 NA
ATOM     18  C   UNL     1      -4.184  -2.275  23.929  0.00  0.00    +0.121 A 
ATOM     19  C   UNL     1      -3.699  -2.860  24.252  0.00  0.00    +0.121 A 
ATOM     20  N   UNL     1      -3.319  -2.542  24.912  0.00  0.00    -0.226 NA
ENDBRANCH  15  16
ENDBRANCH  14  15
TORSDOF 4
ENDMDL
MODEL 7
REMARK VINA RESULT:      -8.9      2.247      3.486
REMARK  Name = 
REMARK  4 active torsions:
REMARK  status: ('A' for Active; 'I' for Inactive)
REMARK    1  A    between atoms: N_3  and  C_4
REMARK    2  A    between atoms: C_4  and  C_5
REMARK    3  A    between atoms: N_14  and  C_15
REMARK    4  A    between atoms: C_15  and  C_16
REMARK                            x       y       z     vdW  Elec       q    Type
REMARK                         _______ _______ _______ _____ _____    ______ ____
ROOT
ATOM      1  O   UNL     1      -0.473   2.523  25.975  0.00  0.00    -0.252 OA
ATOM      2  C   UNL     1      -1.074   2.255  25.477  0.00  0.00    +0.308 C 
ATOM      3  N   UNL     1      -1.068   1.554  25.043  0.00  0.00    -0.257 N 
ATOM     11  C   UNL     1      -1.777   1.507  24.623  0.00  0.00    +0.117 C 
ATOM     12  C   UNL     1      -2.221   2.179  24.798  0.00  0.00    +0.113 C 
ATOM     13  C   UNL     1      -2.965   2.431  24.546  0.00  0.00    +0.094 C 
ATOM     14  N   UNL     1      -3.274   3.145  24.820  0.00  0.00    -0.263 NA
ATOM     21  C   UNL     1      -2.840   3.607  25.347  0.00  0.00    +0.094 C 
ATOM     22  C   UNL     1      -2.096   3.356  25.600  0.00  0.00    +0.112 C 
ATOM     23  N   UNL     1      -1.786   2.642  25.326  0.00  0.00    -0.261 N 
ENDROOT
BRANCH   3   4
ATOM      4  C   UNL     1      -0.459   0.996  25.031  0.00  0.00    +0.141 C 
BRANCH   4   5
ATOM      5  C   UNL     1      -0.637   0.191  25.019  0.00  0.00    +0.079 A 
ATOM      6  N   UNL     1      -0.937  -0.175  25.695  0.00  0.00    -0.246 NA
ATOM      7  C   UNL     1      -1.115  -0.980  25.683  0.00  0.00    +0.099 A 
ATOM      8  C   UNL     1      -0.994  -1.420  24.996  0.00  0.00    +0.021 A 
ATOM      9  C   UNL     1      -0.695  -1.054  24.320  0.00  0.00    +0.003 A 
ATOM     10  C   UNL     1      -0.516  -0.248  24.331  0.00  0.00    +0.016 A 
ENDBRANCH   4   5
ENDBRANCH   3   4
BRANCH  14  15
ATOM     15  C   UNL     1      -4.018   3.397  24.567  0.00  0.00    +0.139 C 
BRANCH  15  16
ATOM     16  C   UNL     1      -4.698   3.105  24.930  0.00  0.00    +0.155 A 
ATOM     17  N   UNL     1      -5.056   3.410  25.609  0.00  0.00    -0.226 NA
ATOM     18  C   UNL     1      -5.719   2.949  25.777  0.00  0.00    +0.121 A 
ATOM     19  C   UNL     1      -5.773   2.359  25.202  0.00  0.00    +0.121 A 
ATOM     20  N   UNL     1      -5.142   2.456  24.679  0.00  0.00    -0.226 NA
ENDBRANCH  15  16
ENDBRANCH  14  15
TORSDOF 4
ENDMDL
