MODEL 1
REMARK VINA RESULT:     -11.6      0.000      0.000
REMARK  Name = 
REMARK  7 active torsions:
REMARK  status: ('A' for Active; 'I' for Inactive)
REMARK    1  A    between atoms: C_2  and  C_3
REMARK    2  A    between atoms: C_3  and  C_4
REMARK    3  A    between atoms: C_7  and  C_8
REMARK    4  A    between atoms: C_8  and  C_9
REMARK    5  A    between atoms: C_11  and  C_12
REMARK    6  A    between atoms: C_15  and  C_16
REMARK    7  A    between atoms: C_16  and  N_17
REMARK                            x       y       z     vdW  Elec       q    Type
REMARK                         _______ _______ _______ _____ _____    ______ ____
ROOT
ATOM      9  C   UNL     1      -4.023   2.258  24.617  0.00  0.00    +0.027 C 
ATOM     10  C   UNL     1      -3.393   2.253  24.084  0.00  0.00    +0.005 C 
ATOM     11  C   UNL     1      -3.136   1.540  23.757  0.00  0.00    +0.006 C 
ATOM     15  C   UNL     1      -3.509   0.834  23.961  0.00  0.00    +0.037 C 
ATOM     24  C   UNL     1      -4.139   0.839  24.494  0.00  0.00    -0.034 C 
ATOM     25  C   UNL     1      -4.396   1.551  24.822  0.00  0.00    -0.048 C 
ATOM     26  C   UNL     1      -5.025   1.556  25.355  0.00  0.00    +0.026 C 
ENDROOT
BRANCH  11  12
ATOM     12  C   UNL     1      -2.506   1.535  23.224  0.00  0.00    +0.000 C 
ATOM     13  C   UNL     1      -2.647   1.631  22.417  0.00  0.00    +0.000 C 
ATOM     14  C   UNL     1      -1.735   1.435  23.498  0.00  0.00    +0.000 C 
ENDBRANCH  11  12
BRANCH   9   8
ATOM      8  C   UNL     1      -4.280   2.970  24.945  0.00  0.00    +0.091 C 
BRANCH   8   7
ATOM      4  C   UNL     1      -2.796   4.402  25.499  0.00  0.00    +0.226 A 
ATOM      5  N   UNL     1      -3.018   4.109  26.237  0.00  0.00    -0.112 NA
ATOM      6  N   UNL     1      -3.601   3.536  26.120  0.00  0.00    -0.112 NA
ATOM      7  C   UNL     1      -3.739   3.476  25.309  0.00  0.00    +0.226 A 
ATOM     27  O   UNL     1      -3.242   4.011  24.925  0.00  0.00    -0.423 OA
BRANCH   4   3
ATOM      3  C   UNL     1      -2.228   4.983  25.359  0.00  0.00    +0.087 C 
BRANCH   3   2
ATOM      1  C   UNL     1      -0.908   5.287  24.907  0.00  0.00    +0.001 C 
ATOM      2  C   UNL     1      -1.435   4.774  25.281  0.00  0.00    +0.010 C 
ENDBRANCH   3   2
ENDBRANCH   4   3
ENDBRANCH   8   7
ENDBRANCH   9   8
BRANCH  15  16
ATOM     16  C   UNL     1      -3.252   0.121  23.634  0.00  0.00    +0.076 C 
BRANCH  16  17
ATOM     17  N   UNL     1      -3.357  -0.584  24.047  0.00  0.00    -0.272 NA
ATOM     18  C   UNL     1      -3.984  -1.085  23.856  0.00  0.00    +0.075 C 
ATOM     19  C   UNL     1      -4.089  -1.791  24.269  0.00  0.00    +0.050 C 
ATOM     20  C   UNL     1      -3.567  -1.997  24.874  0.00  0.00    +0.155 C 
ATOM     21  O   UNL     1      -3.673  -2.703  25.287  0.00  0.00    -0.223 OA
ATOM     22  C   UNL     1      -2.940  -1.496  25.065  0.00  0.00    +0.050 C 
ATOM     23  C   UNL     1      -2.835  -0.790  24.652  0.00  0.00    +0.075 C 
ENDBRANCH  16  17
ENDBRANCH  15  16
TORSDOF 7
ENDMDL
MODEL 2
REMARK VINA RESULT:     -11.1      1.321      2.124
REMARK  Name = 
REMARK  7 active torsions:
REMARK  status: ('A' for Active; 'I' for Inactive)
REMARK    1  A    between atoms: C_2  and  C_3
REMARK    2  A    between atoms: C_3  and  C_4
REMARK    3  A    between atoms: C_7  and  C_8
REMARK    4  A    between atoms: C_8  and  C_9
REMARK    5  A    between atoms: C_11  and  C_12
REMARK    6  A    between atoms: C_15  and  C_16
REMARK    7  A    between atoms: C_16  and  N_17
REMARK                            x       y       z     vdW  Elec       q    Type
REMARK                         _______ _______ _______ _____ _____    ______ ____
ROOT
ATOM      9  C   UNL     1      -1.679   1.255  24.385  0.00  0.00    +0.027 C 
ATOM     10  C   UNL     1      -2.402   1.650  24.422  0.00  0.00    +0.005 C 
ATOM     11  C   UNL     1      -3.098   1.225  24.549  0.00  0.00    +0.006 C 
ATOM     15  C   UNL     1      -3.071   0.406  24.639  0.00  0.00    +0.037 C 
ATOM     24  C   UNL     1      -2.347   0.011  24.602  0.00  0.00    -0.034 C 
ATOM     25  C   UNL     1      -1.652   0.434  24.475  0.00  0.00    -0.048 C 
ATOM     26  C   UNL     1      -0.929   0.040  24.438  0.00  0.00    +0.026 C 
ENDROOT
BRANCH  11  12
ATOM     12  C   UNL     1      -3.822   1.621  24.586  0.00  0.00    +0.000 C 
ATOM     13  C   UNL     1      -4.206   1.843  23.891  0.00  0.00    +0.000 C 
ATOM     14  C   UNL     1      -4.160   1.794  25.318  0.00  0.00    +0.000 C 
ENDBRANCH  11  12
BRANCH   9   8
ATOM      8  C   UNL     1      -0.983   1.678  24.258  0.00  0.00    +0.091 C 
BRANCH   8   7
ATOM      4  C   UNL     1      -0.749   3.666  25.003  0.00  0.00    +0.226 A 
ATOM      5  N   UNL     1      -0.493   3.222  25.649  0.00  0.00    -0.112 NA
ATOM      6  N   UNL     1      -0.549   2.423  25.449  0.00  0.00    -0.112 NA
ATOM      7  C   UNL     1      -0.840   2.373  24.679  0.00  0.00    +0.226 A 
ATOM     27  O   UNL     1      -0.964   3.141  24.403  0.00  0.00    -0.423 OA
BRANCH   4   3
ATOM      3  C   UNL     1      -0.785   4.489  24.963  0.00  0.00    +0.087 C 
BRANCH   3   2
ATOM      1  C   UNL     1      -1.579   5.675  25.024  0.00  0.00    +0.001 C 
ATOM      2  C   UNL     1      -1.456   4.886  25.232  0.00  0.00    +0.010 C 
ENDBRANCH   3   2
ENDBRANCH   4   3
ENDBRANCH   8   7
ENDBRANCH   9   8
BRANCH  15  16
ATOM     16  C   UNL     1      -3.767  -0.019  24.766  0.00  0.00    +0.076 C 
BRANCH  16  17
ATOM     17  N   UNL     1      -3.772  -0.838  24.677  0.00  0.00    -0.272 NA
ATOM     18  C   UNL     1      -3.991  -1.174  23.956  0.00  0.00    +0.075 C 
ATOM     19  C   UNL     1      -3.996  -1.993  23.867  0.00  0.00    +0.050 C 
ATOM     20  C   UNL     1      -3.782  -2.479  24.499  0.00  0.00    +0.155 C 
ATOM     21  O   UNL     1      -3.787  -3.299  24.409  0.00  0.00    -0.223 OA
ATOM     22  C   UNL     1      -3.563  -2.143  25.220  0.00  0.00    +0.050 C 
ATOM     23  C   UNL     1      -3.558  -1.323  25.309  0.00  0.00    +0.075 C 
ENDBRANCH  16  17
ENDBRANCH  15  16
TORSDOF 7
ENDMDL
MODEL 3
REMARK VINA RESULT:     -11.0      1.380      5.001
REMARK  Name = 
REMARK  7 active torsions:
REMARK  status: ('A' for Active; 'I' for Inactive)
REMARK    1  A    between atoms: C_2  and  C_3
REMARK    2  A    between atoms: C_3  and  C_4
REMARK    3  A    between atoms: C_7  and  C_8
REMARK    4  A    between atoms: C_8  and  C_9
REMARK    5  A    between atoms: C_11  and  C_12
REMARK    6  A    between atoms: C_15  and  C_16
REMARK    7  A    between atoms: C_16  and  N_17
REMARK                            x       y       z     vdW  Elec       q    Type
REMARK                         _______ _______ _______ _____ _____    ______ ____
ROOT
ATOM      9  C   UNL     1      -2.996   1.188  23.995  0.00  0.00    +0.027 C 
ATOM     10  C   UNL     1      -2.315   0.813  24.273  0.00  0.00    +0.005 C 
ATOM     11  C   UNL     1      -1.738   1.250  24.671  0.00  0.00    +0.006 C 
ATOM     15  C   UNL     1      -1.841   2.059  24.789  0.00  0.00    +0.037 C 
ATOM     24  C   UNL     1      -2.522   2.434  24.510  0.00  0.00    -0.034 C 
ATOM     25  C   UNL     1      -3.099   1.999  24.113  0.00  0.00    -0.048 C 
ATOM     26  C   UNL     1      -3.779   2.372  23.835  0.00  0.00    +0.026 C 
ENDROOT
BRANCH  11  12
ATOM     12  C   UNL     1      -1.057   0.875  24.949  0.00  0.00    +0.000 C 
ATOM     13  C   UNL     1      -1.028   0.596  25.724  0.00  0.00    +0.000 C 
ATOM     14  C   UNL     1      -0.406   0.780  24.452  0.00  0.00    +0.000 C 
ENDBRANCH  11  12
BRANCH   9   8
ATOM      8  C   UNL     1      -3.573   0.753  23.598  0.00  0.00    +0.091 C 
BRANCH   8   7
ATOM      4  C   UNL     1      -4.019  -1.263  24.143  0.00  0.00    +0.226 A 
ATOM      5  N   UNL     1      -4.504  -0.846  24.663  0.00  0.00    -0.112 NA
ATOM      6  N   UNL     1      -4.396  -0.040  24.523  0.00  0.00    -0.112 NA
ATOM      7  C   UNL     1      -3.844   0.042  23.915  0.00  0.00    +0.226 A 
ATOM     27  O   UNL     1      -3.611  -0.714  23.680  0.00  0.00    -0.423 OA
BRANCH   4   3
ATOM      3  C   UNL     1      -3.953  -2.084  24.093  0.00  0.00    +0.087 C 
BRANCH   3   2
ATOM      1  C   UNL     1      -3.321  -3.271  24.571  0.00  0.00    +0.001 C 
ATOM      2  C   UNL     1      -3.599  -2.506  24.705  0.00  0.00    +0.010 C 
ENDBRANCH   3   2
ENDBRANCH   4   3
ENDBRANCH   8   7
ENDBRANCH   9   8
BRANCH  15  16
ATOM     16  C   UNL     1      -1.263   2.495  25.186  0.00  0.00    +0.076 C 
BRANCH  16  17
ATOM     17  N   UNL     1      -1.283   3.319  25.166  0.00  0.00    -0.272 NA
ATOM     18  C   UNL     1      -1.772   3.734  25.686  0.00  0.00    +0.075 C 
ATOM     19  C   UNL     1      -1.792   4.557  25.666  0.00  0.00    +0.050 C 
ATOM     20  C   UNL     1      -1.321   4.969  25.127  0.00  0.00    +0.155 C 
ATOM     21  O   UNL     1      -1.341   5.793  25.107  0.00  0.00    -0.223 OA
ATOM     22  C   UNL     1      -0.832   4.555  24.608  0.00  0.00    +0.050 C 
ATOM     23  C   UNL     1      -0.813   3.731  24.627  0.00  0.00    +0.075 C 
ENDBRANCH  16  17
ENDBRANCH  15  16
TORSDOF 7
ENDMDL
MODEL 4
REMARK VINA RESULT:     -10.7      1.069      4.661
REMARK  Name = 
REMARK  7 active torsions:
REMARK  status: ('A' for Active; 'I' for Inactive)
REMARK    1  A    between atoms: C_2  and  C_3
REMARK    2  A    between atoms: C_3  and  C_4
REMARK    3  A    between atoms: C_7  and  C_8
REMARK    4  A    between atoms: C_8  and  C_9
REMARK    5  A    between atoms: C_11  and  C_12
REMARK    6  A    between atoms: C_15  and  C_16
REMARK    7  A    between atoms: C_16  and  N_17
REMARK                            x       y       z     vdW  Elec       q    Type
REMARK                         _______ _______ _______ _____ _____    ______ ____
ROOT
ATOM      9  C   UNL     1      -4.137   0.488  24.257  0.00  0.00    +0.027 C 
ATOM     10  C   UNL     1      -3.548   0.607  23.691  0.00  0.00    +0.005 C 
ATOM     11  C   UNL     1      -3.154   1.332  23.654  0.00  0.00    +0.006 C 
ATOM     15  C   UNL     1      -3.349   1.935  24.180  0.00  0.00    +0.037 C 
ATOM     24  C   UNL     1      -3.937   1.815  24.746  0.00  0.00    -0.034 C 
ATOM     25  C   UNL     1      -4.331   1.092  24.785  0.00  0.00    -0.048 C 
ATOM     26  C   UNL     1      -4.920   0.972  25.350  0.00  0.00    +0.026 C 
ENDROOT
BRANCH  11  12
ATOM     12  C   UNL     1      -2.565   1.452  23.087  0.00  0.00    +0.000 C 
ATOM     13  C   UNL     1      -1.789   1.226  23.247  0.00  0.00    +0.000 C 
ATOM     14  C   UNL     1      -2.755   1.797  22.363  0.00  0.00    +0.000 C 
ENDBRANCH  11  12
BRANCH   9   8
ATOM      8  C   UNL     1      -4.531  -0.236  24.296  0.00  0.00    +0.091 C 
BRANCH   8   7
ATOM      4  C   UNL     1      -3.226  -1.908  24.545  0.00  0.00    +0.226 A 
ATOM      5  N   UNL     1      -3.664  -2.144  23.888  0.00  0.00    -0.112 NA
ATOM      6  N   UNL     1      -4.207  -1.546  23.714  0.00  0.00    -0.112 NA
ATOM      7  C   UNL     1      -4.103  -0.941  24.264  0.00  0.00    +0.226 A 
ATOM     27  O   UNL     1      -3.497  -1.164  24.778  0.00  0.00    -0.423 OA
BRANCH   4   3
ATOM      3  C   UNL     1      -2.622  -2.339  24.906  0.00  0.00    +0.087 C 
BRANCH   3   2
ATOM      1  C   UNL     1      -1.203  -2.436  25.030  0.00  0.00    +0.001 C 
ATOM      2  C   UNL     1      -1.876  -2.375  24.558  0.00  0.00    +0.010 C 
ENDBRANCH   3   2
ENDBRANCH   4   3
ENDBRANCH   8   7
ENDBRANCH   9   8
BRANCH  15  16
ATOM     16  C   UNL     1      -2.955   2.660  24.143  0.00  0.00    +0.076 C 
BRANCH  16  17
ATOM     17  N   UNL     1      -2.969   3.171  24.789  0.00  0.00    -0.272 NA
ATOM     18  C   UNL     1      -2.382   3.121  25.368  0.00  0.00    +0.075 C 
ATOM     19  C   UNL     1      -2.396   3.633  26.014  0.00  0.00    +0.050 C 
ATOM     20  C   UNL     1      -2.997   4.195  26.083  0.00  0.00    +0.155 C 
ATOM     21  O   UNL     1      -3.010   4.706  26.730  0.00  0.00    -0.223 OA
ATOM     22  C   UNL     1      -3.582   4.245  25.505  0.00  0.00    +0.050 C 
ATOM     23  C   UNL     1      -3.569   3.733  24.858  0.00  0.00    +0.075 C 
ENDBRANCH  16  17
ENDBRANCH  15  16
TORSDOF 7
ENDMDL
MODEL 5
REMARK VINA RESULT:     -10.4      1.564      5.237
REMARK  Name = 
REMARK  7 active torsions:
REMARK  status: ('A' for Active; 'I' for Inactive)
REMARK    1  A    between atoms: C_2  and  C_3
REMARK    2  A    between atoms: C_3  and  C_4
REMARK    3  A    between atoms: C_7  and  C_8
REMARK    4  A    between atoms: C_8  and  C_9
REMARK    5  A    between atoms: C_11  and  C_12
REMARK    6  A    between atoms: C_15  and  C_16
REMARK    7  A    between atoms: C_16  and  N_17
REMARK                            x       y       z     vdW  Elec       q    Type
REMARK                         _______ _______ _______ _____ _____    ______ ____
ROOT
ATOM      9  C   UNL     1      -1.740   0.536  25.375  0.00  0.00    +0.027 C 
ATOM     10  C   UNL     1      -2.466   0.602  24.988  0.00  0.00    +0.005 C 
ATOM     11  C   UNL     1      -2.703   1.330  24.680  0.00  0.00    +0.006 C 
ATOM     15  C   UNL     1      -2.216   1.990  24.758  0.00  0.00    +0.037 C 
ATOM     24  C   UNL     1      -1.490   1.923  25.144  0.00  0.00    -0.034 C 
ATOM     25  C   UNL     1      -1.252   1.197  25.453  0.00  0.00    -0.048 C 
ATOM     26  C   UNL     1      -0.526   1.130  25.839  0.00  0.00    +0.026 C 
ENDROOT
BRANCH  11  12
ATOM     12  C   UNL     1      -3.430   1.396  24.293  0.00  0.00    +0.000 C 
ATOM     13  C   UNL     1      -4.120   1.509  24.730  0.00  0.00    +0.000 C 
ATOM     14  C   UNL     1      -3.465   1.350  23.471  0.00  0.00    +0.000 C 
ENDBRANCH  11  12
BRANCH   9   8
ATOM      8  C   UNL     1      -1.501  -0.191  25.683  0.00  0.00    +0.091 C 
BRANCH   8   7
ATOM      4  C   UNL     1      -2.201  -1.997  24.785  0.00  0.00    +0.226 A 
ATOM      5  N   UNL     1      -1.472  -1.905  24.411  0.00  0.00    -0.112 NA
ATOM      6  N   UNL     1      -1.121  -1.217  24.702  0.00  0.00    -0.112 NA
ATOM      7  C   UNL     1      -1.633  -0.884  25.256  0.00  0.00    +0.226 A 
ATOM     27  O   UNL     1      -2.301  -1.366  25.308  0.00  0.00    -0.423 OA
BRANCH   4   3
ATOM      3  C   UNL     1      -2.737  -2.612  24.659  0.00  0.00    +0.087 C 
BRANCH   3   2
ATOM      1  C   UNL     1      -4.000  -3.068  24.173  0.00  0.00    +0.001 C 
ATOM      2  C   UNL     1      -3.433  -2.473  24.240  0.00  0.00    +0.010 C 
ENDBRANCH   3   2
ENDBRANCH   4   3
ENDBRANCH   8   7
ENDBRANCH   9   8
BRANCH  15  16
ATOM     16  C   UNL     1      -2.454   2.718  24.449  0.00  0.00    +0.076 C 
BRANCH  16  17
ATOM     17  N   UNL     1      -2.032   3.401  24.634  0.00  0.00    -0.272 NA
ATOM     18  C   UNL     1      -2.287   3.890  25.249  0.00  0.00    +0.075 C 
ATOM     19  C   UNL     1      -1.866   4.574  25.434  0.00  0.00    +0.050 C 
ATOM     20  C   UNL     1      -1.189   4.771  25.005  0.00  0.00    +0.155 C 
ATOM     21  O   UNL     1      -0.768   5.455  25.191  0.00  0.00    -0.223 OA
ATOM     22  C   UNL     1      -0.934   4.282  24.392  0.00  0.00    +0.050 C 
ATOM     23  C   UNL     1      -1.355   3.598  24.206  0.00  0.00    +0.075 C 
ENDBRANCH  16  17
ENDBRANCH  15  16
TORSDOF 7
ENDMDL
MODEL 6
REMARK VINA RESULT:     -10.4      2.162      4.334
REMARK  Name = 
REMARK  7 active torsions:
REMARK  status: ('A' for Active; 'I' for Inactive)
REMARK    1  A    between atoms: C_2  and  C_3
REMARK    2  A    between atoms: C_3  and  C_4
REMARK    3  A    between atoms: C_7  and  C_8
REMARK    4  A    between atoms: C_8  and  C_9
REMARK    5  A    between atoms: C_11  and  C_12
REMARK    6  A    between atoms: C_15  and  C_16
REMARK    7  A    between atoms: C_16  and  N_17
REMARK                            x       y       z     vdW  Elec       q    Type
REMARK                         _______ _______ _______ _____ _____    ______ ____
ROOT
ATOM      9  C   UNL     1      -1.913   0.636  25.095  0.00  0.00    +0.027 C 
ATOM     10  C   UNL     1      -2.413   0.008  24.900  0.00  0.00    +0.005 C 
ATOM     11  C   UNL     1      -3.206   0.154  24.720  0.00  0.00    +0.006 C 
ATOM     15  C   UNL     1      -3.497   0.925  24.734  0.00  0.00    +0.037 C 
ATOM     24  C   UNL     1      -2.997   1.552  24.928  0.00  0.00    -0.034 C 
ATOM     25  C   UNL     1      -2.206   1.408  25.108  0.00  0.00    -0.048 C 
ATOM     26  C   UNL     1      -1.706   2.034  25.302  0.00  0.00    +0.026 C 
ENDROOT
BRANCH  11  12
ATOM     12  C   UNL     1      -3.706  -0.474  24.526  0.00  0.00    +0.000 C 
ATOM     13  C   UNL     1      -3.882  -0.631  23.736  0.00  0.00    +0.000 C 
ATOM     14  C   UNL     1      -4.029  -0.943  25.122  0.00  0.00    +0.000 C 
ENDBRANCH  11  12
BRANCH   9   8
ATOM      8  C   UNL     1      -1.122   0.491  25.275  0.00  0.00    +0.091 C 
BRANCH   8   7
ATOM      4  C   UNL     1       0.113  -0.317  23.732  0.00  0.00    +0.226 A 
ATOM      5  N   UNL     1       0.005  -0.978  24.213  0.00  0.00    -0.112 NA
ATOM      6  N   UNL     1      -0.471  -0.756  24.849  0.00  0.00    -0.112 NA
ATOM      7  C   UNL     1      -0.657   0.043  24.762  0.00  0.00    +0.226 A 
ATOM     27  O   UNL     1      -0.296   0.315  24.071  0.00  0.00    -0.423 OA
BRANCH   4   3
ATOM      3  C   UNL     1       0.553  -0.290  23.035  0.00  0.00    +0.087 C 
BRANCH   3   2
ATOM      1  C   UNL     1       1.792  -0.039  22.369  0.00  0.00    +0.001 C 
ATOM      2  C   UNL     1       1.315   0.025  23.039  0.00  0.00    +0.010 C 
ENDBRANCH   3   2
ENDBRANCH   4   3
ENDBRANCH   8   7
ENDBRANCH   9   8
BRANCH  15  16
ATOM     16  C   UNL     1      -4.290   1.070  24.554  0.00  0.00    +0.076 C 
BRANCH  16  17
ATOM     17  N   UNL     1      -4.657   1.754  24.830  0.00  0.00    -0.272 NA
ATOM     18  C   UNL     1      -5.090   1.735  25.533  0.00  0.00    +0.075 C 
ATOM     19  C   UNL     1      -5.457   2.419  25.810  0.00  0.00    +0.050 C 
ATOM     20  C   UNL     1      -5.392   3.124  25.385  0.00  0.00    +0.155 C 
ATOM     21  O   UNL     1      -5.760   3.807  25.662  0.00  0.00    -0.223 OA
ATOM     22  C   UNL     1      -4.959   3.142  24.683  0.00  0.00    +0.050 C 
ATOM     23  C   UNL     1      -4.592   2.459  24.406  0.00  0.00    +0.075 C 
ENDBRANCH  16  17
ENDBRANCH  15  16
TORSDOF 7
ENDMDL
MODEL 7
REMARK VINA RESULT:     -10.3      1.858      2.958
REMARK  Name = 
REMARK  7 active torsions:
REMARK  status: ('A' for Active; 'I' for Inactive)
REMARK    1  A    between atoms: C_2  and  C_3
REMARK    2  A    between atoms: C_3  and  C_4
REMARK    3  A    between atoms: C_7  and  C_8
REMARK    4  A    between atoms: C_8  and  C_9
REMARK    5  A    between atoms: C_11  and  C_12
REMARK    6  A    between atoms: C_15  and  C_16
REMARK    7  A    between atoms: C_16  and  N_17
REMARK                            x       y       z     vdW  Elec       q    Type
REMARK                         _______ _______ _______ _____ _____    ______ ____
ROOT
ATOM      9  C   UNL     1      -2.726   2.335  23.995  0.00  0.00    +0.027 C 
ATOM     10  C   UNL     1      -2.173   2.736  24.457  0.00  0.00    +0.005 C 
ATOM     11  C   UNL     1      -1.505   2.340  24.738  0.00  0.00    +0.006 C 
ATOM     15  C   UNL     1      -1.392   1.543  24.558  0.00  0.00    +0.037 C 
ATOM     24  C   UNL     1      -1.946   1.142  24.096  0.00  0.00    -0.034 C 
ATOM     25  C   UNL     1      -2.613   1.537  23.814  0.00  0.00    -0.048 C 
ATOM     26  C   UNL     1      -3.166   1.136  23.353  0.00  0.00    +0.026 C 
ENDROOT
BRANCH  11  12
ATOM     12  C   UNL     1      -0.952   2.741  25.200  0.00  0.00    +0.000 C 
ATOM     13  C   UNL     1      -0.293   3.088  24.846  0.00  0.00    +0.000 C 
ATOM     14  C   UNL     1      -1.058   2.795  26.016  0.00  0.00    +0.000 C 
ENDBRANCH  11  12
BRANCH   9   8
ATOM      8  C   UNL     1      -3.393   2.730  23.713  0.00  0.00    +0.091 C 
BRANCH   8   7
ATOM      4  C   UNL     1      -4.897   3.179  25.161  0.00  0.00    +0.226 A 
ATOM      5  N   UNL     1      -4.637   3.936  24.960  0.00  0.00    -0.112 NA
ATOM      6  N   UNL     1      -4.042   3.860  24.393  0.00  0.00    -0.112 NA
ATOM      7  C   UNL     1      -3.934   3.056  24.244  0.00  0.00    +0.226 A 
ATOM     27  O   UNL     1      -4.462   2.635  24.718  0.00  0.00    -0.423 OA
BRANCH   4   3
ATOM      3  C   UNL     1      -5.487   2.998  25.708  0.00  0.00    +0.087 C 
BRANCH   3   2
ATOM      1  C   UNL     1      -6.287   2.004  26.350  0.00  0.00    +0.001 C 
ATOM      2  C   UNL     1      -5.837   2.252  25.704  0.00  0.00    +0.010 C 
ENDBRANCH   3   2
ENDBRANCH   4   3
ENDBRANCH   8   7
ENDBRANCH   9   8
BRANCH  15  16
ATOM     16  C   UNL     1      -0.725   1.147  24.839  0.00  0.00    +0.076 C 
BRANCH  16  17
ATOM     17  N   UNL     1      -0.730   0.325  24.902  0.00  0.00    -0.272 NA
ATOM     18  C   UNL     1      -1.084  -0.037  25.555  0.00  0.00    +0.075 C 
ATOM     19  C   UNL     1      -1.089  -0.859  25.618  0.00  0.00    +0.050 C 
ATOM     20  C   UNL     1      -0.740  -1.321  25.030  0.00  0.00    +0.155 C 
ATOM     21  O   UNL     1      -0.745  -2.143  25.094  0.00  0.00    -0.223 OA
ATOM     22  C   UNL     1      -0.387  -0.959  24.378  0.00  0.00    +0.050 C 
ATOM     23  C   UNL     1      -0.381  -0.137  24.314  0.00  0.00    +0.075 C 
ENDBRANCH  16  17
ENDBRANCH  15  16
TORSDOF 7
ENDMDL
MODEL 8
REMARK VINA RESULT:     -10.3      1.968      4.403
REMARK  Name = 
REMARK  7 active torsions:
REMARK  status: ('A' for Active; 'I' for Inactive)
REMARK    1  A    between atoms: C_2  and  C_3
REMARK    2  A    between atoms: C_3  and  C_4
REMARK    3  A    between atoms: C_7  and  C_8
REMARK    4  A    between atoms: C_8  and  C_9
REMARK    5  A    between atoms: C_11  and  C_12
REMARK    6  A    between atoms: C_15  and  C_16
REMARK    7  A    between atoms: C_16  and  N_17
REMARK                            x       y       z     vdW  Elec       q    Type
REMARK                         _______ _______ _______ _____ _____    ______ ____
ROOT
ATOM      9  C   UNL     1      -1.339   1.816  24.477  0.00  0.00    +0.027 C 
ATOM     10  C   UNL     1      -1.666   1.680  23.731  0.00  0.00    +0.005 C 
ATOM     11  C   UNL     1      -2.400   2.006  23.538  0.00  0.00    +0.006 C 
ATOM     15  C   UNL     1      -2.805   2.466  24.088  0.00  0.00    +0.037 C 
ATOM     24  C   UNL     1      -2.479   2.601  24.834  0.00  0.00    -0.034 C 
ATOM     25  C   UNL     1      -1.746   2.276  25.028  0.00  0.00    -0.048 C 
ATOM     26  C   UNL     1      -1.419   2.411  25.773  0.00  0.00    +0.026 C 
ENDROOT
BRANCH  11  12
ATOM     12  C   UNL     1      -2.727   1.870  22.792  0.00  0.00    +0.000 C 
ATOM     13  C   UNL     1      -3.157   1.182  22.649  0.00  0.00    +0.000 C 
ATOM     14  C   UNL     1      -2.622   2.424  22.190  0.00  0.00    +0.000 C 
ENDBRANCH  11  12
BRANCH   9   8
ATOM      8  C   UNL     1      -0.607   1.491  24.671  0.00  0.00    +0.091 C 
BRANCH   8   7
ATOM      4  C   UNL     1      -0.508  -0.642  24.638  0.00  0.00    +0.226 A 
ATOM      5  N   UNL     1       0.025  -0.448  24.040  0.00  0.00    -0.112 NA
ATOM      6  N   UNL     1       0.053   0.375  23.979  0.00  0.00    -0.112 NA
ATOM      7  C   UNL     1      -0.463   0.689  24.540  0.00  0.00    +0.226 A 
ATOM     27  O   UNL     1      -0.811   0.061  24.948  0.00  0.00    -0.423 OA
BRANCH   4   3
ATOM      3  C   UNL     1      -0.706  -1.404  24.884  0.00  0.00    +0.087 C 
BRANCH   3   2
ATOM      1  C   UNL     1      -1.601  -2.516  24.843  0.00  0.00    +0.001 C 
ATOM      2  C   UNL     1      -1.333  -1.803  24.527  0.00  0.00    +0.010 C 
ENDBRANCH   3   2
ENDBRANCH   4   3
ENDBRANCH   8   7
ENDBRANCH   9   8
BRANCH  15  16
ATOM     16  C   UNL     1      -3.539   2.791  23.895  0.00  0.00    +0.076 C 
BRANCH  16  17
ATOM     17  N   UNL     1      -4.101   2.920  24.483  0.00  0.00    -0.272 NA
ATOM     18  C   UNL     1      -4.593   2.303  24.727  0.00  0.00    +0.075 C 
ATOM     19  C   UNL     1      -5.155   2.431  25.315  0.00  0.00    +0.050 C 
ATOM     20  C   UNL     1      -5.228   3.177  25.661  0.00  0.00    +0.155 C 
ATOM     21  O   UNL     1      -5.791   3.305  26.250  0.00  0.00    -0.223 OA
ATOM     22  C   UNL     1      -4.737   3.793  25.418  0.00  0.00    +0.050 C 
ATOM     23  C   UNL     1      -4.174   3.666  24.829  0.00  0.00    +0.075 C 
ENDBRANCH  16  17
ENDBRANCH  15  16
TORSDOF 7
ENDMDL
