MODEL 1
REMARK VINA RESULT:     -12.3      0.000      0.000
REMARK  Name = 
REMARK  6 active torsions:
REMARK  status: ('A' for Active; 'I' for Inactive)
REMARK    1  A    between atoms: C_2  and  C_4
REMARK    2  A    between atoms: C_4  and  C_5
REMARK    3  A    between atoms: C_5  and  N_6
REMARK    4  A    between atoms: C_7  and  C_9
REMARK    5  A    between atoms: C_16  and  N_18
REMARK    6  A    between atoms: C_19  and  C_21
REMARK                            x       y       z     vdW  Elec       q    Type
REMARK                         _______ _______ _______ _____ _____    ______ ____
ROOT
ATOM      9  C   UNL     1      -3.724   2.482  24.545  0.00  0.00    +0.200 C 
ATOM     10  O   UNL     1      -3.074   2.403  24.044  0.00  0.00    -0.216 OA
ATOM     11  C   UNL     1      -4.282   2.832  25.042  0.00  0.00    +0.075 C 
ATOM     12  C   UNL     1      -4.882   2.374  25.376  0.00  0.00    +0.187 C 
ATOM     13  O   UNL     1      -5.439   2.724  25.873  0.00  0.00    -0.220 OA
ATOM     14  C   UNL     1      -4.924   1.566  25.212  0.00  0.00    +0.202 C 
ATOM     15  O   UNL     1      -5.524   1.108  25.546  0.00  0.00    -0.219 OA
ATOM     16  C   UNL     1      -4.366   1.216  24.715  0.00  0.00    +0.131 C 
ATOM     17  C   UNL     1      -3.766   1.675  24.381  0.00  0.00    +0.064 C 
ENDROOT
BRANCH   9   7
ATOM      6  N   UNL     1      -2.752   3.461  24.914  0.00  0.00    -0.203 NA
ATOM      7  C   UNL     1      -3.456   3.261  24.534  0.00  0.00    +0.269 C 
ATOM      8  O   UNL     1      -3.893   3.842  24.143  0.00  0.00    -0.271 OA
BRANCH   6   5
ATOM      5  C   UNL     1      -2.483   4.241  24.903  0.00  0.00    +0.125 C 
BRANCH   5   4
ATOM      4  C   UNL     1      -1.847   4.466  25.377  0.00  0.00    +0.112 C 
BRANCH   4   2
ATOM      1  N   UNL     1      -0.586   4.820  24.804  0.00  0.00    -0.088 NA
ATOM      2  C   UNL     1      -1.318   5.041  25.114  0.00  0.00    +0.263 C 
ATOM      3  O   UNL     1      -1.522   5.839  25.159  0.00  0.00    -0.272 OA
ENDBRANCH   4   2
ENDBRANCH   5   4
ENDBRANCH   6   5
ENDBRANCH   9   7
BRANCH  16  18
ATOM     18  N   UNL     1      -4.408   0.409  24.552  0.00  0.00    -0.201 NA
ATOM     19  C   UNL     1      -3.793  -0.091  24.782  0.00  0.00    +0.265 C 
ATOM     20  O   UNL     1      -3.137   0.217  25.176  0.00  0.00    -0.268 OA
BRANCH  19  21
ATOM     21  C   UNL     1      -3.835  -0.899  24.618  0.00  0.00    +0.056 A 
ATOM     22  C   UNL     1      -3.525  -1.444  25.155  0.00  0.00    +0.018 A 
ATOM     23  C   UNL     1      -3.567  -2.252  24.991  0.00  0.00    +0.085 A 
ATOM     24 CL   UNL     1      -3.258  -2.797  25.526  0.00  0.00    -0.080 Cl
ATOM     25  C   UNL     1      -3.919  -2.514  24.292  0.00  0.00    +0.151 A 
ATOM     26  F   UNL     1      -3.961  -3.321  24.128  0.00  0.00    -0.203 F 
ATOM     27  C   UNL     1      -4.229  -1.968  23.756  0.00  0.00    +0.031 A 
ATOM     28  C   UNL     1      -4.187  -1.160  23.920  0.00  0.00    +0.007 A 
ENDBRANCH  19  21
ENDBRANCH  16  18
TORSDOF 6
ENDMDL
MODEL 2
REMARK VINA RESULT:     -11.0      2.673      5.441
REMARK  Name = 
REMARK  6 active torsions:
REMARK  status: ('A' for Active; 'I' for Inactive)
REMARK    1  A    between atoms: C_2  and  C_4
REMARK    2  A    between atoms: C_4  and  C_5
REMARK    3  A    between atoms: C_5  and  N_6
REMARK    4  A    between atoms: C_7  and  C_9
REMARK    5  A    between atoms: C_16  and  N_18
REMARK    6  A    between atoms: C_19  and  C_21
REMARK                            x       y       z     vdW  Elec       q    Type
REMARK                         _______ _______ _______ _____ _____    ______ ____
ROOT
ATOM      9  C   UNL     1      -3.797   0.927  24.840  0.00  0.00    +0.200 C 
ATOM     10  O   UNL     1      -3.065   0.551  24.882  0.00  0.00    -0.216 OA
ATOM     11  C   UNL     1      -4.615   1.031  24.828  0.00  0.00    +0.075 C 
ATOM     12  C   UNL     1      -4.933   1.789  24.746  0.00  0.00    +0.187 C 
ATOM     13  O   UNL     1      -5.752   1.893  24.734  0.00  0.00    -0.220 OA
ATOM     14  C   UNL     1      -4.433   2.441  24.676  0.00  0.00    +0.202 C 
ATOM     15  O   UNL     1      -4.751   3.198  24.594  0.00  0.00    -0.219 OA
ATOM     16  C   UNL     1      -3.615   2.336  24.688  0.00  0.00    +0.131 C 
ATOM     17  C   UNL     1      -3.297   1.579  24.770  0.00  0.00    +0.064 C 
ENDROOT
BRANCH   9   7
ATOM      6  N   UNL     1      -3.868  -0.409  24.338  0.00  0.00    -0.203 NA
ATOM      7  C   UNL     1      -4.043   0.144  24.925  0.00  0.00    +0.269 C 
ATOM      8  O   UNL     1      -4.464  -0.085  25.596  0.00  0.00    -0.271 OA
BRANCH   6   5
ATOM      5  C   UNL     1      -4.113  -1.192  24.423  0.00  0.00    +0.125 C 
BRANCH   5   4
ATOM      4  C   UNL     1      -3.855  -1.766  23.889  0.00  0.00    +0.112 C 
BRANCH   4   2
ATOM      1  N   UNL     1      -3.572  -3.050  24.447  0.00  0.00    -0.088 NA
ATOM      2  C   UNL     1      -4.060  -2.556  24.001  0.00  0.00    +0.263 C 
ATOM      3  O   UNL     1      -4.754  -2.854  23.669  0.00  0.00    -0.272 OA
ENDBRANCH   4   2
ENDBRANCH   5   4
ENDBRANCH   6   5
ENDBRANCH   9   7
BRANCH  16  18
ATOM     18  N   UNL     1      -3.114   2.988  24.618  0.00  0.00    -0.201 NA
ATOM     19  C   UNL     1      -2.597   3.179  25.233  0.00  0.00    +0.265 C 
ATOM     20  O   UNL     1      -2.581   2.718  25.917  0.00  0.00    -0.268 OA
BRANCH  19  21
ATOM     21  C   UNL     1      -2.097   3.831  25.163  0.00  0.00    +0.056 A 
ATOM     22  C   UNL     1      -1.343   3.739  24.838  0.00  0.00    +0.018 A 
ATOM     23  C   UNL     1      -0.843   4.391  24.768  0.00  0.00    +0.085 A 
ATOM     24 CL   UNL     1      -0.090   4.300  24.444  0.00  0.00    -0.080 Cl
ATOM     25  C   UNL     1      -1.095   5.135  25.022  0.00  0.00    +0.151 A 
ATOM     26  F   UNL     1      -0.595   5.787  24.952  0.00  0.00    -0.203 F 
ATOM     27  C   UNL     1      -1.849   5.226  25.347  0.00  0.00    +0.031 A 
ATOM     28  C   UNL     1      -2.349   4.574  25.417  0.00  0.00    +0.007 A 
ENDBRANCH  19  21
ENDBRANCH  16  18
TORSDOF 6
ENDMDL
MODEL 3
REMARK VINA RESULT:     -10.6      3.214      6.041
REMARK  Name = 
REMARK  6 active torsions:
REMARK  status: ('A' for Active; 'I' for Inactive)
REMARK    1  A    between atoms: C_2  and  C_4
REMARK    2  A    between atoms: C_4  and  C_5
REMARK    3  A    between atoms: C_5  and  N_6
REMARK    4  A    between atoms: C_7  and  C_9
REMARK    5  A    between atoms: C_16  and  N_18
REMARK    6  A    between atoms: C_19  and  C_21
REMARK                            x       y       z     vdW  Elec       q    Type
REMARK                         _______ _______ _______ _____ _____    ______ ____
ROOT
ATOM      9  C   UNL     1      -1.448  -0.064  25.065  0.00  0.00    +0.200 C 
ATOM     10  O   UNL     1      -2.093  -0.004  25.575  0.00  0.00    -0.216 OA
ATOM     11  C   UNL     1      -0.887  -0.397  24.561  0.00  0.00    +0.075 C 
ATOM     12  C   UNL     1      -0.308   0.079  24.216  0.00  0.00    +0.187 C 
ATOM     13  O   UNL     1       0.254  -0.255  23.711  0.00  0.00    -0.220 OA
ATOM     14  C   UNL     1      -0.291   0.888  24.375  0.00  0.00    +0.202 C 
ATOM     15  O   UNL     1       0.289   1.364  24.029  0.00  0.00    -0.219 OA
ATOM     16  C   UNL     1      -0.852   1.222  24.879  0.00  0.00    +0.131 C 
ATOM     17  C   UNL     1      -1.431   0.745  25.224  0.00  0.00    +0.064 C 
ENDROOT
BRANCH   9   7
ATOM      6  N   UNL     1      -2.443  -1.059  24.818  0.00  0.00    -0.203 NA
ATOM      7  C   UNL     1      -1.690  -0.852  25.083  0.00  0.00    +0.269 C 
ATOM      8  O   UNL     1      -1.178  -1.433  25.366  0.00  0.00    -0.271 OA
BRANCH   6   5
ATOM      5  C   UNL     1      -2.685  -1.847  24.837  0.00  0.00    +0.125 C 
BRANCH   5   4
ATOM      4  C   UNL     1      -3.489  -2.034  24.816  0.00  0.00    +0.112 C 
BRANCH   4   2
ATOM      1  N   UNL     1      -4.266  -2.586  23.751  0.00  0.00    -0.088 NA
ATOM      2  C   UNL     1      -3.750  -2.688  24.387  0.00  0.00    +0.263 C 
ATOM      3  O   UNL     1      -3.495  -3.445  24.593  0.00  0.00    -0.272 OA
ENDBRANCH   4   2
ENDBRANCH   5   4
ENDBRANCH   6   5
ENDBRANCH   9   7
BRANCH  16  18
ATOM     18  N   UNL     1      -0.834   2.031  25.038  0.00  0.00    -0.201 NA
ATOM     19  C   UNL     1      -1.414   2.526  24.721  0.00  0.00    +0.265 C 
ATOM     20  O   UNL     1      -2.011   2.211  24.245  0.00  0.00    -0.268 OA
BRANCH  19  21
ATOM     21  C   UNL     1      -1.397   3.335  24.880  0.00  0.00    +0.056 A 
ATOM     22  C   UNL     1      -2.004   3.682  25.319  0.00  0.00    +0.018 A 
ATOM     23  C   UNL     1      -1.987   4.491  25.478  0.00  0.00    +0.085 A 
ATOM     24 CL   UNL     1      -2.593   4.839  25.915  0.00  0.00    -0.080 Cl
ATOM     25  C   UNL     1      -1.363   4.954  25.199  0.00  0.00    +0.151 A 
ATOM     26  F   UNL     1      -1.345   5.763  25.358  0.00  0.00    -0.203 F 
ATOM     27  C   UNL     1      -0.756   4.607  24.760  0.00  0.00    +0.031 A 
ATOM     28  C   UNL     1      -0.773   3.797  24.601  0.00  0.00    +0.007 A 
ENDBRANCH  19  21
ENDBRANCH  16  18
TORSDOF 6
ENDMDL
MODEL 4
REMARK VINA RESULT:     -10.4      2.021      2.743
REMARK  Name = 
REMARK  6 active torsions:
REMARK  status: ('A' for Active; 'I' for Inactive)
REMARK    1  A    between atoms: C_2  and  C_4
REMARK    2  A    between atoms: C_4  and  C_5
REMARK    3  A    between atoms: C_5  and  N_6
REMARK    4  A    between atoms: C_7  and  C_9
REMARK    5  A    between atoms: C_16  and  N_18
REMARK    6  A    between atoms: C_19  and  C_21
REMARK                            x       y       z     vdW  Elec       q    Type
REMARK                         _______ _______ _______ _____ _____    ______ ____
ROOT
ATOM      9  C   UNL     1      -1.389   1.651  25.088  0.00  0.00    +0.200 C 
ATOM     10  O   UNL     1      -2.124   1.873  25.388  0.00  0.00    -0.216 OA
ATOM     11  C   UNL     1      -0.589   1.688  24.889  0.00  0.00    +0.075 C 
ATOM     12  C   UNL     1      -0.230   1.054  24.502  0.00  0.00    +0.187 C 
ATOM     13  O   UNL     1       0.570   1.092  24.304  0.00  0.00    -0.220 OA
ATOM     14  C   UNL     1      -0.671   0.382  24.314  0.00  0.00    +0.202 C 
ATOM     15  O   UNL     1      -0.312  -0.252  23.927  0.00  0.00    -0.219 OA
ATOM     16  C   UNL     1      -1.471   0.345  24.512  0.00  0.00    +0.131 C 
ATOM     17  C   UNL     1      -1.830   0.979  24.900  0.00  0.00    +0.064 C 
ENDROOT
BRANCH   9   7
ATOM      6  N   UNL     1      -1.465   3.074  24.984  0.00  0.00    -0.203 NA
ATOM      7  C   UNL     1      -1.204   2.399  25.380  0.00  0.00    +0.269 C 
ATOM      8  O   UNL     1      -0.758   2.473  26.070  0.00  0.00    -0.271 OA
BRANCH   6   5
ATOM      5  C   UNL     1      -1.280   3.822  25.276  0.00  0.00    +0.125 C 
BRANCH   5   4
ATOM      4  C   UNL     1      -1.666   4.489  24.980  0.00  0.00    +0.112 C 
BRANCH   4   2
ATOM      1  N   UNL     1      -0.548   5.344  24.732  0.00  0.00    -0.088 NA
ATOM      2  C   UNL     1      -1.309   5.230  25.032  0.00  0.00    +0.263 C 
ATOM      3  O   UNL     1      -1.711   5.858  25.383  0.00  0.00    -0.272 OA
ENDBRANCH   4   2
ENDBRANCH   5   4
ENDBRANCH   6   5
ENDBRANCH   9   7
BRANCH  16  18
ATOM     18  N   UNL     1      -1.912  -0.326  24.324  0.00  0.00    -0.201 NA
ATOM     19  C   UNL     1      -2.258  -0.775  24.925  0.00  0.00    +0.265 C 
ATOM     20  O   UNL     1      -2.162  -0.551  25.714  0.00  0.00    -0.268 OA
BRANCH  19  21
ATOM     21  C   UNL     1      -2.698  -1.446  24.736  0.00  0.00    +0.056 A 
ATOM     22  C   UNL     1      -3.432  -1.367  24.366  0.00  0.00    +0.018 A 
ATOM     23  C   UNL     1      -3.873  -2.038  24.178  0.00  0.00    +0.085 A 
ATOM     24 CL   UNL     1      -4.606  -1.960  23.809  0.00  0.00    -0.080 Cl
ATOM     25  C   UNL     1      -3.581  -2.789  24.359  0.00  0.00    +0.151 A 
ATOM     26  F   UNL     1      -4.022  -3.460  24.171  0.00  0.00    -0.203 F 
ATOM     27  C   UNL     1      -2.847  -2.867  24.729  0.00  0.00    +0.031 A 
ATOM     28  C   UNL     1      -2.406  -2.196  24.917  0.00  0.00    +0.007 A 
ENDBRANCH  19  21
ENDBRANCH  16  18
TORSDOF 6
ENDMDL
MODEL 5
REMARK VINA RESULT:      -9.9      3.383      4.644
REMARK  Name = 
REMARK  6 active torsions:
REMARK  status: ('A' for Active; 'I' for Inactive)
REMARK    1  A    between atoms: C_2  and  C_4
REMARK    2  A    between atoms: C_4  and  C_5
REMARK    3  A    between atoms: C_5  and  N_6
REMARK    4  A    between atoms: C_7  and  C_9
REMARK    5  A    between atoms: C_16  and  N_18
REMARK    6  A    between atoms: C_19  and  C_21
REMARK                            x       y       z     vdW  Elec       q    Type
REMARK                         _______ _______ _______ _____ _____    ______ ____
ROOT
ATOM      9  C   UNL     1      -1.304  -0.036  24.559  0.00  0.00    +0.200 C 
ATOM     10  O   UNL     1      -0.929   0.699  24.556  0.00  0.00    -0.216 OA
ATOM     11  C   UNL     1      -1.416  -0.850  24.483  0.00  0.00    +0.075 C 
ATOM     12  C   UNL     1      -2.157  -1.180  24.632  0.00  0.00    +0.187 C 
ATOM     13  O   UNL     1      -2.269  -1.994  24.556  0.00  0.00    -0.220 OA
ATOM     14  C   UNL     1      -2.787  -0.696  24.856  0.00  0.00    +0.202 C 
ATOM     15  O   UNL     1      -3.528  -1.027  25.005  0.00  0.00    -0.219 OA
ATOM     16  C   UNL     1      -2.675   0.117  24.932  0.00  0.00    +0.131 C 
ATOM     17  C   UNL     1      -1.934   0.448  24.783  0.00  0.00    +0.064 C 
ENDROOT
BRANCH   9   7
ATOM      6  N   UNL     1      -0.203   0.053  23.653  0.00  0.00    -0.203 NA
ATOM      7  C   UNL     1      -0.545  -0.264  24.334  0.00  0.00    +0.269 C 
ATOM      8  O   UNL     1      -0.126  -0.809  24.789  0.00  0.00    -0.271 OA
BRANCH   6   5
ATOM      5  C   UNL     1       0.557  -0.175  23.427  0.00  0.00    +0.125 C 
BRANCH   5   4
ATOM      4  C   UNL     1       0.972   0.266  22.867  0.00  0.00    +0.112 C 
BRANCH   4   2
ATOM      1  N   UNL     1       2.372   0.015  22.731  0.00  0.00    -0.088 NA
ATOM      2  C   UNL     1       1.599  -0.074  22.455  0.00  0.00    +0.263 C 
ATOM      3  O   UNL     1       1.455  -0.505  21.767  0.00  0.00    -0.272 OA
ENDBRANCH   4   2
ENDBRANCH   5   4
ENDBRANCH   6   5
ENDBRANCH   9   7
BRANCH  16  18
ATOM     18  N   UNL     1      -3.305   0.601  25.157  0.00  0.00    -0.201 NA
ATOM     19  C   UNL     1      -3.634   1.129  24.614  0.00  0.00    +0.265 C 
ATOM     20  O   UNL     1      -3.332   1.172  23.847  0.00  0.00    -0.268 OA
BRANCH  19  21
ATOM     21  C   UNL     1      -4.263   1.612  24.838  0.00  0.00    +0.056 A 
ATOM     22  C   UNL     1      -4.120   2.390  25.078  0.00  0.00    +0.018 A 
ATOM     23  C   UNL     1      -4.750   2.873  25.302  0.00  0.00    +0.085 A 
ATOM     24 CL   UNL     1      -4.608   3.649  25.542  0.00  0.00    -0.080 Cl
ATOM     25  C   UNL     1      -5.522   2.581  25.288  0.00  0.00    +0.151 A 
ATOM     26  F   UNL     1      -6.151   3.064  25.512  0.00  0.00    -0.203 F 
ATOM     27  C   UNL     1      -5.663   1.803  25.048  0.00  0.00    +0.031 A 
ATOM     28  C   UNL     1      -5.034   1.320  24.824  0.00  0.00    +0.007 A 
ENDBRANCH  19  21
ENDBRANCH  16  18
TORSDOF 6
ENDMDL
MODEL 6
REMARK VINA RESULT:      -9.5      3.596      4.884
REMARK  Name = 
REMARK  6 active torsions:
REMARK  status: ('A' for Active; 'I' for Inactive)
REMARK    1  A    between atoms: C_2  and  C_4
REMARK    2  A    between atoms: C_4  and  C_5
REMARK    3  A    between atoms: C_5  and  N_6
REMARK    4  A    between atoms: C_7  and  C_9
REMARK    5  A    between atoms: C_16  and  N_18
REMARK    6  A    between atoms: C_19  and  C_21
REMARK                            x       y       z     vdW  Elec       q    Type
REMARK                         _______ _______ _______ _____ _____    ______ ____
ROOT
ATOM      9  C   UNL     1      -0.925   0.845  24.615  0.00  0.00    +0.200 C 
ATOM     10  O   UNL     1      -1.382   0.313  24.181  0.00  0.00    -0.216 OA
ATOM     11  C   UNL     1      -0.261   1.210  24.941  0.00  0.00    +0.075 C 
ATOM     12  C   UNL     1      -0.351   1.869  25.429  0.00  0.00    +0.187 C 
ATOM     13  O   UNL     1       0.314   2.235  25.755  0.00  0.00    -0.220 OA
ATOM     14  C   UNL     1      -1.105   2.162  25.591  0.00  0.00    +0.202 C 
ATOM     15  O   UNL     1      -1.195   2.822  26.080  0.00  0.00    -0.219 OA
ATOM     16  C   UNL     1      -1.769   1.797  25.266  0.00  0.00    +0.131 C 
ATOM     17  C   UNL     1      -1.678   1.138  24.778  0.00  0.00    +0.064 C 
ENDROOT
BRANCH   9   7
ATOM      6  N   UNL     1       0.051   0.586  23.604  0.00  0.00    -0.203 NA
ATOM      7  C   UNL     1      -0.331   0.367  24.302  0.00  0.00    +0.269 C 
ATOM      8  O   UNL     1      -0.117  -0.331  24.687  0.00  0.00    -0.271 OA
BRANCH   6   5
ATOM      5  C   UNL     1       0.645   0.108  23.290  0.00  0.00    +0.125 C 
BRANCH   5   4
ATOM      4  C   UNL     1       1.134   0.396  22.691  0.00  0.00    +0.112 C 
BRANCH   4   2
ATOM      1  N   UNL     1       2.450  -0.156  22.622  0.00  0.00    -0.088 NA
ATOM      2  C   UNL     1       1.681  -0.103  22.329  0.00  0.00    +0.263 C 
ATOM      3  O   UNL     1       1.459  -0.551  21.672  0.00  0.00    -0.272 OA
ENDBRANCH   4   2
ENDBRANCH   5   4
ENDBRANCH   6   5
ENDBRANCH   9   7
BRANCH  16  18
ATOM     18  N   UNL     1      -2.522   2.090  25.428  0.00  0.00    -0.201 NA
ATOM     19  C   UNL     1      -2.971   2.432  24.826  0.00  0.00    +0.265 C 
ATOM     20  O   UNL     1      -2.664   2.481  24.061  0.00  0.00    -0.268 OA
BRANCH  19  21
ATOM     21  C   UNL     1      -3.724   2.726  24.988  0.00  0.00    +0.056 A 
ATOM     22  C   UNL     1      -4.381   2.229  24.929  0.00  0.00    +0.018 A 
ATOM     23  C   UNL     1      -5.135   2.522  25.092  0.00  0.00    +0.085 A 
ATOM     24 CL   UNL     1      -5.791   2.027  25.033  0.00  0.00    -0.080 Cl
ATOM     25  C   UNL     1      -5.233   3.311  25.313  0.00  0.00    +0.151 A 
ATOM     26  F   UNL     1      -5.986   3.605  25.475  0.00  0.00    -0.203 F 
ATOM     27  C   UNL     1      -4.575   3.807  25.372  0.00  0.00    +0.031 A 
ATOM     28  C   UNL     1      -3.822   3.514  25.209  0.00  0.00    +0.007 A 
ENDBRANCH  19  21
ENDBRANCH  16  18
TORSDOF 6
ENDMDL
