MODEL 1
REMARK VINA RESULT:     -16.4      0.000      0.000
REMARK  Name = 
REMARK  4 active torsions:
REMARK  status: ('A' for Active; 'I' for Inactive)
REMARK    1  A    between atoms: C_2  and  C_4
REMARK    2  A    between atoms: C_7  and  N_8
REMARK    3  A    between atoms: C_20  and  N_21
REMARK    4  A    between atoms: C_22  and  C_24
REMARK                            x       y       z     vdW  Elec       q    Type
REMARK                         _______ _______ _______ _____ _____    ______ ____
ROOT
ATOM      8  N   UNL     1      -2.232  -0.184  24.596  0.00  0.00    -0.162 NA
ATOM      9  C   UNL     1      -1.704  -0.818  24.616  0.00  0.00    +0.327 C 
ATOM     10  O   UNL     1      -0.893  -0.677  24.672  0.00  0.00    -0.250 OA
ATOM     11  N   UNL     1      -1.987  -1.592  24.580  0.00  0.00    -0.262 N 
ATOM     12  C   UNL     1      -1.971  -2.428  24.562  0.00  0.00    +0.097 C 
ATOM     13  C   UNL     1      -2.940  -2.610  24.495  0.00  0.00    +0.043 C 
ATOM     14  C   UNL     1      -3.690  -2.923  24.440  0.00  0.00    +0.011 C 
ATOM     15  C   UNL     1      -3.394  -2.287  24.473  0.00  0.00    +0.058 C 
ATOM     16  C   UNL     1      -2.455  -2.127  24.538  0.00  0.00    +0.101 C 
ATOM     17  C   UNL     1      -3.607  -1.393  24.480  0.00  0.00    +0.041 A 
ATOM     18  C   UNL     1      -4.259  -0.890  24.449  0.00  0.00    +0.014 A 
ATOM     19  C   UNL     1      -4.151  -0.072  24.475  0.00  0.00    +0.023 A 
ATOM     20  C   UNL     1      -3.389   0.241  24.531  0.00  0.00    +0.130 A 
ATOM     30  C   UNL     1      -2.737  -0.262  24.562  0.00  0.00    +0.276 A 
ATOM     31  O   UNL     1      -2.306   0.440  24.606  0.00  0.00    -0.266 OA
ATOM     32  N   UNL     1      -2.845  -1.080  24.536  0.00  0.00    -0.298 N 
ATOM     33  C   UNL     1      -3.152  -1.674  24.503  0.00  0.00    +0.110 C 
ENDROOT
BRANCH   8   7
ATOM      4  C   UNL     1      -1.383   2.138  24.706  0.00  0.00    +0.035 A 
ATOM      5  C   UNL     1      -1.560   1.730  25.401  0.00  0.00    +0.004 A 
ATOM      6  C   UNL     1      -1.843   0.956  25.364  0.00  0.00    +0.017 A 
ATOM      7  C   UNL     1      -1.949   0.589  24.632  0.00  0.00    +0.075 A 
ATOM     34  C   UNL     1      -1.772   0.997  23.938  0.00  0.00    +0.017 A 
ATOM     35  C   UNL     1      -1.489   1.771  23.974  0.00  0.00    +0.004 A 
BRANCH   4   2
ATOM      1  C   UNL     1      -0.918   3.251  25.472  0.00  0.00    +0.077 C 
ATOM      2  C   UNL     1      -1.100   2.912  24.742  0.00  0.00    +0.173 C 
ATOM      3  O   UNL     1      -0.998   3.347  24.049  0.00  0.00    -0.291 OA
ENDBRANCH   4   2
ENDBRANCH   8   7
BRANCH  20  21
ATOM     21  N   UNL     1      -3.282   1.058  24.557  0.00  0.00    -0.171 NA
ATOM     22  C   UNL     1      -3.935   1.562  24.533  0.00  0.00    +0.269 C 
ATOM     23  O   UNL     1      -4.696   1.248  24.484  0.00  0.00    -0.268 OA
BRANCH  22  24
ATOM     24  C   UNL     1      -3.827   2.380  24.559  0.00  0.00    +0.058 A 
ATOM     25  C   UNL     1      -3.813   2.771  25.285  0.00  0.00    +0.025 A 
ATOM     26  C   UNL     1      -3.705   3.589  25.311  0.00  0.00    +0.099 A 
ATOM     27  N   UNL     1      -3.610   4.015  24.610  0.00  0.00    -0.242 NA
ATOM     28  C   UNL     1      -3.624   3.623  23.885  0.00  0.00    +0.099 A 
ATOM     29  C   UNL     1      -3.732   2.806  23.859  0.00  0.00    +0.025 A 
ENDBRANCH  22  24
ENDBRANCH  20  21
TORSDOF 4
ENDMDL
MODEL 2
REMARK VINA RESULT:     -16.0      1.170      4.496
REMARK  Name = 
REMARK  4 active torsions:
REMARK  status: ('A' for Active; 'I' for Inactive)
REMARK    1  A    between atoms: C_2  and  C_4
REMARK    2  A    between atoms: C_7  and  N_8
REMARK    3  A    between atoms: C_20  and  N_21
REMARK    4  A    between atoms: C_22  and  C_24
REMARK                            x       y       z     vdW  Elec       q    Type
REMARK                         _______ _______ _______ _____ _____    ______ ____
ROOT
ATOM      8  N   UNL     1      -4.164   0.964  24.958  0.00  0.00    -0.162 NA
ATOM      9  C   UNL     1      -4.946   1.228  24.970  0.00  0.00    +0.327 C 
ATOM     10  O   UNL     1      -5.565   0.684  24.948  0.00  0.00    -0.250 OA
ATOM     11  N   UNL     1      -5.107   2.037  25.004  0.00  0.00    -0.262 N 
ATOM     12  C   UNL     1      -5.556   2.741  25.034  0.00  0.00    +0.097 C 
ATOM     13  C   UNL     1      -4.823   3.403  25.061  0.00  0.00    +0.043 C 
ATOM     14  C   UNL     1      -4.345   4.062  25.088  0.00  0.00    +0.011 C 
ATOM     15  C   UNL     1      -4.266   3.365  25.059  0.00  0.00    +0.058 C 
ATOM     16  C   UNL     1      -4.986   2.738  25.033  0.00  0.00    +0.101 C 
ATOM     17  C   UNL     1      -3.619   2.713  25.031  0.00  0.00    +0.041 A 
ATOM     18  C   UNL     1      -2.799   2.625  25.026  0.00  0.00    +0.014 A 
ATOM     19  C   UNL     1      -2.466   1.871  24.994  0.00  0.00    +0.023 A 
ATOM     20  C   UNL     1      -2.953   1.205  24.967  0.00  0.00    +0.130 A 
ATOM     30  C   UNL     1      -3.773   1.294  24.972  0.00  0.00    +0.276 A 
ATOM     31  O   UNL     1      -3.776   0.470  24.937  0.00  0.00    -0.266 OA
ATOM     32  N   UNL     1      -4.106   2.048  25.004  0.00  0.00    -0.298 N 
ATOM     33  C   UNL     1      -4.154   2.715  25.032  0.00  0.00    +0.110 C 
ENDROOT
BRANCH   8   7
ATOM      4  C   UNL     1      -3.681  -1.461  24.854  0.00  0.00    +0.035 A 
ATOM      5  C   UNL     1      -3.774  -1.030  24.158  0.00  0.00    +0.004 A 
ATOM      6  C   UNL     1      -3.935  -0.221  24.193  0.00  0.00    +0.017 A 
ATOM      7  C   UNL     1      -4.003   0.156  24.924  0.00  0.00    +0.075 A 
ATOM     34  C   UNL     1      -3.909  -0.277  25.620  0.00  0.00    +0.017 A 
ATOM     35  C   UNL     1      -3.748  -1.085  25.586  0.00  0.00    +0.004 A 
BRANCH   4   2
ATOM      1  C   UNL     1      -3.545  -2.665  24.096  0.00  0.00    +0.077 C 
ATOM      2  C   UNL     1      -3.519  -2.270  24.820  0.00  0.00    +0.173 C 
ATOM      3  O   UNL     1      -3.333  -2.683  25.509  0.00  0.00    -0.291 OA
ENDBRANCH   4   2
ENDBRANCH   8   7
BRANCH  20  21
ATOM     21  N   UNL     1      -2.619   0.452  24.935  0.00  0.00    -0.171 NA
ATOM     22  C   UNL     1      -1.800   0.363  24.945  0.00  0.00    +0.269 C 
ATOM     23  O   UNL     1      -1.313   1.028  24.986  0.00  0.00    -0.268 OA
BRANCH  22  24
ATOM     24  C   UNL     1      -1.466  -0.392  24.913  0.00  0.00    +0.058 A 
ATOM     25  C   UNL     1      -1.294  -0.796  25.611  0.00  0.00    +0.025 A 
ATOM     26  C   UNL     1      -0.960  -1.551  25.579  0.00  0.00    +0.099 A 
ATOM     27  N   UNL     1      -0.800  -1.900  24.849  0.00  0.00    -0.242 NA
ATOM     28  C   UNL     1      -0.972  -1.495  24.152  0.00  0.00    +0.099 A 
ATOM     29  C   UNL     1      -1.305  -0.741  24.183  0.00  0.00    +0.025 A 
ENDBRANCH  22  24
ENDBRANCH  20  21
TORSDOF 4
ENDMDL
MODEL 3
REMARK VINA RESULT:     -15.6      0.960      2.207
REMARK  Name = 
REMARK  4 active torsions:
REMARK  status: ('A' for Active; 'I' for Inactive)
REMARK    1  A    between atoms: C_2  and  C_4
REMARK    2  A    between atoms: C_7  and  N_8
REMARK    3  A    between atoms: C_20  and  N_21
REMARK    4  A    between atoms: C_22  and  C_24
REMARK                            x       y       z     vdW  Elec       q    Type
REMARK                         _______ _______ _______ _____ _____    ______ ____
ROOT
ATOM      8  N   UNL     1      -3.428   0.010  24.428  0.00  0.00    -0.162 NA
ATOM      9  C   UNL     1      -4.043  -0.500  24.219  0.00  0.00    +0.327 C 
ATOM     10  O   UNL     1      -4.770  -0.194  23.981  0.00  0.00    -0.250 OA
ATOM     11  N   UNL     1      -3.929  -1.317  24.249  0.00  0.00    -0.262 N 
ATOM     12  C   UNL     1      -4.105  -2.131  24.183  0.00  0.00    +0.097 C 
ATOM     13  C   UNL     1      -3.238  -2.512  24.466  0.00  0.00    +0.043 C 
ATOM     14  C   UNL     1      -2.600  -2.974  24.673  0.00  0.00    +0.011 C 
ATOM     15  C   UNL     1      -2.753  -2.291  24.629  0.00  0.00    +0.058 C 
ATOM     16  C   UNL     1      -3.596  -1.938  24.353  0.00  0.00    +0.101 C 
ATOM     17  C   UNL     1      -2.382  -1.460  24.760  0.00  0.00    +0.041 A 
ATOM     18  C   UNL     1      -1.677  -1.103  24.997  0.00  0.00    +0.014 A 
ATOM     19  C   UNL     1      -1.621  -0.280  25.024  0.00  0.00    +0.023 A 
ATOM     20  C   UNL     1      -2.269   0.185  24.814  0.00  0.00    +0.130 A 
ATOM     30  C   UNL     1      -2.973  -0.172  24.577  0.00  0.00    +0.276 A 
ATOM     31  O   UNL     1      -3.239   0.605  24.496  0.00  0.00    -0.266 OA
ATOM     32  N   UNL     1      -3.030  -0.994  24.550  0.00  0.00    -0.298 N 
ATOM     33  C   UNL     1      -2.860  -1.639  24.600  0.00  0.00    +0.110 C 
ENDROOT
BRANCH   8   7
ATOM      4  C   UNL     1      -3.771   2.459  24.340  0.00  0.00    +0.035 A 
ATOM      5  C   UNL     1      -3.952   2.042  25.028  0.00  0.00    +0.004 A 
ATOM      6  C   UNL     1      -3.838   1.225  25.057  0.00  0.00    +0.017 A 
ATOM      7  C   UNL     1      -3.542   0.826  24.398  0.00  0.00    +0.075 A 
ATOM     34  C   UNL     1      -3.361   1.244  23.710  0.00  0.00    +0.017 A 
ATOM     35  C   UNL     1      -3.475   2.060  23.680  0.00  0.00    +0.004 A 
BRANCH   4   2
ATOM      1  C   UNL     1      -4.257   3.663  24.937  0.00  0.00    +0.077 C 
ATOM      2  C   UNL     1      -3.885   3.276  24.310  0.00  0.00    +0.173 C 
ATOM      3  O   UNL     1      -3.629   3.705  23.654  0.00  0.00    -0.291 OA
ENDBRANCH   4   2
ENDBRANCH   8   7
BRANCH  20  21
ATOM     21  N   UNL     1      -2.211   1.007  24.841  0.00  0.00    -0.171 NA
ATOM     22  C   UNL     1      -1.506   1.364  25.079  0.00  0.00    +0.269 C 
ATOM     23  O   UNL     1      -0.859   0.899  25.290  0.00  0.00    -0.268 OA
BRANCH  22  24
ATOM     24  C   UNL     1      -1.449   2.188  25.106  0.00  0.00    +0.058 A 
ATOM     25  C   UNL     1      -1.189   2.604  24.443  0.00  0.00    +0.025 A 
ATOM     26  C   UNL     1      -1.132   3.428  24.470  0.00  0.00    +0.099 A 
ATOM     27  N   UNL     1      -1.335   3.832  25.160  0.00  0.00    -0.242 NA
ATOM     28  C   UNL     1      -1.595   3.415  25.821  0.00  0.00    +0.099 A 
ATOM     29  C   UNL     1      -1.652   2.593  25.795  0.00  0.00    +0.025 A 
ENDBRANCH  22  24
ENDBRANCH  20  21
TORSDOF 4
ENDMDL
MODEL 4
REMARK VINA RESULT:     -15.4      1.260      4.228
REMARK  Name = 
REMARK  4 active torsions:
REMARK  status: ('A' for Active; 'I' for Inactive)
REMARK    1  A    between atoms: C_2  and  C_4
REMARK    2  A    between atoms: C_7  and  N_8
REMARK    3  A    between atoms: C_20  and  N_21
REMARK    4  A    between atoms: C_22  and  C_24
REMARK                            x       y       z     vdW  Elec       q    Type
REMARK                         _______ _______ _______ _____ _____    ______ ____
ROOT
ATOM      8  N   UNL     1      -1.336   2.002  25.021  0.00  0.00    -0.162 NA
ATOM      9  C   UNL     1      -0.658   2.471  25.067  0.00  0.00    +0.327 C 
ATOM     10  O   UNL     1       0.088   2.120  25.048  0.00  0.00    -0.250 OA
ATOM     11  N   UNL     1      -0.727   3.290  25.132  0.00  0.00    -0.262 N 
ATOM     12  C   UNL     1      -0.491   4.089  25.199  0.00  0.00    +0.097 C 
ATOM     13  C   UNL     1      -1.379   4.522  25.222  0.00  0.00    +0.043 C 
ATOM     14  C   UNL     1      -2.021   5.023  25.254  0.00  0.00    +0.011 C 
ATOM     15  C   UNL     1      -1.903   4.333  25.201  0.00  0.00    +0.058 C 
ATOM     16  C   UNL     1      -1.038   3.929  25.179  0.00  0.00    +0.101 C 
ATOM     17  C   UNL     1      -2.344   3.530  25.131  0.00  0.00    +0.041 A 
ATOM     18  C   UNL     1      -3.108   3.219  25.097  0.00  0.00    +0.014 A 
ATOM     19  C   UNL     1      -3.219   2.405  25.030  0.00  0.00    +0.023 A 
ATOM     20  C   UNL     1      -2.566   1.901  24.998  0.00  0.00    +0.130 A 
ATOM     30  C   UNL     1      -1.803   2.211  25.032  0.00  0.00    +0.276 A 
ATOM     31  O   UNL     1      -1.572   1.422  24.972  0.00  0.00    -0.266 OA
ATOM     32  N   UNL     1      -1.692   3.026  25.099  0.00  0.00    -0.298 N 
ATOM     33  C   UNL     1      -1.831   3.679  25.149  0.00  0.00    +0.110 C 
ENDROOT
BRANCH   8   7
ATOM      4  C   UNL     1      -1.128  -0.456  24.825  0.00  0.00    +0.035 A 
ATOM      5  C   UNL     1      -1.152   0.011  24.146  0.00  0.00    +0.004 A 
ATOM      6  C   UNL     1      -1.221   0.830  24.211  0.00  0.00    +0.017 A 
ATOM      7  C   UNL     1      -1.267   1.183  24.957  0.00  0.00    +0.075 A 
ATOM     34  C   UNL     1      -1.243   0.715  25.635  0.00  0.00    +0.017 A 
ATOM     35  C   UNL     1      -1.174  -0.104  25.571  0.00  0.00    +0.004 A 
BRANCH   4   2
ATOM      1  C   UNL     1      -0.898  -1.731  25.429  0.00  0.00    +0.077 C 
ATOM      2  C   UNL     1      -1.059  -1.276  24.760  0.00  0.00    +0.173 C 
ATOM      3  O   UNL     1      -1.150  -1.640  24.026  0.00  0.00    -0.291 OA
ENDBRANCH   4   2
ENDBRANCH   8   7
BRANCH  20  21
ATOM     21  N   UNL     1      -2.678   1.086  24.931  0.00  0.00    -0.171 NA
ATOM     22  C   UNL     1      -3.441   0.776  24.899  0.00  0.00    +0.269 C 
ATOM     23  O   UNL     1      -4.094   1.280  24.934  0.00  0.00    -0.268 OA
BRANCH  22  24
ATOM     24  C   UNL     1      -3.553  -0.040  24.833  0.00  0.00    +0.058 A 
ATOM     25  C   UNL     1      -3.629  -0.386  24.088  0.00  0.00    +0.025 A 
ATOM     26  C   UNL     1      -3.740  -1.201  24.021  0.00  0.00    +0.099 A 
ATOM     27  N   UNL     1      -3.775  -1.669  24.700  0.00  0.00    -0.242 NA
ATOM     28  C   UNL     1      -3.699  -1.323  25.444  0.00  0.00    +0.099 A 
ATOM     29  C   UNL     1      -3.588  -0.508  25.511  0.00  0.00    +0.025 A 
ENDBRANCH  22  24
ENDBRANCH  20  21
TORSDOF 4
ENDMDL
MODEL 5
REMARK VINA RESULT:     -14.4      1.337      3.707
REMARK  Name = 
REMARK  4 active torsions:
REMARK  status: ('A' for Active; 'I' for Inactive)
REMARK    1  A    between atoms: C_2  and  C_4
REMARK    2  A    between atoms: C_7  and  N_8
REMARK    3  A    between atoms: C_20  and  N_21
REMARK    4  A    between atoms: C_22  and  C_24
REMARK                            x       y       z     vdW  Elec       q    Type
REMARK                         _______ _______ _______ _____ _____    ______ ____
ROOT
ATOM      8  N   UNL     1      -3.361   1.826  24.667  0.00  0.00    -0.162 NA
ATOM      9  C   UNL     1      -3.666   2.582  24.538  0.00  0.00    +0.327 C 
ATOM     10  O   UNL     1      -3.169   3.189  24.284  0.00  0.00    -0.250 OA
ATOM     11  N   UNL     1      -4.468   2.730  24.662  0.00  0.00    -0.262 N 
ATOM     12  C   UNL     1      -5.185   3.158  24.699  0.00  0.00    +0.097 C 
ATOM     13  C   UNL     1      -5.791   2.439  25.003  0.00  0.00    +0.043 C 
ATOM     14  C   UNL     1      -6.409   1.969  25.247  0.00  0.00    +0.011 C 
ATOM     15  C   UNL     1      -5.722   1.900  25.125  0.00  0.00    +0.058 C 
ATOM     16  C   UNL     1      -5.148   2.605  24.831  0.00  0.00    +0.101 C 
ATOM     17  C   UNL     1      -5.045   1.279  25.146  0.00  0.00    +0.041 A 
ATOM     18  C   UNL     1      -4.910   0.484  25.319  0.00  0.00    +0.014 A 
ATOM     19  C   UNL     1      -4.151   0.169  25.246  0.00  0.00    +0.023 A 
ATOM     20  C   UNL     1      -3.527   0.648  24.999  0.00  0.00    +0.130 A 
ATOM     30  C   UNL     1      -3.662   1.443  24.825  0.00  0.00    +0.276 A 
ATOM     31  O   UNL     1      -2.854   1.454  24.659  0.00  0.00    -0.266 OA
ATOM     32  N   UNL     1      -4.421   1.758  24.898  0.00  0.00    -0.298 N 
ATOM     33  C   UNL     1      -5.077   1.797  25.021  0.00  0.00    +0.110 C 
ENDROOT
BRANCH   8   7
ATOM      4  C   UNL     1      -0.955   1.382  24.292  0.00  0.00    +0.035 A 
ATOM      5  C   UNL     1      -1.494   1.284  23.675  0.00  0.00    +0.004 A 
ATOM      6  C   UNL     1      -2.296   1.432  23.800  0.00  0.00    +0.017 A 
ATOM      7  C   UNL     1      -2.559   1.678  24.543  0.00  0.00    +0.075 A 
ATOM     34  C   UNL     1      -2.020   1.776  25.159  0.00  0.00    +0.017 A 
ATOM     35  C   UNL     1      -1.219   1.628  25.035  0.00  0.00    +0.004 A 
BRANCH   4   2
ATOM      1  C   UNL     1       0.406   1.505  24.710  0.00  0.00    +0.077 C 
ATOM      2  C   UNL     1      -0.153   1.234  24.167  0.00  0.00    +0.173 C 
ATOM      3  O   UNL     1       0.089   0.816  23.498  0.00  0.00    -0.291 OA
ENDBRANCH   4   2
ENDBRANCH   8   7
BRANCH  20  21
ATOM     21  N   UNL     1      -2.769   0.332  24.925  0.00  0.00    -0.171 NA
ATOM     22  C   UNL     1      -2.632  -0.460  25.110  0.00  0.00    +0.269 C 
ATOM     23  O   UNL     1      -3.254  -0.936  25.368  0.00  0.00    -0.268 OA
BRANCH  22  24
ATOM     24  C   UNL     1      -1.872  -0.775  25.037  0.00  0.00    +0.058 A 
ATOM     25  C   UNL     1      -1.634  -1.112  24.322  0.00  0.00    +0.025 A 
ATOM     26  C   UNL     1      -0.875  -1.428  24.249  0.00  0.00    +0.099 A 
ATOM     27  N   UNL     1      -0.355  -1.406  24.890  0.00  0.00    -0.242 NA
ATOM     28  C   UNL     1      -0.595  -1.070  25.603  0.00  0.00    +0.099 A 
ATOM     29  C   UNL     1      -1.353  -0.754  25.677  0.00  0.00    +0.025 A 
ENDBRANCH  22  24
ENDBRANCH  20  21
TORSDOF 4
ENDMDL
