MODEL 1
REMARK VINA RESULT:     -12.3      0.000      0.000
REMARK  Name = 
REMARK  7 active torsions:
REMARK  status: ('A' for Active; 'I' for Inactive)
REMARK    1  A    between atoms: C_7  and  C_8
REMARK    2  A    between atoms: N_10  and  C_11
REMARK    3  A    between atoms: C_14  and  C_17
REMARK    4  A    between atoms: C_17  and  C_19
REMARK    5  A    between atoms: N_25  and  C_26
REMARK    6  A    between atoms: C_26  and  C_27
REMARK    7  A    between atoms: C_30  and  C_33
REMARK                            x       y       z     vdW  Elec       q    Type
REMARK                         _______ _______ _______ _____ _____    ______ ____
ROOT
ATOM     17  C   UNL     1      -3.909   2.916  24.222  0.00  0.00    +0.195 C 
ATOM     18  O   UNL     1      -3.787   3.326  23.517  0.00  0.00    -0.216 OA
ENDROOT
BRANCH  17  19
ATOM     19  C   UNL     1      -3.973   3.328  24.934  0.00  0.00    +0.140 C 
ATOM     20  C   UNL     1      -4.675   3.300  25.365  0.00  0.00    +0.165 C 
ATOM     21  O   UNL     1      -4.740   3.712  26.077  0.00  0.00    -0.343 OA
ATOM     22  C   UNL     1      -4.100   4.152  26.358  0.00  0.00    +0.227 C 
ATOM     23  C   UNL     1      -3.397   4.180  25.926  0.00  0.00    +0.256 C 
ATOM     24  O   UNL     1      -2.759   4.620  26.207  0.00  0.00    -0.272 OA
ATOM     25  N   UNL     1      -3.333   3.767  25.215  0.00  0.00    -0.270 N 
BRANCH  25  26
ATOM     26  C   UNL     1      -2.631   3.795  24.784  0.00  0.00    +0.120 C 
BRANCH  26  27
ATOM     27  C   UNL     1      -1.926   3.534  25.125  0.00  0.00    -0.002 A 
ATOM     28  C   UNL     1      -1.945   3.058  25.798  0.00  0.00    -0.003 A 
ATOM     29  C   UNL     1      -1.241   2.797  26.139  0.00  0.00    +0.004 A 
ATOM     30  C   UNL     1      -0.517   3.013  25.807  0.00  0.00    +0.071 A 
ATOM     31  C   UNL     1      -0.498   3.490  25.133  0.00  0.00    +0.004 A 
ATOM     32  C   UNL     1      -1.203   3.750  24.793  0.00  0.00    -0.003 A 
BRANCH  30  33
ATOM     33  C   UNL     1       0.188   2.752  26.147  0.00  0.00    +0.419 C 
ATOM     34  F   UNL     1       0.892   2.492  26.488  0.00  0.00    -0.166 F 
ATOM     35  F   UNL     1       0.552   2.772  25.407  0.00  0.00    -0.166 F 
ATOM     36  F   UNL     1      -0.178   2.733  26.887  0.00  0.00    -0.166 F 
ENDBRANCH  30  33
ENDBRANCH  26  27
ENDBRANCH  25  26
ENDBRANCH  17  19
BRANCH  17  14
ATOM     11  C   UNL     1      -4.084   0.447  24.202  0.00  0.00    +0.074 A 
ATOM     12  C   UNL     1      -4.587   0.892  24.682  0.00  0.00    +0.016 A 
ATOM     13  C   UNL     1      -4.528   1.715  24.689  0.00  0.00    -0.000 A 
ATOM     14  C   UNL     1      -3.967   2.092  24.216  0.00  0.00    +0.010 A 
ATOM     15  C   UNL     1      -3.465   1.647  23.736  0.00  0.00    -0.000 A 
ATOM     16  C   UNL     1      -3.524   0.824  23.729  0.00  0.00    +0.016 A 
BRANCH  11  10
ATOM      8  C   UNL     1      -3.588  -0.833  24.600  0.00  0.00    +0.286 C 
ATOM      9  O   UNL     1      -2.975  -0.466  25.013  0.00  0.00    -0.266 OA
ATOM     10  N   UNL     1      -4.143  -0.377  24.195  0.00  0.00    -0.174 NA
BRANCH   8   7
ATOM      1  C   UNL     1      -3.264  -1.925  25.987  0.00  0.00    +0.154 C 
ATOM      2  N   UNL     1      -3.498  -2.158  25.231  0.00  0.00    -0.245 N 
ATOM      3  N   UNL     1      -3.623  -2.933  24.979  0.00  0.00    -0.173 NA
ATOM      4  C   UNL     1      -3.850  -2.910  24.187  0.00  0.00    +0.081 A 
ATOM      5  C   UNL     1      -4.031  -3.563  23.715  0.00  0.00    +0.054 C 
ATOM      6  C   UNL     1      -3.864  -2.120  23.949  0.00  0.00    +0.040 A 
ATOM      7  C   UNL     1      -3.647  -1.655  24.593  0.00  0.00    +0.134 A 
ENDBRANCH   8   7
ENDBRANCH  11  10
ENDBRANCH  17  14
TORSDOF 7
ENDMDL
MODEL 2
REMARK VINA RESULT:     -11.9      1.121      1.484
REMARK  Name = 
REMARK  7 active torsions:
REMARK  status: ('A' for Active; 'I' for Inactive)
REMARK    1  A    between atoms: C_7  and  C_8
REMARK    2  A    between atoms: N_10  and  C_11
REMARK    3  A    between atoms: C_14  and  C_17
REMARK    4  A    between atoms: C_17  and  C_19
REMARK    5  A    between atoms: N_25  and  C_26
REMARK    6  A    between atoms: C_26  and  C_27
REMARK    7  A    between atoms: C_30  and  C_33
REMARK                            x       y       z     vdW  Elec       q    Type
REMARK                         _______ _______ _______ _____ _____    ______ ____
ROOT
ATOM     17  C   UNL     1      -4.178   2.672  24.211  0.00  0.00    +0.195 C 
ATOM     18  O   UNL     1      -4.028   3.078  23.509  0.00  0.00    -0.216 OA
ENDROOT
BRANCH  17  19
ATOM     19  C   UNL     1      -4.333   3.090  24.905  0.00  0.00    +0.140 C 
ATOM     20  C   UNL     1      -5.110   3.276  25.109  0.00  0.00    +0.165 C 
ATOM     21  O   UNL     1      -5.266   3.695  25.803  0.00  0.00    -0.343 OA
ATOM     22  C   UNL     1      -4.644   3.927  26.293  0.00  0.00    +0.227 C 
ATOM     23  C   UNL     1      -3.866   3.741  26.088  0.00  0.00    +0.256 C 
ATOM     24  O   UNL     1      -3.244   3.974  26.578  0.00  0.00    -0.272 OA
ATOM     25  N   UNL     1      -3.711   3.323  25.395  0.00  0.00    -0.270 N 
BRANCH  25  26
ATOM     26  C   UNL     1      -2.934   3.137  25.191  0.00  0.00    +0.120 C 
BRANCH  26  27
ATOM     27  C   UNL     1      -2.372   3.736  25.114  0.00  0.00    -0.002 A 
ATOM     28  C   UNL     1      -2.567   4.437  24.727  0.00  0.00    -0.003 A 
ATOM     29  C   UNL     1      -2.005   5.037  24.651  0.00  0.00    +0.004 A 
ATOM     30  C   UNL     1      -1.248   4.934  24.962  0.00  0.00    +0.071 A 
ATOM     31  C   UNL     1      -1.053   4.232  25.350  0.00  0.00    +0.004 A 
ATOM     32  C   UNL     1      -1.615   3.634  25.426  0.00  0.00    -0.003 A 
BRANCH  30  33
ATOM     33  C   UNL     1      -0.685   5.533  24.886  0.00  0.00    +0.419 C 
ATOM     34  F   UNL     1      -0.124   6.133  24.811  0.00  0.00    -0.166 F 
ATOM     35  F   UNL     1      -0.153   4.992  24.562  0.00  0.00    -0.166 F 
ATOM     36  F   UNL     1      -1.218   6.073  25.210  0.00  0.00    -0.166 F 
ENDBRANCH  30  33
ENDBRANCH  26  27
ENDBRANCH  25  26
ENDBRANCH  17  19
BRANCH  17  14
ATOM     11  C   UNL     1      -4.162   0.197  24.236  0.00  0.00    +0.074 A 
ATOM     12  C   UNL     1      -3.605   0.609  23.788  0.00  0.00    +0.016 A 
ATOM     13  C   UNL     1      -3.610   1.434  23.780  0.00  0.00    -0.000 A 
ATOM     14  C   UNL     1      -4.173   1.847  24.220  0.00  0.00    +0.010 A 
ATOM     15  C   UNL     1      -4.730   1.435  24.667  0.00  0.00    -0.000 A 
ATOM     16  C   UNL     1      -4.725   0.610  24.676  0.00  0.00    +0.016 A 
BRANCH  11  10
ATOM      8  C   UNL     1      -3.591  -1.033  24.688  0.00  0.00    +0.286 C 
ATOM      9  O   UNL     1      -3.030  -0.612  25.123  0.00  0.00    -0.266 OA
ATOM     10  N   UNL     1      -4.157  -0.628  24.244  0.00  0.00    -0.174 NA
BRANCH   8   7
ATOM      1  C   UNL     1      -3.189  -2.071  26.095  0.00  0.00    +0.154 C 
ATOM      2  N   UNL     1      -3.401  -2.335  25.343  0.00  0.00    -0.245 N 
ATOM      3  N   UNL     1      -3.465  -3.122  25.105  0.00  0.00    -0.173 NA
ATOM      4  C   UNL     1      -3.690  -3.131  24.312  0.00  0.00    +0.081 A 
ATOM      5  C   UNL     1      -3.818  -3.804  23.852  0.00  0.00    +0.054 C 
ATOM      6  C   UNL     1      -3.764  -2.349  24.059  0.00  0.00    +0.040 A 
ATOM      7  C   UNL     1      -3.585  -1.857  24.696  0.00  0.00    +0.134 A 
ENDBRANCH   8   7
ENDBRANCH  11  10
ENDBRANCH  17  14
TORSDOF 7
ENDMDL
MODEL 3
REMARK VINA RESULT:     -11.8      3.813      5.410
REMARK  Name = 
REMARK  7 active torsions:
REMARK  status: ('A' for Active; 'I' for Inactive)
REMARK    1  A    between atoms: C_7  and  C_8
REMARK    2  A    between atoms: N_10  and  C_11
REMARK    3  A    between atoms: C_14  and  C_17
REMARK    4  A    between atoms: C_17  and  C_19
REMARK    5  A    between atoms: N_25  and  C_26
REMARK    6  A    between atoms: C_26  and  C_27
REMARK    7  A    between atoms: C_30  and  C_33
REMARK                            x       y       z     vdW  Elec       q    Type
REMARK                         _______ _______ _______ _____ _____    ______ ____
ROOT
ATOM     17  C   UNL     1      -1.906   1.083  25.077  0.00  0.00    +0.195 C 
ATOM     18  O   UNL     1      -1.952   0.773  25.840  0.00  0.00    -0.216 OA
ENDROOT
BRANCH  17  19
ATOM     19  C   UNL     1      -2.580   1.393  24.716  0.00  0.00    +0.140 C 
ATOM     20  C   UNL     1      -2.518   2.052  24.225  0.00  0.00    +0.165 C 
ATOM     21  O   UNL     1      -3.192   2.363  23.863  0.00  0.00    -0.343 OA
ATOM     22  C   UNL     1      -3.928   2.012  23.993  0.00  0.00    +0.227 C 
ATOM     23  C   UNL     1      -3.989   1.352  24.485  0.00  0.00    +0.256 C 
ATOM     24  O   UNL     1      -4.725   1.002  24.615  0.00  0.00    -0.272 OA
ATOM     25  N   UNL     1      -3.315   1.042  24.846  0.00  0.00    -0.270 N 
BRANCH  25  26
ATOM     26  C   UNL     1      -3.377   0.383  25.337  0.00  0.00    +0.120 C 
BRANCH  26  27
ATOM     27  C   UNL     1      -3.567  -0.354  25.018  0.00  0.00    -0.002 A 
ATOM     28  C   UNL     1      -3.436  -1.040  25.455  0.00  0.00    -0.003 A 
ATOM     29  C   UNL     1      -3.626  -1.777  25.136  0.00  0.00    +0.004 A 
ATOM     30  C   UNL     1      -3.948  -1.826  24.378  0.00  0.00    +0.071 A 
ATOM     31  C   UNL     1      -4.080  -1.140  23.940  0.00  0.00    +0.004 A 
ATOM     32  C   UNL     1      -3.889  -0.404  24.260  0.00  0.00    -0.003 A 
BRANCH  30  33
ATOM     33  C   UNL     1      -4.139  -2.562  24.058  0.00  0.00    +0.419 C 
ATOM     34  F   UNL     1      -4.329  -3.299  23.738  0.00  0.00    -0.166 F 
ATOM     35  F   UNL     1      -4.635  -2.196  23.510  0.00  0.00    -0.166 F 
ATOM     36  F   UNL     1      -3.642  -2.928  24.606  0.00  0.00    -0.166 F 
ENDBRANCH  30  33
ENDBRANCH  26  27
ENDBRANCH  25  26
ENDBRANCH  17  19
BRANCH  17  14
ATOM     11  C   UNL     1       0.256   1.085  23.871  0.00  0.00    +0.074 A 
ATOM     12  C   UNL     1      -0.364   0.609  23.606  0.00  0.00    +0.016 A 
ATOM     13  C   UNL     1      -1.085   0.608  24.008  0.00  0.00    -0.000 A 
ATOM     14  C   UNL     1      -1.185   1.084  24.675  0.00  0.00    +0.010 A 
ATOM     15  C   UNL     1      -0.566   1.560  24.939  0.00  0.00    -0.000 A 
ATOM     16  C   UNL     1       0.155   1.561  24.537  0.00  0.00    +0.016 A 
BRANCH  11  10
ATOM      8  C   UNL     1       1.357   0.373  23.304  0.00  0.00    +0.286 C 
ATOM      9  O   UNL     1       1.017  -0.340  23.541  0.00  0.00    -0.266 OA
ATOM     10  N   UNL     1       0.977   1.086  23.469  0.00  0.00    -0.174 NA
BRANCH   8   7
ATOM      1  C   UNL     1       1.680  -0.396  21.715  0.00  0.00    +0.154 C 
ATOM      2  N   UNL     1       2.226   0.021  22.171  0.00  0.00    -0.245 N 
ATOM      3  N   UNL     1       3.016   0.157  21.978  0.00  0.00    -0.173 NA
ATOM      4  C   UNL     1       3.356   0.594  22.589  0.00  0.00    +0.081 A 
ATOM      5  C   UNL     1       4.139   0.853  22.623  0.00  0.00    +0.054 C 
ATOM      6  C   UNL     1       2.776   0.729  23.160  0.00  0.00    +0.040 A 
ATOM      7  C   UNL     1       2.077   0.374  22.902  0.00  0.00    +0.134 A 
ENDBRANCH   8   7
ENDBRANCH  11  10
ENDBRANCH  17  14
TORSDOF 7
ENDMDL
MODEL 4
REMARK VINA RESULT:     -11.6      3.590      5.469
REMARK  Name = 
REMARK  7 active torsions:
REMARK  status: ('A' for Active; 'I' for Inactive)
REMARK    1  A    between atoms: C_7  and  C_8
REMARK    2  A    between atoms: N_10  and  C_11
REMARK    3  A    between atoms: C_14  and  C_17
REMARK    4  A    between atoms: C_17  and  C_19
REMARK    5  A    between atoms: N_25  and  C_26
REMARK    6  A    between atoms: C_26  and  C_27
REMARK    7  A    between atoms: C_30  and  C_33
REMARK                            x       y       z     vdW  Elec       q    Type
REMARK                         _______ _______ _______ _____ _____    ______ ____
ROOT
ATOM     17  C   UNL     1      -2.154  -0.717  25.238  0.00  0.00    +0.195 C 
ATOM     18  O   UNL     1      -2.284  -0.427  26.000  0.00  0.00    -0.216 OA
ENDROOT
BRANCH  17  19
ATOM     19  C   UNL     1      -2.767  -1.084  24.826  0.00  0.00    +0.140 C 
ATOM     20  C   UNL     1      -2.823  -1.907  24.816  0.00  0.00    +0.165 C 
ATOM     21  O   UNL     1      -3.436  -2.275  24.403  0.00  0.00    -0.343 OA
ATOM     22  C   UNL     1      -3.993  -1.818  24.001  0.00  0.00    +0.227 C 
ATOM     23  C   UNL     1      -3.938  -0.995  24.011  0.00  0.00    +0.256 C 
ATOM     24  O   UNL     1      -4.495  -0.539  23.609  0.00  0.00    -0.272 OA
ATOM     25  N   UNL     1      -3.325  -0.628  24.424  0.00  0.00    -0.270 N 
BRANCH  25  26
ATOM     26  C   UNL     1      -3.269   0.195  24.434  0.00  0.00    +0.120 C 
BRANCH  26  27
ATOM     27  C   UNL     1      -3.924   0.651  24.644  0.00  0.00    -0.002 A 
ATOM     28  C   UNL     1      -4.401   0.421  25.276  0.00  0.00    -0.003 A 
ATOM     29  C   UNL     1      -5.056   0.877  25.487  0.00  0.00    +0.004 A 
ATOM     30  C   UNL     1      -5.234   1.563  25.064  0.00  0.00    +0.071 A 
ATOM     31  C   UNL     1      -4.757   1.792  24.431  0.00  0.00    +0.004 A 
ATOM     32  C   UNL     1      -4.102   1.336  24.221  0.00  0.00    -0.003 A 
BRANCH  30  33
ATOM     33  C   UNL     1      -5.888   2.019  25.273  0.00  0.00    +0.419 C 
ATOM     34  F   UNL     1      -6.543   2.475  25.482  0.00  0.00    -0.166 F 
ATOM     35  F   UNL     1      -5.427   2.429  25.821  0.00  0.00    -0.166 F 
ATOM     36  F   UNL     1      -6.349   1.608  24.726  0.00  0.00    -0.166 F 
ENDBRANCH  30  33
ENDBRANCH  26  27
ENDBRANCH  25  26
ENDBRANCH  17  19
BRANCH  17  14
ATOM     11  C   UNL     1       0.077  -0.487  24.192  0.00  0.00    +0.074 A 
ATOM     12  C   UNL     1      -0.278  -1.229  24.247  0.00  0.00    +0.016 A 
ATOM     13  C   UNL     1      -1.022  -1.306  24.596  0.00  0.00    -0.000 A 
ATOM     14  C   UNL     1      -1.410  -0.640  24.889  0.00  0.00    +0.010 A 
ATOM     15  C   UNL     1      -1.055   0.102  24.834  0.00  0.00    -0.000 A 
ATOM     16  C   UNL     1      -0.311   0.179  24.486  0.00  0.00    +0.016 A 
BRANCH  11  10
ATOM      8  C   UNL     1       0.903   0.001  23.132  0.00  0.00    +0.286 C 
ATOM      9  O   UNL     1       0.240   0.334  22.770  0.00  0.00    -0.266 OA
ATOM     10  N   UNL     1       0.821  -0.410  23.843  0.00  0.00    -0.174 NA
BRANCH   8   7
ATOM      1  C   UNL     1       1.358  -0.551  21.486  0.00  0.00    +0.154 C 
ATOM      2  N   UNL     1       1.856  -0.176  22.027  0.00  0.00    -0.245 N 
ATOM      3  N   UNL     1       2.650   0.011  21.906  0.00  0.00    -0.173 NA
ATOM      4  C   UNL     1       2.931   0.380  22.588  0.00  0.00    +0.081 A 
ATOM      5  C   UNL     1       3.698   0.660  22.707  0.00  0.00    +0.054 C 
ATOM      6  C   UNL     1       2.310   0.421  23.130  0.00  0.00    +0.040 A 
ATOM      7  C   UNL     1       1.646   0.078  22.784  0.00  0.00    +0.134 A 
ENDBRANCH   8   7
ENDBRANCH  11  10
ENDBRANCH  17  14
TORSDOF 7
ENDMDL
MODEL 5
REMARK VINA RESULT:     -11.3      3.625      5.051
REMARK  Name = 
REMARK  7 active torsions:
REMARK  status: ('A' for Active; 'I' for Inactive)
REMARK    1  A    between atoms: C_7  and  C_8
REMARK    2  A    between atoms: N_10  and  C_11
REMARK    3  A    between atoms: C_14  and  C_17
REMARK    4  A    between atoms: C_17  and  C_19
REMARK    5  A    between atoms: N_25  and  C_26
REMARK    6  A    between atoms: C_26  and  C_27
REMARK    7  A    between atoms: C_30  and  C_33
REMARK                            x       y       z     vdW  Elec       q    Type
REMARK                         _______ _______ _______ _____ _____    ______ ____
ROOT
ATOM     17  C   UNL     1      -1.617   1.890  25.149  0.00  0.00    +0.195 C 
ATOM     18  O   UNL     1      -2.077   1.247  25.382  0.00  0.00    -0.216 OA
ENDROOT
BRANCH  17  19
ATOM     19  C   UNL     1      -1.868   2.658  25.311  0.00  0.00    +0.140 C 
ATOM     20  C   UNL     1      -1.434   3.134  25.826  0.00  0.00    +0.165 C 
ATOM     21  O   UNL     1      -1.686   3.903  25.989  0.00  0.00    -0.343 OA
ATOM     22  C   UNL     1      -2.372   4.196  25.636  0.00  0.00    +0.227 C 
ATOM     23  C   UNL     1      -2.806   3.719  25.120  0.00  0.00    +0.256 C 
ATOM     24  O   UNL     1      -3.492   4.012  24.768  0.00  0.00    -0.272 OA
ATOM     25  N   UNL     1      -2.555   2.951  24.958  0.00  0.00    -0.270 N 
BRANCH  25  26
ATOM     26  C   UNL     1      -2.989   2.475  24.443  0.00  0.00    +0.120 C 
BRANCH  26  27
ATOM     27  C   UNL     1      -3.792   2.344  24.580  0.00  0.00    -0.002 A 
ATOM     28  C   UNL     1      -4.031   1.869  25.209  0.00  0.00    -0.003 A 
ATOM     29  C   UNL     1      -4.835   1.738  25.346  0.00  0.00    +0.004 A 
ATOM     30  C   UNL     1      -5.398   2.083  24.852  0.00  0.00    +0.071 A 
ATOM     31  C   UNL     1      -5.158   2.559  24.221  0.00  0.00    +0.004 A 
ATOM     32  C   UNL     1      -4.355   2.689  24.086  0.00  0.00    -0.003 A 
BRANCH  30  33
ATOM     33  C   UNL     1      -6.201   1.952  24.987  0.00  0.00    +0.419 C 
ATOM     34  F   UNL     1      -7.005   1.821  25.123  0.00  0.00    -0.166 F 
ATOM     35  F   UNL     1      -6.240   2.649  25.427  0.00  0.00    -0.166 F 
ATOM     36  F   UNL     1      -6.161   1.256  24.547  0.00  0.00    -0.166 F 
ENDBRANCH  30  33
ENDBRANCH  26  27
ENDBRANCH  25  26
ENDBRANCH  17  19
BRANCH  17  14
ATOM     11  C   UNL     1       0.522   1.513  23.961  0.00  0.00    +0.074 A 
ATOM     12  C   UNL     1       0.516   1.608  24.780  0.00  0.00    +0.016 A 
ATOM     13  C   UNL     1      -0.197   1.733  25.177  0.00  0.00    -0.000 A 
ATOM     14  C   UNL     1      -0.904   1.764  24.753  0.00  0.00    +0.010 A 
ATOM     15  C   UNL     1      -0.898   1.669  23.933  0.00  0.00    -0.000 A 
ATOM     16  C   UNL     1      -0.185   1.544  23.537  0.00  0.00    +0.016 A 
BRANCH  11  10
ATOM      8  C   UNL     1       1.455   0.623  23.343  0.00  0.00    +0.286 C 
ATOM      9  O   UNL     1       0.961  -0.014  23.518  0.00  0.00    -0.266 OA
ATOM     10  N   UNL     1       1.235   1.387  23.565  0.00  0.00    -0.174 NA
BRANCH   8   7
ATOM      1  C   UNL     1       1.676  -0.356  21.856  0.00  0.00    +0.154 C 
ATOM      2  N   UNL     1       2.269   0.048  22.264  0.00  0.00    -0.245 N 
ATOM      3  N   UNL     1       3.068   0.072  22.059  0.00  0.00    -0.173 NA
ATOM      4  C   UNL     1       3.459   0.538  22.616  0.00  0.00    +0.081 A 
ATOM      5  C   UNL     1       4.266   0.710  22.623  0.00  0.00    +0.054 C 
ATOM      6  C   UNL     1       2.902   0.801  23.165  0.00  0.00    +0.040 A 
ATOM      7  C   UNL     1       2.167   0.498  22.948  0.00  0.00    +0.134 A 
ENDBRANCH   8   7
ENDBRANCH  11  10
ENDBRANCH  17  14
TORSDOF 7
ENDMDL
MODEL 6
REMARK VINA RESULT:     -11.3      2.962      6.317
REMARK  Name = 
REMARK  7 active torsions:
REMARK  status: ('A' for Active; 'I' for Inactive)
REMARK    1  A    between atoms: C_7  and  C_8
REMARK    2  A    between atoms: N_10  and  C_11
REMARK    3  A    between atoms: C_14  and  C_17
REMARK    4  A    between atoms: C_17  and  C_19
REMARK    5  A    between atoms: N_25  and  C_26
REMARK    6  A    between atoms: C_26  and  C_27
REMARK    7  A    between atoms: C_30  and  C_33
REMARK                            x       y       z     vdW  Elec       q    Type
REMARK                         _______ _______ _______ _____ _____    ______ ____
ROOT
ATOM     17  C   UNL     1      -1.135  -0.263  25.596  0.00  0.00    +0.195 C 
ATOM     18  O   UNL     1      -1.408  -0.554  26.318  0.00  0.00    -0.216 OA
ENDROOT
BRANCH  17  19
ATOM     19  C   UNL     1      -0.857  -0.783  25.020  0.00  0.00    +0.140 C 
ATOM     20  C   UNL     1      -0.181  -0.595  24.587  0.00  0.00    +0.165 C 
ATOM     21  O   UNL     1       0.099  -1.115  24.010  0.00  0.00    -0.343 OA
ATOM     22  C   UNL     1      -0.299  -1.824  23.867  0.00  0.00    +0.227 C 
ATOM     23  C   UNL     1      -0.976  -2.012  24.301  0.00  0.00    +0.256 C 
ATOM     24  O   UNL     1      -1.373  -2.721  24.157  0.00  0.00    -0.272 OA
ATOM     25  N   UNL     1      -1.254  -1.492  24.877  0.00  0.00    -0.270 N 
BRANCH  25  26
ATOM     26  C   UNL     1      -1.930  -1.680  25.310  0.00  0.00    +0.120 C 
BRANCH  26  27
ATOM     27  C   UNL     1      -2.626  -1.890  24.919  0.00  0.00    -0.002 A 
ATOM     28  C   UNL     1      -3.022  -1.335  24.454  0.00  0.00    -0.003 A 
ATOM     29  C   UNL     1      -3.717  -1.545  24.063  0.00  0.00    +0.004 A 
ATOM     30  C   UNL     1      -4.018  -2.310  24.137  0.00  0.00    +0.071 A 
ATOM     31  C   UNL     1      -3.622  -2.865  24.603  0.00  0.00    +0.004 A 
ATOM     32  C   UNL     1      -2.926  -2.655  24.993  0.00  0.00    -0.003 A 
BRANCH  30  33
ATOM     33  C   UNL     1      -4.713  -2.520  23.747  0.00  0.00    +0.419 C 
ATOM     34  F   UNL     1      -5.409  -2.730  23.357  0.00  0.00    -0.166 F 
ATOM     35  F   UNL     1      -4.456  -3.303  23.711  0.00  0.00    -0.166 F 
ATOM     36  F   UNL     1      -4.969  -1.737  23.784  0.00  0.00    -0.166 F 
ENDBRANCH  30  33
ENDBRANCH  26  27
ENDBRANCH  25  26
ENDBRANCH  17  19
BRANCH  17  14
ATOM     11  C   UNL     1      -1.154   2.173  25.159  0.00  0.00    +0.074 A 
ATOM     12  C   UNL     1      -1.746   1.693  24.844  0.00  0.00    +0.016 A 
ATOM     13  C   UNL     1      -1.740   0.880  24.989  0.00  0.00    -0.000 A 
ATOM     14  C   UNL     1      -1.142   0.549  25.451  0.00  0.00    +0.010 A 
ATOM     15  C   UNL     1      -0.550   1.029  25.766  0.00  0.00    -0.000 A 
ATOM     16  C   UNL     1      -0.556   1.842  25.621  0.00  0.00    +0.016 A 
BRANCH  11  10
ATOM      8  C   UNL     1      -1.587   3.490  25.508  0.00  0.00    +0.286 C 
ATOM      9  O   UNL     1      -2.007   3.182  26.148  0.00  0.00    -0.266 OA
ATOM     10  N   UNL     1      -1.161   2.985  25.014  0.00  0.00    -0.174 NA
BRANCH   8   7
ATOM      1  C   UNL     1      -2.908   4.628  25.933  0.00  0.00    +0.154 C 
ATOM      2  N   UNL     1      -2.201   4.825  25.558  0.00  0.00    -0.245 N 
ATOM      3  N   UNL     1      -1.976   5.579  25.312  0.00  0.00    -0.173 NA
ATOM      4  C   UNL     1      -1.230   5.522  24.965  0.00  0.00    +0.081 A 
ATOM      5  C   UNL     1      -0.796   6.146  24.642  0.00  0.00    +0.054 C 
ATOM      6  C   UNL     1      -0.994   4.733  24.996  0.00  0.00    +0.040 A 
ATOM      7  C   UNL     1      -1.593   4.301  25.362  0.00  0.00    +0.134 A 
ENDBRANCH   8   7
ENDBRANCH  11  10
ENDBRANCH  17  14
TORSDOF 7
ENDMDL
MODEL 7
REMARK VINA RESULT:     -10.8      2.157      3.229
REMARK  Name = 
REMARK  7 active torsions:
REMARK  status: ('A' for Active; 'I' for Inactive)
REMARK    1  A    between atoms: C_7  and  C_8
REMARK    2  A    between atoms: N_10  and  C_11
REMARK    3  A    between atoms: C_14  and  C_17
REMARK    4  A    between atoms: C_17  and  C_19
REMARK    5  A    between atoms: N_25  and  C_26
REMARK    6  A    between atoms: C_26  and  C_27
REMARK    7  A    between atoms: C_30  and  C_33
REMARK                            x       y       z     vdW  Elec       q    Type
REMARK                         _______ _______ _______ _____ _____    ______ ____
ROOT
ATOM     17  C   UNL     1      -0.507   1.927  25.618  0.00  0.00    +0.195 C 
ATOM     18  O   UNL     1      -0.220   2.024  26.385  0.00  0.00    -0.216 OA
ENDROOT
BRANCH  17  19
ATOM     19  C   UNL     1      -0.422   2.533  25.065  0.00  0.00    +0.140 C 
ATOM     20  C   UNL     1       0.059   2.424  24.404  0.00  0.00    +0.165 C 
ATOM     21  O   UNL     1       0.144   3.030  23.850  0.00  0.00    -0.343 OA
ATOM     22  C   UNL     1      -0.251   3.746  23.960  0.00  0.00    +0.227 C 
ATOM     23  C   UNL     1      -0.732   3.855  24.621  0.00  0.00    +0.256 C 
ATOM     24  O   UNL     1      -1.127   4.571  24.729  0.00  0.00    -0.272 OA
ATOM     25  N   UNL     1      -0.817   3.249  25.174  0.00  0.00    -0.270 N 
BRANCH  25  26
ATOM     26  C   UNL     1      -1.298   3.359  25.835  0.00  0.00    +0.120 C 
BRANCH  26  27
ATOM     27  C   UNL     1      -2.101   3.523  25.740  0.00  0.00    -0.002 A 
ATOM     28  C   UNL     1      -2.474   3.356  25.024  0.00  0.00    -0.003 A 
ATOM     29  C   UNL     1      -3.277   3.521  24.928  0.00  0.00    +0.004 A 
ATOM     30  C   UNL     1      -3.706   3.852  25.549  0.00  0.00    +0.071 A 
ATOM     31  C   UNL     1      -3.333   4.019  26.266  0.00  0.00    +0.004 A 
ATOM     32  C   UNL     1      -2.530   3.854  26.361  0.00  0.00    -0.003 A 
BRANCH  30  33
ATOM     33  C   UNL     1      -4.509   4.017  25.455  0.00  0.00    +0.419 C 
ATOM     34  F   UNL     1      -5.312   4.182  25.360  0.00  0.00    -0.166 F 
ATOM     35  F   UNL     1      -4.679   3.576  26.131  0.00  0.00    -0.166 F 
ATOM     36  F   UNL     1      -4.338   4.458  24.779  0.00  0.00    -0.166 F 
ENDBRANCH  30  33
ENDBRANCH  26  27
ENDBRANCH  25  26
ENDBRANCH  17  19
BRANCH  17  14
ATOM     11  C   UNL     1      -1.623  -0.187  24.975  0.00  0.00    +0.074 A 
ATOM     12  C   UNL     1      -1.614   0.051  25.764  0.00  0.00    +0.016 A 
ATOM     13  C   UNL     1      -1.242   0.756  25.979  0.00  0.00    -0.000 A 
ATOM     14  C   UNL     1      -0.879   1.222  25.403  0.00  0.00    +0.010 A 
ATOM     15  C   UNL     1      -0.887   0.984  24.614  0.00  0.00    -0.000 A 
ATOM     16  C   UNL     1      -1.259   0.279  24.399  0.00  0.00    +0.016 A 
BRANCH  11  10
ATOM      8  C   UNL     1      -2.818  -0.929  24.725  0.00  0.00    +0.286 C 
ATOM      9  O   UNL     1      -3.269  -0.262  24.904  0.00  0.00    -0.266 OA
ATOM     10  N   UNL     1      -1.995  -0.892  24.760  0.00  0.00    -0.174 NA
BRANCH   8   7
ATOM      1  C   UNL     1      -4.339  -1.075  23.783  0.00  0.00    +0.154 C 
ATOM      2  N   UNL     1      -3.889  -1.701  24.077  0.00  0.00    -0.245 N 
ATOM      3  N   UNL     1      -4.059  -2.503  23.991  0.00  0.00    -0.173 NA
ATOM      4  C   UNL     1      -3.465  -2.932  24.370  0.00  0.00    +0.081 A 
ATOM      5  C   UNL     1      -3.416  -3.754  24.419  0.00  0.00    +0.054 C 
ATOM      6  C   UNL     1      -2.928  -2.394  24.691  0.00  0.00    +0.040 A 
ATOM      7  C   UNL     1      -3.189  -1.634  24.510  0.00  0.00    +0.134 A 
ENDBRANCH   8   7
ENDBRANCH  11  10
ENDBRANCH  17  14
TORSDOF 7
ENDMDL
MODEL 8
REMARK VINA RESULT:     -10.7      1.937      2.511
REMARK  Name = 
REMARK  7 active torsions:
REMARK  status: ('A' for Active; 'I' for Inactive)
REMARK    1  A    between atoms: C_7  and  C_8
REMARK    2  A    between atoms: N_10  and  C_11
REMARK    3  A    between atoms: C_14  and  C_17
REMARK    4  A    between atoms: C_17  and  C_19
REMARK    5  A    between atoms: N_25  and  C_26
REMARK    6  A    between atoms: C_26  and  C_27
REMARK    7  A    between atoms: C_30  and  C_33
REMARK                            x       y       z     vdW  Elec       q    Type
REMARK                         _______ _______ _______ _____ _____    ______ ____
ROOT
ATOM     17  C   UNL     1      -4.670   1.828  24.252  0.00  0.00    +0.195 C 
ATOM     18  O   UNL     1      -4.924   2.086  23.511  0.00  0.00    -0.216 OA
ENDROOT
BRANCH  17  19
ATOM     19  C   UNL     1      -5.003   2.146  24.936  0.00  0.00    +0.140 C 
ATOM     20  C   UNL     1      -5.400   1.656  25.467  0.00  0.00    +0.165 C 
ATOM     21  O   UNL     1      -5.733   1.974  26.153  0.00  0.00    -0.343 OA
ATOM     22  C   UNL     1      -5.669   2.783  26.305  0.00  0.00    +0.227 C 
ATOM     23  C   UNL     1      -5.271   3.273  25.772  0.00  0.00    +0.256 C 
ATOM     24  O   UNL     1      -5.208   4.081  25.925  0.00  0.00    -0.272 OA
ATOM     25  N   UNL     1      -4.939   2.954  25.088  0.00  0.00    -0.270 N 
BRANCH  25  26
ATOM     26  C   UNL     1      -4.542   3.444  24.557  0.00  0.00    +0.120 C 
BRANCH  26  27
ATOM     27  C   UNL     1      -3.821   3.785  24.769  0.00  0.00    -0.002 A 
ATOM     28  C   UNL     1      -3.567   3.761  25.553  0.00  0.00    -0.003 A 
ATOM     29  C   UNL     1      -2.846   4.102  25.764  0.00  0.00    +0.004 A 
ATOM     30  C   UNL     1      -2.379   4.467  25.191  0.00  0.00    +0.071 A 
ATOM     31  C   UNL     1      -2.632   4.491  24.406  0.00  0.00    +0.004 A 
ATOM     32  C   UNL     1      -3.353   4.150  24.195  0.00  0.00    -0.003 A 
BRANCH  30  33
ATOM     33  C   UNL     1      -1.658   4.808  25.402  0.00  0.00    +0.419 C 
ATOM     34  F   UNL     1      -0.936   5.149  25.613  0.00  0.00    -0.166 F 
ATOM     35  F   UNL     1      -2.018   5.549  25.435  0.00  0.00    -0.166 F 
ATOM     36  F   UNL     1      -1.298   4.066  25.368  0.00  0.00    -0.166 F 
ENDBRANCH  30  33
ENDBRANCH  26  27
ENDBRANCH  25  26
ENDBRANCH  17  19
BRANCH  17  14
ATOM     11  C   UNL     1      -2.908   0.097  24.422  0.00  0.00    +0.074 A 
ATOM     12  C   UNL     1      -2.925   0.606  23.773  0.00  0.00    +0.016 A 
ATOM     13  C   UNL     1      -3.512   1.183  23.716  0.00  0.00    -0.000 A 
ATOM     14  C   UNL     1      -4.083   1.250  24.309  0.00  0.00    +0.010 A 
ATOM     15  C   UNL     1      -4.066   0.741  24.958  0.00  0.00    -0.000 A 
ATOM     16  C   UNL     1      -3.479   0.164  25.014  0.00  0.00    +0.016 A 
BRANCH  11  10
ATOM      8  C   UNL     1      -1.573  -0.280  24.763  0.00  0.00    +0.286 C 
ATOM      9  O   UNL     1      -1.412   0.496  24.990  0.00  0.00    -0.266 OA
ATOM     10  N   UNL     1      -2.321  -0.480  24.479  0.00  0.00    -0.174 NA
BRANCH   8   7
ATOM      1  C   UNL     1      -0.013  -0.289  23.875  0.00  0.00    +0.154 C 
ATOM      2  N   UNL     1      -0.269  -0.861  24.411  0.00  0.00    -0.245 N 
ATOM      3  N   UNL     1       0.147  -1.538  24.634  0.00  0.00    -0.173 NA
ATOM      4  C   UNL     1      -0.312  -1.951  25.179  0.00  0.00    +0.081 A 
ATOM      5  C   UNL     1      -0.108  -2.662  25.546  0.00  0.00    +0.054 C 
ATOM      6  C   UNL     1      -1.013  -1.531  25.294  0.00  0.00    +0.040 A 
ATOM      7  C   UNL     1      -0.986  -0.857  24.820  0.00  0.00    +0.134 A 
ENDBRANCH   8   7
ENDBRANCH  11  10
ENDBRANCH  17  14
TORSDOF 7
ENDMDL
