MODEL 1
REMARK VINA RESULT:      -9.9      0.000      0.000
REMARK  Name = 
REMARK  3 active torsions:
REMARK  status: ('A' for Active; 'I' for Inactive)
REMARK    1  A    between atoms: C_4  and  C_13
REMARK    2  A    between atoms: N_5  and  C_7
REMARK    3  A    between atoms: C_15  and  C_18
REMARK                            x       y       z     vdW  Elec       q    Type
REMARK                         _______ _______ _______ _____ _____    ______ ____
ROOT
ATOM      1  O   UNL     1      -5.877   2.759  25.281  0.00  0.00    -0.222 OA
ATOM      2  C   UNL     1      -5.242   2.268  25.089  0.00  0.00    +0.170 C 
ATOM      3  C   UNL     1      -5.189   1.461  25.246  0.00  0.00    +0.060 C 
ATOM      4  C   UNL     1      -4.463   1.192  24.960  0.00  0.00    +0.140 C 
ATOM      5  N   UNL     1      -4.068   1.833  24.625  0.00  0.00    -0.265 NA
ATOM      6  C   UNL     1      -4.550   2.499  24.705  0.00  0.00    +0.106 C 
ENDROOT
BRANCH   5   7
ATOM      7  C   UNL     1      -3.323   1.814  24.273  0.00  0.00    +0.063 C 
ATOM      8  C   UNL     1      -2.646   1.917  24.733  0.00  0.00    +0.048 C 
ATOM      9  C   UNL     1      -1.900   1.897  24.381  0.00  0.00    +0.144 C 
ATOM     10  O   UNL     1      -1.832   1.774  23.568  0.00  0.00    -0.354 OA
ATOM     11  C   UNL     1      -2.508   1.671  23.108  0.00  0.00    +0.144 C 
ATOM     12  C   UNL     1      -3.253   1.691  23.460  0.00  0.00    +0.048 C 
ENDBRANCH   5   7
BRANCH   4  13
ATOM     13  C   UNL     1      -4.183   0.417  25.001  0.00  0.00    +0.251 A 
ATOM     14  N   UNL     1      -4.346  -0.187  24.464  0.00  0.00    -0.194 NA
ATOM     15  C   UNL     1      -3.954  -0.867  24.717  0.00  0.00    +0.180 A 
ATOM     16  N   UNL     1      -3.548  -0.683  25.412  0.00  0.00    -0.061 NA
ATOM     17  O   UNL     1      -3.689   0.110  25.587  0.00  0.00    -0.336 OA
BRANCH  15  18
ATOM     18  C   UNL     1      -3.966  -1.602  24.342  0.00  0.00    +0.062 C 
ATOM     19  C   UNL     1      -4.300  -2.119  23.794  0.00  0.00    +0.008 C 
ATOM     20  C   UNL     1      -3.650  -2.358  24.242  0.00  0.00    +0.008 C 
ENDBRANCH  15  18
ENDBRANCH   4  13
TORSDOF 3
ENDMDL
MODEL 2
REMARK VINA RESULT:      -9.4      1.948      3.797
REMARK  Name = 
REMARK  3 active torsions:
REMARK  status: ('A' for Active; 'I' for Inactive)
REMARK    1  A    between atoms: C_4  and  C_13
REMARK    2  A    between atoms: N_5  and  C_7
REMARK    3  A    between atoms: C_15  and  C_18
REMARK                            x       y       z     vdW  Elec       q    Type
REMARK                         _______ _______ _______ _____ _____    ______ ____
ROOT
ATOM      1  O   UNL     1      -5.980   3.319  25.786  0.00  0.00    -0.222 OA
ATOM      2  C   UNL     1      -5.210   3.177  25.524  0.00  0.00    +0.170 C 
ATOM      3  C   UNL     1      -4.531   3.566  25.783  0.00  0.00    +0.060 C 
ATOM      4  C   UNL     1      -3.886   3.251  25.376  0.00  0.00    +0.140 C 
ATOM      5  N   UNL     1      -4.167   2.668  24.865  0.00  0.00    -0.265 NA
ATOM      6  C   UNL     1      -4.986   2.622  24.957  0.00  0.00    +0.106 C 
ENDROOT
BRANCH   5   7
ATOM      7  C   UNL     1      -3.710   2.211  24.353  0.00  0.00    +0.063 C 
ATOM      8  C   UNL     1      -3.410   1.485  24.605  0.00  0.00    +0.048 C 
ATOM      9  C   UNL     1      -2.953   1.027  24.093  0.00  0.00    +0.144 C 
ATOM     10  O   UNL     1      -2.796   1.296  23.329  0.00  0.00    -0.354 OA
ATOM     11  C   UNL     1      -3.096   2.022  23.077  0.00  0.00    +0.144 C 
ATOM     12  C   UNL     1      -3.553   2.479  23.589  0.00  0.00    +0.048 C 
ENDBRANCH   5   7
BRANCH   4  13
ATOM     13  C   UNL     1      -3.098   3.480  25.465  0.00  0.00    +0.251 A 
ATOM     14  N   UNL     1      -2.727   4.103  25.073  0.00  0.00    -0.194 NA
ATOM     15  C   UNL     1      -1.943   4.134  25.327  0.00  0.00    +0.180 A 
ATOM     16  N   UNL     1      -1.829   3.529  25.876  0.00  0.00    -0.061 NA
ATOM     17  O   UNL     1      -2.543   3.125  25.961  0.00  0.00    -0.336 OA
BRANCH  15  18
ATOM     18  C   UNL     1      -1.373   4.675  25.075  0.00  0.00    +0.062 C 
ATOM     19  C   UNL     1      -0.643   4.832  24.723  0.00  0.00    +0.008 C 
ATOM     20  C   UNL     1      -1.114   5.454  24.993  0.00  0.00    +0.008 C 
ENDBRANCH  15  18
ENDBRANCH   4  13
TORSDOF 3
ENDMDL
MODEL 3
REMARK VINA RESULT:      -9.2      1.665      3.487
REMARK  Name = 
REMARK  3 active torsions:
REMARK  status: ('A' for Active; 'I' for Inactive)
REMARK    1  A    between atoms: C_4  and  C_13
REMARK    2  A    between atoms: N_5  and  C_7
REMARK    3  A    between atoms: C_15  and  C_18
REMARK                            x       y       z     vdW  Elec       q    Type
REMARK                         _______ _______ _______ _____ _____    ______ ____
ROOT
ATOM      1  O   UNL     1      -3.849  -3.167  24.239  0.00  0.00    -0.222 OA
ATOM      2  C   UNL     1      -3.582  -2.395  24.355  0.00  0.00    +0.170 C 
ATOM      3  C   UNL     1      -4.010  -1.706  24.207  0.00  0.00    +0.060 C 
ATOM      4  C   UNL     1      -3.533  -1.062  24.400  0.00  0.00    +0.140 C 
ATOM      5  N   UNL     1      -2.809  -1.352  24.667  0.00  0.00    -0.265 NA
ATOM      6  C   UNL     1      -2.839  -2.176  24.640  0.00  0.00    +0.106 C 
ENDROOT
BRANCH   5   7
ATOM      7  C   UNL     1      -2.168  -0.899  24.918  0.00  0.00    +0.063 C 
ATOM      8  C   UNL     1      -1.608  -0.638  24.371  0.00  0.00    +0.048 C 
ATOM      9  C   UNL     1      -0.966  -0.184  24.622  0.00  0.00    +0.144 C 
ATOM     10  O   UNL     1      -0.884   0.009  25.420  0.00  0.00    -0.354 OA
ATOM     11  C   UNL     1      -1.444  -0.252  25.967  0.00  0.00    +0.144 C 
ATOM     12  C   UNL     1      -2.085  -0.706  25.716  0.00  0.00    +0.048 C 
ENDBRANCH   5   7
BRANCH   4  13
ATOM     13  C   UNL     1      -3.743  -0.266  24.336  0.00  0.00    +0.251 A 
ATOM     14  N   UNL     1      -4.213   0.155  24.866  0.00  0.00    -0.194 NA
ATOM     15  C   UNL     1      -4.280   0.929  24.588  0.00  0.00    +0.180 A 
ATOM     16  N   UNL     1      -3.851   0.986  23.886  0.00  0.00    -0.061 NA
ATOM     17  O   UNL     1      -3.519   0.247  23.730  0.00  0.00    -0.336 OA
BRANCH  15  18
ATOM     18  C   UNL     1      -4.702   1.539  24.949  0.00  0.00    +0.062 C 
ATOM     19  C   UNL     1      -4.719   2.282  25.307  0.00  0.00    +0.008 C 
ATOM     20  C   UNL     1      -5.418   1.853  25.217  0.00  0.00    +0.008 C 
ENDBRANCH  15  18
ENDBRANCH   4  13
TORSDOF 3
ENDMDL
MODEL 4
REMARK VINA RESULT:      -9.0      1.249      2.614
REMARK  Name = 
REMARK  3 active torsions:
REMARK  status: ('A' for Active; 'I' for Inactive)
REMARK    1  A    between atoms: C_4  and  C_13
REMARK    2  A    between atoms: N_5  and  C_7
REMARK    3  A    between atoms: C_15  and  C_18
REMARK                            x       y       z     vdW  Elec       q    Type
REMARK                         _______ _______ _______ _____ _____    ______ ____
ROOT
ATOM      1  O   UNL     1       0.212   1.371  24.297  0.00  0.00    -0.222 OA
ATOM      2  C   UNL     1      -0.601   1.247  24.369  0.00  0.00    +0.170 C 
ATOM      3  C   UNL     1      -0.967   0.539  24.580  0.00  0.00    +0.060 C 
ATOM      4  C   UNL     1      -1.783   0.665  24.583  0.00  0.00    +0.140 C 
ATOM      5  N   UNL     1      -1.921   1.450  24.375  0.00  0.00    -0.265 NA
ATOM      6  C   UNL     1      -1.190   1.811  24.242  0.00  0.00    +0.106 C 
ENDROOT
BRANCH   5   7
ATOM      7  C   UNL     1      -2.658   1.813  24.310  0.00  0.00    +0.063 C 
ATOM      8  C   UNL     1      -3.046   1.832  23.582  0.00  0.00    +0.048 C 
ATOM      9  C   UNL     1      -3.784   2.194  23.517  0.00  0.00    +0.144 C 
ATOM     10  O   UNL     1      -4.135   2.538  24.180  0.00  0.00    -0.354 OA
ATOM     11  C   UNL     1      -3.747   2.518  24.908  0.00  0.00    +0.144 C 
ATOM     12  C   UNL     1      -3.010   2.156  24.973  0.00  0.00    +0.048 C 
ENDBRANCH   5   7
BRANCH   4  13
ATOM     13  C   UNL     1      -2.359   0.102  24.764  0.00  0.00    +0.251 A 
ATOM     14  N   UNL     1      -2.661  -0.465  24.248  0.00  0.00    -0.194 NA
ATOM     15  C   UNL     1      -3.223  -0.909  24.658  0.00  0.00    +0.180 A 
ATOM     16  N   UNL     1      -3.268  -0.615  25.428  0.00  0.00    -0.061 NA
ATOM     17  O   UNL     1      -2.735   0.010  25.493  0.00  0.00    -0.336 OA
BRANCH  15  18
ATOM     18  C   UNL     1      -3.663  -1.537  24.352  0.00  0.00    +0.062 C 
ATOM     19  C   UNL     1      -3.796  -2.348  24.279  0.00  0.00    +0.008 C 
ATOM     20  C   UNL     1      -4.292  -1.813  23.895  0.00  0.00    +0.008 C 
ENDBRANCH  15  18
ENDBRANCH   4  13
TORSDOF 3
ENDMDL
MODEL 5
REMARK VINA RESULT:      -9.0      2.300      3.320
REMARK  Name = 
REMARK  3 active torsions:
REMARK  status: ('A' for Active; 'I' for Inactive)
REMARK    1  A    between atoms: C_4  and  C_13
REMARK    2  A    between atoms: N_5  and  C_7
REMARK    3  A    between atoms: C_15  and  C_18
REMARK                            x       y       z     vdW  Elec       q    Type
REMARK                         _______ _______ _______ _____ _____    ______ ____
ROOT
ATOM      1  O   UNL     1      -1.320   5.314  25.331  0.00  0.00    -0.222 OA
ATOM      2  C   UNL     1      -1.617   4.569  25.136  0.00  0.00    +0.170 C 
ATOM      3  C   UNL     1      -2.406   4.388  24.980  0.00  0.00    +0.060 C 
ATOM      4  C   UNL     1      -2.453   3.582  24.810  0.00  0.00    +0.140 C 
ATOM      5  N   UNL     1      -1.694   3.265  24.861  0.00  0.00    -0.265 NA
ATOM      6  C   UNL     1      -1.177   3.876  25.063  0.00  0.00    +0.106 C 
ENDROOT
BRANCH   5   7
ATOM      7  C   UNL     1      -1.487   2.477  24.733  0.00  0.00    +0.063 C 
ATOM      8  C   UNL     1      -1.455   1.952  25.368  0.00  0.00    +0.048 C 
ATOM      9  C   UNL     1      -1.248   1.163  25.241  0.00  0.00    +0.144 C 
ATOM     10  O   UNL     1      -1.074   0.901  24.478  0.00  0.00    -0.354 OA
ATOM     11  C   UNL     1      -1.106   1.427  23.843  0.00  0.00    +0.144 C 
ATOM     12  C   UNL     1      -1.313   2.214  23.971  0.00  0.00    +0.048 C 
ENDBRANCH   5   7
BRANCH   4  13
ATOM     13  C   UNL     1      -3.141   3.166  24.621  0.00  0.00    +0.251 A 
ATOM     14  N   UNL     1      -3.678   2.848  25.160  0.00  0.00    -0.194 NA
ATOM     15  C   UNL     1      -4.280   2.481  24.733  0.00  0.00    +0.180 A 
ATOM     16  N   UNL     1      -4.115   2.571  23.930  0.00  0.00    -0.061 NA
ATOM     17  O   UNL     1      -3.411   2.995  23.861  0.00  0.00    -0.336 OA
BRANCH  15  18
ATOM     18  C   UNL     1      -4.934   2.091  25.053  0.00  0.00    +0.062 C 
ATOM     19  C   UNL     1      -5.320   1.390  25.255  0.00  0.00    +0.008 C 
ATOM     20  C   UNL     1      -5.680   2.117  25.405  0.00  0.00    +0.008 C 
ENDBRANCH  15  18
ENDBRANCH   4  13
TORSDOF 3
ENDMDL
MODEL 6
REMARK VINA RESULT:      -8.9      1.131      2.962
REMARK  Name = 
REMARK  3 active torsions:
REMARK  status: ('A' for Active; 'I' for Inactive)
REMARK    1  A    between atoms: C_4  and  C_13
REMARK    2  A    between atoms: N_5  and  C_7
REMARK    3  A    between atoms: C_15  and  C_18
REMARK                            x       y       z     vdW  Elec       q    Type
REMARK                         _______ _______ _______ _____ _____    ______ ____
ROOT
ATOM      1  O   UNL     1      -5.773   2.331  25.091  0.00  0.00    -0.222 OA
ATOM      2  C   UNL     1      -5.136   1.829  24.938  0.00  0.00    +0.170 C 
ATOM      3  C   UNL     1      -4.388   2.061  24.681  0.00  0.00    +0.060 C 
ATOM      4  C   UNL     1      -3.925   1.382  24.600  0.00  0.00    +0.140 C 
ATOM      5  N   UNL     1      -4.387   0.732  24.808  0.00  0.00    -0.265 NA
ATOM      6  C   UNL     1      -5.136   1.009  25.017  0.00  0.00    +0.106 C 
ENDROOT
BRANCH   5   7
ATOM      7  C   UNL     1      -4.144  -0.056  24.807  0.00  0.00    +0.063 C 
ATOM      8  C   UNL     1      -3.822  -0.389  25.489  0.00  0.00    +0.048 C 
ATOM      9  C   UNL     1      -3.579  -1.178  25.488  0.00  0.00    +0.144 C 
ATOM     10  O   UNL     1      -3.658  -1.632  24.805  0.00  0.00    -0.354 OA
ATOM     11  C   UNL     1      -3.980  -1.299  24.122  0.00  0.00    +0.144 C 
ATOM     12  C   UNL     1      -4.223  -0.511  24.123  0.00  0.00    +0.048 C 
ENDBRANCH   5   7
BRANCH   4  13
ATOM     13  C   UNL     1      -3.137   1.359  24.355  0.00  0.00    +0.251 A 
ATOM     14  N   UNL     1      -2.476   1.474  24.834  0.00  0.00    -0.194 NA
ATOM     15  C   UNL     1      -1.804   1.403  24.363  0.00  0.00    +0.180 A 
ATOM     16  N   UNL     1      -2.049   1.244  23.591  0.00  0.00    -0.061 NA
ATOM     17  O   UNL     1      -2.873   1.217  23.586  0.00  0.00    -0.336 OA
BRANCH  15  18
ATOM     18  C   UNL     1      -1.022   1.477  24.617  0.00  0.00    +0.062 C 
ATOM     19  C   UNL     1      -0.277   1.147  24.745  0.00  0.00    +0.008 C 
ATOM     20  C   UNL     1      -0.414   1.939  24.931  0.00  0.00    +0.008 C 
ENDBRANCH  15  18
ENDBRANCH   4  13
TORSDOF 3
ENDMDL
MODEL 7
REMARK VINA RESULT:      -8.8      1.336      3.704
REMARK  Name = 
REMARK  3 active torsions:
REMARK  status: ('A' for Active; 'I' for Inactive)
REMARK    1  A    between atoms: C_4  and  C_13
REMARK    2  A    between atoms: N_5  and  C_7
REMARK    3  A    between atoms: C_15  and  C_18
REMARK                            x       y       z     vdW  Elec       q    Type
REMARK                         _______ _______ _______ _____ _____    ______ ____
ROOT
ATOM      1  O   UNL     1      -0.236   0.836  24.397  0.00  0.00    -0.222 OA
ATOM      2  C   UNL     1      -1.050   0.716  24.459  0.00  0.00    +0.170 C 
ATOM      3  C   UNL     1      -1.633   1.293  24.373  0.00  0.00    +0.060 C 
ATOM      4  C   UNL     1      -2.367   0.932  24.479  0.00  0.00    +0.140 C 
ATOM      5  N   UNL     1      -2.238   0.132  24.630  0.00  0.00    -0.265 NA
ATOM      6  C   UNL     1      -1.424  -0.002  24.618  0.00  0.00    +0.106 C 
ENDROOT
BRANCH   5   7
ATOM      7  C   UNL     1      -2.820  -0.436  24.769  0.00  0.00    +0.063 C 
ATOM      8  C   UNL     1      -3.180  -0.821  24.134  0.00  0.00    +0.048 C 
ATOM      9  C   UNL     1      -3.763  -1.389  24.273  0.00  0.00    +0.144 C 
ATOM     10  O   UNL     1      -3.985  -1.571  25.046  0.00  0.00    -0.354 OA
ATOM     11  C   UNL     1      -3.625  -1.186  25.680  0.00  0.00    +0.144 C 
ATOM     12  C   UNL     1      -3.043  -0.618  25.542  0.00  0.00    +0.048 C 
ENDBRANCH   5   7
BRANCH   4  13
ATOM     13  C   UNL     1      -3.102   1.306  24.440  0.00  0.00    +0.251 A 
ATOM     14  N   UNL     1      -3.477   1.702  25.058  0.00  0.00    -0.194 NA
ATOM     15  C   UNL     1      -4.197   1.990  24.776  0.00  0.00    +0.180 A 
ATOM     16  N   UNL     1      -4.266   1.772  23.983  0.00  0.00    -0.061 NA
ATOM     17  O   UNL     1      -3.589   1.349  23.776  0.00  0.00    -0.336 OA
BRANCH  15  18
ATOM     18  C   UNL     1      -4.750   2.421  25.210  0.00  0.00    +0.062 C 
ATOM     19  C   UNL     1      -5.027   3.142  25.501  0.00  0.00    +0.008 C 
ATOM     20  C   UNL     1      -5.434   2.446  25.673  0.00  0.00    +0.008 C 
ENDBRANCH  15  18
ENDBRANCH   4  13
TORSDOF 3
ENDMDL
