MODEL 1
REMARK VINA RESULT:     -11.9      0.000      0.000
REMARK  Name = 
REMARK  4 active torsions:
REMARK  status: ('A' for Active; 'I' for Inactive)
REMARK    1  A    between atoms: C_2  and  C_4
REMARK    2  A    between atoms: C_6  and  C_7
REMARK    3  A    between atoms: C_7  and  C_8
REMARK    4  A    between atoms: C_20  and  C_21
REMARK                            x       y       z     vdW  Elec       q    Type
REMARK                         _______ _______ _______ _____ _____    ______ ____
ROOT
ATOM      4  C   UNL     1      -3.217   1.948  23.976  0.00  0.00    +0.006 C 
ATOM      5  C   UNL     1      -3.692   1.278  24.063  0.00  0.00    +0.005 C 
ATOM      6  C   UNL     1      -4.347   1.300  24.565  0.00  0.00    +0.026 C 
ATOM     17  C   UNL     1      -4.526   1.990  24.981  0.00  0.00    -0.048 C 
ATOM     18  C   UNL     1      -5.180   2.011  25.483  0.00  0.00    +0.026 C 
ATOM     19  C   UNL     1      -4.051   2.659  24.893  0.00  0.00    -0.033 C 
ATOM     20  C   UNL     1      -3.396   2.637  24.391  0.00  0.00    +0.040 C 
ENDROOT
BRANCH   4   2
ATOM      1  C   UNL     1      -2.658   2.060  22.666  0.00  0.00    +0.000 C 
ATOM      2  C   UNL     1      -2.563   1.927  23.474  0.00  0.00    +0.000 C 
ATOM      3  C   UNL     1      -1.812   1.772  23.781  0.00  0.00    +0.000 C 
ENDBRANCH   4   2
BRANCH  20  21
ATOM     21  C   UNL     1      -2.922   3.307  24.305  0.00  0.00    +0.114 C 
ATOM     22  N   UNL     1      -3.101   3.997  24.719  0.00  0.00    -0.131 NA
ENDBRANCH  20  21
BRANCH   6   7
ATOM      7  C   UNL     1      -4.822   0.631  24.652  0.00  0.00    +0.070 C 
BRANCH   7   8
ATOM      8  C   UNL     1      -4.478  -0.118  24.694  0.00  0.00    +0.139 A 
ATOM      9  N   UNL     1      -4.066  -0.427  25.338  0.00  0.00    -0.229 NA
ATOM     10  C   UNL     1      -3.820  -1.189  25.141  0.00  0.00    +0.100 A 
ATOM     11  C   UNL     1      -4.079  -1.350  24.374  0.00  0.00    +0.100 A 
ATOM     12  N   UNL     1      -4.486  -0.689  24.098  0.00  0.00    -0.229 NA
ATOM     13  C   UNL     1      -3.910  -2.080  24.028  0.00  0.00    +0.021 A 
ATOM     14  C   UNL     1      -3.483  -2.647  24.447  0.00  0.00    +0.002 A 
ATOM     15  C   UNL     1      -3.224  -2.486  25.213  0.00  0.00    +0.002 A 
ATOM     16  C   UNL     1      -3.392  -1.757  25.560  0.00  0.00    +0.021 A 
ENDBRANCH   7   8
ENDBRANCH   6   7
TORSDOF 4
ENDMDL
MODEL 2
REMARK VINA RESULT:     -11.6      0.832      2.047
REMARK  Name = 
REMARK  4 active torsions:
REMARK  status: ('A' for Active; 'I' for Inactive)
REMARK    1  A    between atoms: C_2  and  C_4
REMARK    2  A    between atoms: C_6  and  C_7
REMARK    3  A    between atoms: C_7  and  C_8
REMARK    4  A    between atoms: C_20  and  C_21
REMARK                            x       y       z     vdW  Elec       q    Type
REMARK                         _______ _______ _______ _____ _____    ______ ____
ROOT
ATOM      4  C   UNL     1      -5.026   2.002  24.947  0.00  0.00    +0.006 C 
ATOM      5  C   UNL     1      -4.624   1.419  24.524  0.00  0.00    +0.005 C 
ATOM      6  C   UNL     1      -3.870   1.572  24.225  0.00  0.00    +0.026 C 
ATOM     17  C   UNL     1      -3.519   2.309  24.349  0.00  0.00    -0.048 C 
ATOM     18  C   UNL     1      -2.765   2.463  24.050  0.00  0.00    +0.026 C 
ATOM     19  C   UNL     1      -3.922   2.891  24.772  0.00  0.00    -0.033 C 
ATOM     20  C   UNL     1      -4.675   2.738  25.071  0.00  0.00    +0.040 C 
ENDROOT
BRANCH   4   2
ATOM      1  C   UNL     1      -5.875   1.646  26.039  0.00  0.00    +0.000 C 
ATOM      2  C   UNL     1      -5.779   1.849  25.246  0.00  0.00    +0.000 C 
ATOM      3  C   UNL     1      -6.438   1.898  24.750  0.00  0.00    +0.000 C 
ENDBRANCH   4   2
BRANCH  20  21
ATOM     21  C   UNL     1      -5.078   3.321  25.494  0.00  0.00    +0.114 C 
ATOM     22  N   UNL     1      -4.754   4.076  25.566  0.00  0.00    -0.131 NA
ENDBRANCH  20  21
BRANCH   6   7
ATOM      7  C   UNL     1      -3.467   0.990  23.802  0.00  0.00    +0.070 C 
BRANCH   7   8
ATOM      8  C   UNL     1      -3.501   0.203  24.047  0.00  0.00    +0.139 A 
ATOM      9  N   UNL     1      -3.114  -0.118  24.701  0.00  0.00    -0.229 NA
ATOM     10  C   UNL     1      -3.302  -0.920  24.739  0.00  0.00    +0.100 A 
ATOM     11  C   UNL     1      -3.805  -1.095  24.110  0.00  0.00    +0.100 A 
ATOM     12  N   UNL     1      -3.929  -0.401  23.682  0.00  0.00    -0.229 NA
ATOM     13  C   UNL     1      -4.086  -1.864  24.008  0.00  0.00    +0.021 A 
ATOM     14  C   UNL     1      -3.864  -2.458  24.535  0.00  0.00    +0.002 A 
ATOM     15  C   UNL     1      -3.361  -2.283  25.164  0.00  0.00    +0.002 A 
ATOM     16  C   UNL     1      -3.079  -1.515  25.267  0.00  0.00    +0.021 A 
ENDBRANCH   7   8
ENDBRANCH   6   7
TORSDOF 4
ENDMDL
MODEL 3
REMARK VINA RESULT:     -11.2      1.485      4.038
REMARK  Name = 
REMARK  4 active torsions:
REMARK  status: ('A' for Active; 'I' for Inactive)
REMARK    1  A    between atoms: C_2  and  C_4
REMARK    2  A    between atoms: C_6  and  C_7
REMARK    3  A    between atoms: C_7  and  C_8
REMARK    4  A    between atoms: C_20  and  C_21
REMARK                            x       y       z     vdW  Elec       q    Type
REMARK                         _______ _______ _______ _____ _____    ______ ____
ROOT
ATOM      4  C   UNL     1      -2.290  -0.831  25.093  0.00  0.00    +0.006 C 
ATOM      5  C   UNL     1      -2.953  -0.340  25.121  0.00  0.00    +0.005 C 
ATOM      6  C   UNL     1      -3.653  -0.571  24.748  0.00  0.00    +0.026 C 
ATOM     17  C   UNL     1      -3.689  -1.292  24.348  0.00  0.00    -0.048 C 
ATOM     18  C   UNL     1      -4.388  -1.523  23.976  0.00  0.00    +0.026 C 
ATOM     19  C   UNL     1      -3.026  -1.782  24.321  0.00  0.00    -0.033 C 
ATOM     20  C   UNL     1      -2.326  -1.551  24.693  0.00  0.00    +0.040 C 
ENDROOT
BRANCH   4   2
ATOM      1  C   UNL     1      -1.474  -0.767  26.264  0.00  0.00    +0.000 C 
ATOM      2  C   UNL     1      -1.591  -0.600  25.465  0.00  0.00    +0.000 C 
ATOM      3  C   UNL     1      -1.008  -0.202  25.037  0.00  0.00    +0.000 C 
ENDBRANCH   4   2
BRANCH  20  21
ATOM     21  C   UNL     1      -1.664  -2.042  24.666  0.00  0.00    +0.114 C 
ATOM     22  N   UNL     1      -1.698  -2.760  24.263  0.00  0.00    -0.131 NA
ENDBRANCH  20  21
BRANCH   6   7
ATOM      7  C   UNL     1      -4.316  -0.081  24.776  0.00  0.00    +0.070 C 
BRANCH   7   8
ATOM      8  C   UNL     1      -4.231   0.735  24.688  0.00  0.00    +0.139 A 
ATOM      9  N   UNL     1      -4.013   1.128  23.997  0.00  0.00    -0.229 NA
ATOM     10  C   UNL     1      -3.997   1.937  24.159  0.00  0.00    +0.100 A 
ATOM     11  C   UNL     1      -4.204   2.043  24.950  0.00  0.00    +0.100 A 
ATOM     12  N   UNL     1      -4.349   1.300  25.278  0.00  0.00    -0.229 NA
ATOM     13  C   UNL     1      -4.234   2.803  25.270  0.00  0.00    +0.021 A 
ATOM     14  C   UNL     1      -4.057   3.456  24.799  0.00  0.00    +0.002 A 
ATOM     15  C   UNL     1      -3.849   3.350  24.007  0.00  0.00    +0.002 A 
ATOM     16  C   UNL     1      -3.819   2.591  23.687  0.00  0.00    +0.021 A 
ENDBRANCH   7   8
ENDBRANCH   6   7
TORSDOF 4
ENDMDL
MODEL 4
REMARK VINA RESULT:     -10.7      1.466      4.185
REMARK  Name = 
REMARK  4 active torsions:
REMARK  status: ('A' for Active; 'I' for Inactive)
REMARK    1  A    between atoms: C_2  and  C_4
REMARK    2  A    between atoms: C_6  and  C_7
REMARK    3  A    between atoms: C_7  and  C_8
REMARK    4  A    between atoms: C_20  and  C_21
REMARK                            x       y       z     vdW  Elec       q    Type
REMARK                         _______ _______ _______ _____ _____    ______ ____
ROOT
ATOM      4  C   UNL     1      -2.458  -0.208  25.005  0.00  0.00    +0.006 C 
ATOM      5  C   UNL     1      -2.566   0.535  24.662  0.00  0.00    +0.005 C 
ATOM      6  C   UNL     1      -3.329   0.819  24.526  0.00  0.00    +0.026 C 
ATOM     17  C   UNL     1      -3.983   0.360  24.733  0.00  0.00    -0.048 C 
ATOM     18  C   UNL     1      -4.746   0.643  24.597  0.00  0.00    +0.026 C 
ATOM     19  C   UNL     1      -3.874  -0.383  25.075  0.00  0.00    -0.033 C 
ATOM     20  C   UNL     1      -3.111  -0.667  25.211  0.00  0.00    +0.040 C 
ENDROOT
BRANCH   4   2
ATOM      1  C   UNL     1      -1.292  -0.895  24.544  0.00  0.00    +0.000 C 
ATOM      2  C   UNL     1      -1.695  -0.492  25.141  0.00  0.00    +0.000 C 
ATOM      3  C   UNL     1      -1.335  -0.373  25.874  0.00  0.00    +0.000 C 
ENDBRANCH   4   2
BRANCH  20  21
ATOM     21  C   UNL     1      -3.003  -1.410  25.554  0.00  0.00    +0.114 C 
ATOM     22  N   UNL     1      -3.647  -1.912  25.664  0.00  0.00    -0.131 NA
ENDBRANCH  20  21
BRANCH   6   7
ATOM      7  C   UNL     1      -3.438   1.561  24.184  0.00  0.00    +0.070 C 
BRANCH   7   8
ATOM      8  C   UNL     1      -3.050   2.220  24.493  0.00  0.00    +0.139 A 
ATOM      9  N   UNL     1      -3.297   2.669  25.140  0.00  0.00    -0.229 NA
ATOM     10  C   UNL     1      -2.746   3.271  25.256  0.00  0.00    +0.100 A 
ATOM     11  C   UNL     1      -2.159   3.195  24.682  0.00  0.00    +0.100 A 
ATOM     12  N   UNL     1      -2.346   2.546  24.210  0.00  0.00    -0.229 NA
ATOM     13  C   UNL     1      -1.529   3.728  24.663  0.00  0.00    +0.021 A 
ATOM     14  C   UNL     1      -1.487   4.337  25.218  0.00  0.00    +0.002 A 
ATOM     15  C   UNL     1      -2.074   4.413  25.792  0.00  0.00    +0.002 A 
ATOM     16  C   UNL     1      -2.704   3.881  25.812  0.00  0.00    +0.021 A 
ENDBRANCH   7   8
ENDBRANCH   6   7
TORSDOF 4
ENDMDL
