MODEL 1
REMARK VINA RESULT:     -10.7      0.000      0.000
REMARK  Name = 
REMARK  8 active torsions:
REMARK  status: ('A' for Active; 'I' for Inactive)
REMARK    1  A    between atoms: C_2  and  N_4
REMARK    2  A    between atoms: N_7  and  C_8
REMARK    3  A    between atoms: C_8  and  C_9
REMARK    4  A    between atoms: C_13  and  C_14
REMARK    5  A    between atoms: C_14  and  C_15
REMARK    6  A    between atoms: N_17  and  C_19
REMARK    7  A    between atoms: C_19  and  C_20
REMARK    8  A    between atoms: C_27  and  C_28
REMARK                            x       y       z     vdW  Elec       q    Type
REMARK                         _______ _______ _______ _____ _____    ______ ____
ROOT
ATOM      9  C   UNL     1      -3.972   0.774  24.242  0.00  0.00    +0.043 C 
ATOM     10  C   UNL     1      -4.623   0.941  24.721  0.00  0.00    -0.033 C 
ATOM     11  C   UNL     1      -4.740   1.708  25.005  0.00  0.00    -0.048 C 
ATOM     12  C   UNL     1      -5.390   1.875  25.483  0.00  0.00    +0.026 C 
ATOM     13  C   UNL     1      -4.206   2.306  24.810  0.00  0.00    +0.027 C 
ATOM     26  C   UNL     1      -3.555   2.137  24.331  0.00  0.00    +0.005 C 
ATOM     27  C   UNL     1      -3.438   1.372  24.047  0.00  0.00    +0.006 C 
ENDROOT
BRANCH  27  28
ATOM     28  C   UNL     1      -2.788   1.204  23.569  0.00  0.00    +0.000 C 
ATOM     29  C   UNL     1      -2.841   1.297  22.751  0.00  0.00    +0.000 C 
ATOM     30  C   UNL     1      -2.083   0.942  23.908  0.00  0.00    +0.000 C 
ENDBRANCH  27  28
BRANCH   9   8
ATOM      8  C   UNL     1      -3.856   0.008  23.958  0.00  0.00    +0.121 C 
BRANCH   8   7
ATOM      4  N   UNL     1      -3.999  -2.053  24.664  0.00  0.00    -0.189 NA
ATOM      5  C   UNL     1      -3.870  -1.406  24.168  0.00  0.00    +0.339 C 
ATOM      6  O   UNL     1      -3.626  -1.524  23.390  0.00  0.00    -0.249 OA
ATOM      7  N   UNL     1      -3.985  -0.639  24.453  0.00  0.00    -0.187 NA
BRANCH   4   2
ATOM      1  C   UNL     1      -4.399  -3.130  23.815  0.00  0.00    +0.023 C 
ATOM      2  C   UNL     1      -3.884  -2.819  24.379  0.00  0.00    +0.097 C 
ATOM      3  C   UNL     1      -3.255  -3.272  24.658  0.00  0.00    +0.023 C 
ENDBRANCH   4   2
ENDBRANCH   8   7
ENDBRANCH   9   8
BRANCH  13  14
ATOM     14  C   UNL     1      -4.322   3.071  25.094  0.00  0.00    +0.089 C 
BRANCH  14  15
ATOM     15  C   UNL     1      -3.749   3.428  25.568  0.00  0.00    +0.226 C 
ATOM     16  O   UNL     1      -3.531   3.080  26.284  0.00  0.00    -0.275 OA
ATOM     17  N   UNL     1      -3.394   4.131  25.327  0.00  0.00    -0.274 N 
ATOM     18  C   UNL     1      -3.612   4.479  24.611  0.00  0.00    +0.115 C 
BRANCH  17  19
ATOM     19  C   UNL     1      -2.821   4.488  25.800  0.00  0.00    +0.120 C 
BRANCH  19  20
ATOM     20  C   UNL     1      -2.086   4.686  25.482  0.00  0.00    -0.002 A 
ATOM     21  C   UNL     1      -1.969   5.429  25.141  0.00  0.00    -0.003 A 
ATOM     22  C   UNL     1      -1.234   5.626  24.823  0.00  0.00    -0.000 A 
ATOM     23  C   UNL     1      -0.616   5.081  24.845  0.00  0.00    -0.000 A 
ATOM     24  C   UNL     1      -0.731   4.338  25.185  0.00  0.00    -0.000 A 
ATOM     25  C   UNL     1      -1.467   4.141  25.503  0.00  0.00    -0.003 A 
ENDBRANCH  19  20
ENDBRANCH  17  19
ENDBRANCH  14  15
ENDBRANCH  13  14
TORSDOF 8
ENDMDL
MODEL 2
REMARK VINA RESULT:     -10.4      2.605      4.311
REMARK  Name = 
REMARK  8 active torsions:
REMARK  status: ('A' for Active; 'I' for Inactive)
REMARK    1  A    between atoms: C_2  and  N_4
REMARK    2  A    between atoms: N_7  and  C_8
REMARK    3  A    between atoms: C_8  and  C_9
REMARK    4  A    between atoms: C_13  and  C_14
REMARK    5  A    between atoms: C_14  and  C_15
REMARK    6  A    between atoms: N_17  and  C_19
REMARK    7  A    between atoms: C_19  and  C_20
REMARK    8  A    between atoms: C_27  and  C_28
REMARK                            x       y       z     vdW  Elec       q    Type
REMARK                         _______ _______ _______ _____ _____    ______ ____
ROOT
ATOM      9  C   UNL     1      -0.598   1.448  24.396  0.00  0.00    +0.043 C 
ATOM     10  C   UNL     1      -0.391   2.240  24.294  0.00  0.00    -0.033 C 
ATOM     11  C   UNL     1      -0.908   2.835  24.538  0.00  0.00    -0.048 C 
ATOM     12  C   UNL     1      -0.702   3.627  24.436  0.00  0.00    +0.026 C 
ATOM     13  C   UNL     1      -1.631   2.638  24.884  0.00  0.00    +0.027 C 
ATOM     26  C   UNL     1      -1.836   1.846  24.986  0.00  0.00    +0.005 C 
ATOM     27  C   UNL     1      -1.320   1.251  24.743  0.00  0.00    +0.006 C 
ENDROOT
BRANCH  27  28
ATOM     28  C   UNL     1      -1.526   0.458  24.844  0.00  0.00    +0.000 C 
ATOM     29  C   UNL     1      -1.962   0.067  24.264  0.00  0.00    +0.000 C 
ATOM     30  C   UNL     1      -1.295   0.057  25.527  0.00  0.00    +0.000 C 
ENDBRANCH  27  28
BRANCH   9   8
ATOM      8  C   UNL     1      -0.081   0.852  24.152  0.00  0.00    +0.121 C 
BRANCH   8   7
ATOM      4  N   UNL     1       1.746   0.656  22.974  0.00  0.00    -0.189 NA
ATOM      5  C   UNL     1       1.050   0.460  23.372  0.00  0.00    +0.339 C 
ATOM      6  O   UNL     1       0.791  -0.322  23.389  0.00  0.00    -0.249 OA
ATOM      7  N   UNL     1       0.614   1.048  23.754  0.00  0.00    -0.187 NA
BRANCH   4   2
ATOM      1  C   UNL     1       2.915  -0.161  22.892  0.00  0.00    +0.023 C 
ATOM      2  C   UNL     1       2.182   0.068  22.592  0.00  0.00    +0.097 C 
ATOM      3  C   UNL     1       1.884  -0.290  21.912  0.00  0.00    +0.023 C 
ENDBRANCH   4   2
ENDBRANCH   8   7
ENDBRANCH   9   8
BRANCH  13  14
ATOM     14  C   UNL     1      -2.146   3.233  25.128  0.00  0.00    +0.089 C 
BRANCH  14  15
ATOM     15  C   UNL     1      -2.896   3.296  24.788  0.00  0.00    +0.226 C 
ATOM     16  O   UNL     1      -2.983   3.234  23.970  0.00  0.00    -0.275 OA
ATOM     17  N   UNL     1      -3.557   3.421  25.265  0.00  0.00    -0.274 N 
ATOM     18  C   UNL     1      -3.469   3.483  26.083  0.00  0.00    +0.115 C 
BRANCH  17  19
ATOM     19  C   UNL     1      -4.305   3.483  24.924  0.00  0.00    +0.120 C 
BRANCH  19  20
ATOM     20  C   UNL     1      -4.909   2.972  25.157  0.00  0.00    -0.002 A 
ATOM     21  C   UNL     1      -5.288   3.081  25.881  0.00  0.00    -0.003 A 
ATOM     22  C   UNL     1      -5.892   2.570  26.113  0.00  0.00    -0.000 A 
ATOM     23  C   UNL     1      -6.116   1.947  25.621  0.00  0.00    -0.000 A 
ATOM     24  C   UNL     1      -5.738   1.836  24.896  0.00  0.00    -0.000 A 
ATOM     25  C   UNL     1      -5.134   2.349  24.664  0.00  0.00    -0.003 A 
ENDBRANCH  19  20
ENDBRANCH  17  19
ENDBRANCH  14  15
ENDBRANCH  13  14
TORSDOF 8
ENDMDL
MODEL 3
REMARK VINA RESULT:      -9.8      1.129      5.484
REMARK  Name = 
REMARK  8 active torsions:
REMARK  status: ('A' for Active; 'I' for Inactive)
REMARK    1  A    between atoms: C_2  and  N_4
REMARK    2  A    between atoms: N_7  and  C_8
REMARK    3  A    between atoms: C_8  and  C_9
REMARK    4  A    between atoms: C_13  and  C_14
REMARK    5  A    between atoms: C_14  and  C_15
REMARK    6  A    between atoms: N_17  and  C_19
REMARK    7  A    between atoms: C_19  and  C_20
REMARK    8  A    between atoms: C_27  and  C_28
REMARK                            x       y       z     vdW  Elec       q    Type
REMARK                         _______ _______ _______ _____ _____    ______ ____
ROOT
ATOM      9  C   UNL     1      -3.330   2.259  24.245  0.00  0.00    +0.043 C 
ATOM     10  C   UNL     1      -3.978   2.248  24.755  0.00  0.00    -0.033 C 
ATOM     11  C   UNL     1      -4.395   1.546  24.878  0.00  0.00    -0.048 C 
ATOM     12  C   UNL     1      -5.043   1.536  25.388  0.00  0.00    +0.026 C 
ATOM     13  C   UNL     1      -4.162   0.855  24.491  0.00  0.00    +0.027 C 
ATOM     26  C   UNL     1      -3.514   0.867  23.981  0.00  0.00    +0.005 C 
ATOM     27  C   UNL     1      -3.098   1.568  23.858  0.00  0.00    +0.006 C 
ENDROOT
BRANCH  27  28
ATOM     28  C   UNL     1      -2.449   1.579  23.348  0.00  0.00    +0.000 C 
ATOM     29  C   UNL     1      -2.544   1.820  22.565  0.00  0.00    +0.000 C 
ATOM     30  C   UNL     1      -1.706   1.350  23.622  0.00  0.00    +0.000 C 
ENDBRANCH  27  28
BRANCH   9   8
ATOM      8  C   UNL     1      -2.914   2.961  24.121  0.00  0.00    +0.121 C 
BRANCH   8   7
ATOM      4  N   UNL     1      -1.953   4.534  25.289  0.00  0.00    -0.189 NA
ATOM      5  C   UNL     1      -2.241   4.108  24.645  0.00  0.00    +0.339 C 
ATOM      6  O   UNL     1      -2.145   4.400  23.880  0.00  0.00    -0.249 OA
ATOM      7  N   UNL     1      -2.626   3.387  24.766  0.00  0.00    -0.187 NA
BRANCH   4   2
ATOM      1  C   UNL     1      -1.979   5.963  25.268  0.00  0.00    +0.023 C 
ATOM      2  C   UNL     1      -1.568   5.254  25.168  0.00  0.00    +0.097 C 
ATOM      3  C   UNL     1      -0.774   5.266  24.947  0.00  0.00    +0.023 C 
ENDBRANCH   4   2
ENDBRANCH   8   7
ENDBRANCH   9   8
BRANCH  13  14
ATOM     14  C   UNL     1      -4.578   0.154  24.615  0.00  0.00    +0.089 C 
BRANCH  14  15
ATOM     15  C   UNL     1      -4.229  -0.465  25.034  0.00  0.00    +0.226 C 
ATOM     16  O   UNL     1      -3.929  -0.333  25.791  0.00  0.00    -0.275 OA
ATOM     17  N   UNL     1      -4.181  -1.216  24.697  0.00  0.00    -0.274 N 
ATOM     18  C   UNL     1      -4.482  -1.348  23.940  0.00  0.00    +0.115 C 
BRANCH  17  19
ATOM     19  C   UNL     1      -3.832  -1.834  25.116  0.00  0.00    +0.120 C 
BRANCH  19  20
ATOM     20  C   UNL     1      -3.213  -2.264  24.780  0.00  0.00    -0.002 A 
ATOM     21  C   UNL     1      -2.431  -2.074  24.961  0.00  0.00    -0.003 A 
ATOM     22  C   UNL     1      -1.813  -2.503  24.625  0.00  0.00    -0.000 A 
ATOM     23  C   UNL     1      -1.976  -3.124  24.107  0.00  0.00    -0.000 A 
ATOM     24  C   UNL     1      -2.758  -3.315  23.925  0.00  0.00    -0.000 A 
ATOM     25  C   UNL     1      -3.377  -2.885  24.262  0.00  0.00    -0.003 A 
ENDBRANCH  19  20
ENDBRANCH  17  19
ENDBRANCH  14  15
ENDBRANCH  13  14
TORSDOF 8
ENDMDL
MODEL 4
REMARK VINA RESULT:      -9.8      3.113      4.945
REMARK  Name = 
REMARK  8 active torsions:
REMARK  status: ('A' for Active; 'I' for Inactive)
REMARK    1  A    between atoms: C_2  and  N_4
REMARK    2  A    between atoms: N_7  and  C_8
REMARK    3  A    between atoms: C_8  and  C_9
REMARK    4  A    between atoms: C_13  and  C_14
REMARK    5  A    between atoms: C_14  and  C_15
REMARK    6  A    between atoms: N_17  and  C_19
REMARK    7  A    between atoms: C_19  and  C_20
REMARK    8  A    between atoms: C_27  and  C_28
REMARK                            x       y       z     vdW  Elec       q    Type
REMARK                         _______ _______ _______ _____ _____    ______ ____
ROOT
ATOM      9  C   UNL     1      -0.041   0.833  24.034  0.00  0.00    +0.043 C 
ATOM     10  C   UNL     1      -0.328   0.069  23.917  0.00  0.00    -0.033 C 
ATOM     11  C   UNL     1      -1.110  -0.112  24.109  0.00  0.00    -0.048 C 
ATOM     12  C   UNL     1      -1.397  -0.876  23.991  0.00  0.00    +0.026 C 
ATOM     13  C   UNL     1      -1.605   0.472  24.418  0.00  0.00    +0.027 C 
ATOM     26  C   UNL     1      -1.316   1.237  24.534  0.00  0.00    +0.005 C 
ATOM     27  C   UNL     1      -0.535   1.417  24.343  0.00  0.00    +0.006 C 
ENDROOT
BRANCH  27  28
ATOM     28  C   UNL     1      -0.247   2.182  24.460  0.00  0.00    +0.000 C 
ATOM     29  C   UNL     1      -0.292   2.737  23.852  0.00  0.00    +0.000 C 
ATOM     30  C   UNL     1       0.087   2.390  25.185  0.00  0.00    +0.000 C 
ENDBRANCH  27  28
BRANCH   9   8
ATOM      8  C   UNL     1       0.742   1.014  23.842  0.00  0.00    +0.121 C 
BRANCH   8   7
ATOM      4  N   UNL     1       2.426   0.116  22.784  0.00  0.00    -0.189 NA
ATOM      5  C   UNL     1       1.985   0.638  23.246  0.00  0.00    +0.339 C 
ATOM      6  O   UNL     1       2.343   1.304  23.573  0.00  0.00    -0.249 OA
ATOM      7  N   UNL     1       1.183   0.492  23.380  0.00  0.00    -0.187 NA
BRANCH   4   2
ATOM      1  C   UNL     1       3.795  -0.058  23.156  0.00  0.00    +0.023 C 
ATOM      2  C   UNL     1       3.228   0.262  22.650  0.00  0.00    +0.097 C 
ATOM      3  C   UNL     1       3.460   0.726  22.010  0.00  0.00    +0.023 C 
ENDBRANCH   4   2
ENDBRANCH   8   7
ENDBRANCH   9   8
BRANCH  13  14
ATOM     14  C   UNL     1      -2.386   0.292  24.609  0.00  0.00    +0.089 C 
BRANCH  14  15
ATOM     15  C   UNL     1      -3.005   0.712  24.261  0.00  0.00    +0.226 C 
ATOM     16  O   UNL     1      -2.945   0.957  23.475  0.00  0.00    -0.275 OA
ATOM     17  N   UNL     1      -3.682   0.887  24.697  0.00  0.00    -0.274 N 
ATOM     18  C   UNL     1      -3.741   0.643  25.483  0.00  0.00    +0.115 C 
BRANCH  17  19
ATOM     19  C   UNL     1      -4.300   1.307  24.349  0.00  0.00    +0.120 C 
BRANCH  19  20
ATOM     20  C   UNL     1      -4.759   1.820  24.803  0.00  0.00    -0.002 A 
ATOM     21  C   UNL     1      -4.535   2.610  24.891  0.00  0.00    -0.003 A 
ATOM     22  C   UNL     1      -4.994   3.121  25.345  0.00  0.00    -0.000 A 
ATOM     23  C   UNL     1      -5.679   2.845  25.713  0.00  0.00    -0.000 A 
ATOM     24  C   UNL     1      -5.904   2.056  25.627  0.00  0.00    -0.000 A 
ATOM     25  C   UNL     1      -5.443   1.543  25.172  0.00  0.00    -0.003 A 
ENDBRANCH  19  20
ENDBRANCH  17  19
ENDBRANCH  14  15
ENDBRANCH  13  14
TORSDOF 8
ENDMDL
