MODEL 1
REMARK VINA RESULT:     -12.2      0.000      0.000
REMARK  Name = 
REMARK  9 active torsions:
REMARK  status: ('A' for Active; 'I' for Inactive)
REMARK    1  A    between atoms: C_2  and  C_3
REMARK    2  A    between atoms: C_3  and  C_4
REMARK    3  A    between atoms: C_9  and  C_10
REMARK    4  A    between atoms: C_10  and  C_11
REMARK    5  A    between atoms: C_14  and  C_15
REMARK    6  A    between atoms: C_15  and  O_16
REMARK    7  A    between atoms: O_16  and  C_17
REMARK    8  A    between atoms: N_24  and  C_25
REMARK    9  A    between atoms: C_25  and  C_26
REMARK                            x       y       z     vdW  Elec       q    Type
REMARK                         _______ _______ _______ _____ _____    ______ ____
ROOT
ATOM      4  C   UNL     1      -1.285   3.386  25.420  0.00  0.00    +0.012 C 
ATOM      5  C   UNL     1      -1.191   4.058  24.948  0.00  0.00    +0.019 C 
ATOM      6  C   UNL     1      -0.610   4.071  24.363  0.00  0.00    +0.089 C 
ATOM      7  N   UNL     1      -0.123   3.415  24.248  0.00  0.00    -0.218 NA
ATOM      8  C   UNL     1      -0.217   2.745  24.719  0.00  0.00    +0.089 C 
ATOM      9  C   UNL     1      -0.798   2.730  25.305  0.00  0.00    +0.024 C 
ENDROOT
BRANCH   4   3
ATOM      3  C   UNL     1      -1.865   3.372  26.006  0.00  0.00    +0.087 C 
BRANCH   3   2
ATOM      1  O   UNL     1      -2.711   4.516  25.867  0.00  0.00    -0.273 OA
ATOM      2  C   UNL     1      -2.609   3.697  25.857  0.00  0.00    +0.242 C 
ATOM     24  N   UNL     1      -3.250   3.203  25.700  0.00  0.00    -0.201 NA
BRANCH  24  25
ATOM     25  C   UNL     1      -3.994   3.527  25.552  0.00  0.00    +0.141 C 
BRANCH  25  26
ATOM     26  C   UNL     1      -4.637   3.032  25.397  0.00  0.00    -0.001 A 
ATOM     27  C   UNL     1      -5.245   2.961  25.949  0.00  0.00    -0.003 A 
ATOM     28  C   UNL     1      -5.887   2.467  25.794  0.00  0.00    -0.000 A 
ATOM     29  C   UNL     1      -5.921   2.044  25.086  0.00  0.00    -0.000 A 
ATOM     30  C   UNL     1      -5.312   2.115  24.534  0.00  0.00    -0.000 A 
ATOM     31  C   UNL     1      -4.670   2.610  24.689  0.00  0.00    -0.003 A 
ENDBRANCH  25  26
ENDBRANCH  24  25
ENDBRANCH   3   2
ENDBRANCH   4   3
BRANCH   9  10
ATOM     10  C   UNL     1      -0.892   2.060  25.776  0.00  0.00    +0.051 C 
BRANCH  10  11
ATOM     11  C   UNL     1      -0.892   1.311  25.431  0.00  0.00    +0.100 A 
ATOM     12  N   UNL     1      -0.246   0.939  25.079  0.00  0.00    -0.082 NA
ATOM     13  O   UNL     1      -0.493   0.199  24.808  0.00  0.00    -0.354 OA
ATOM     14  C   UNL     1      -1.293   0.114  24.994  0.00  0.00    +0.198 A 
ATOM     23  C   UNL     1      -1.539   0.801  25.379  0.00  0.00    +0.057 A 
BRANCH  14  15
ATOM     15  C   UNL     1      -1.763  -0.542  24.824  0.00  0.00    +0.272 C 
BRANCH  15  16
ATOM     16  O   UNL     1      -2.573  -0.519  24.979  0.00  0.00    -0.467 OA
BRANCH  16  17
ATOM     17  C   UNL     1      -3.060  -1.131  24.716  0.00  0.00    +0.139 A 
ATOM     18  C   UNL     1      -2.955  -1.896  25.006  0.00  0.00    +0.037 A 
ATOM     19  C   UNL     1      -3.442  -2.507  24.743  0.00  0.00    +0.003 A 
ATOM     20  C   UNL     1      -4.034  -2.355  24.190  0.00  0.00    +0.000 A 
ATOM     21  C   UNL     1      -4.140  -1.589  23.899  0.00  0.00    +0.003 A 
ATOM     22  C   UNL     1      -3.653  -0.978  24.163  0.00  0.00    +0.037 A 
ENDBRANCH  16  17
ENDBRANCH  15  16
ENDBRANCH  14  15
ENDBRANCH  10  11
ENDBRANCH   9  10
TORSDOF 9
ENDMDL
MODEL 2
REMARK VINA RESULT:     -11.8      1.358      3.552
REMARK  Name = 
REMARK  9 active torsions:
REMARK  status: ('A' for Active; 'I' for Inactive)
REMARK    1  A    between atoms: C_2  and  C_3
REMARK    2  A    between atoms: C_3  and  C_4
REMARK    3  A    between atoms: C_9  and  C_10
REMARK    4  A    between atoms: C_10  and  C_11
REMARK    5  A    between atoms: C_14  and  C_15
REMARK    6  A    between atoms: C_15  and  O_16
REMARK    7  A    between atoms: O_16  and  C_17
REMARK    8  A    between atoms: N_24  and  C_25
REMARK    9  A    between atoms: C_25  and  C_26
REMARK                            x       y       z     vdW  Elec       q    Type
REMARK                         _______ _______ _______ _____ _____    ______ ____
ROOT
ATOM      4  C   UNL     1      -2.777   3.508  24.879  0.00  0.00    +0.012 C 
ATOM      5  C   UNL     1      -2.396   3.934  25.475  0.00  0.00    +0.019 C 
ATOM      6  C   UNL     1      -2.821   4.190  26.134  0.00  0.00    +0.089 C 
ATOM      7  N   UNL     1      -3.626   4.021  26.198  0.00  0.00    -0.218 NA
ATOM      8  C   UNL     1      -4.006   3.596  25.603  0.00  0.00    +0.089 C 
ATOM      9  C   UNL     1      -3.582   3.339  24.943  0.00  0.00    +0.024 C 
ENDROOT
BRANCH   4   3
ATOM      3  C   UNL     1      -2.353   3.252  24.220  0.00  0.00    +0.087 C 
BRANCH   3   2
ATOM      1  O   UNL     1      -0.973   3.521  24.476  0.00  0.00    -0.273 OA
ATOM      2  C   UNL     1      -1.577   2.985  24.307  0.00  0.00    +0.242 C 
ATOM     24  N   UNL     1      -1.406   2.183  24.224  0.00  0.00    -0.201 NA
BRANCH  24  25
ATOM     25  C   UNL     1      -0.630   1.916  24.311  0.00  0.00    +0.141 C 
BRANCH  25  26
ATOM     26  C   UNL     1      -0.466   1.107  24.284  0.00  0.00    -0.001 A 
ATOM     27  C   UNL     1      -0.547   0.647  24.964  0.00  0.00    -0.003 A 
ATOM     28  C   UNL     1      -0.383  -0.161  24.937  0.00  0.00    -0.000 A 
ATOM     29  C   UNL     1      -0.139  -0.509  24.230  0.00  0.00    -0.000 A 
ATOM     30  C   UNL     1      -0.058  -0.049  23.550  0.00  0.00    -0.000 A 
ATOM     31  C   UNL     1      -0.222   0.760  23.577  0.00  0.00    -0.003 A 
ENDBRANCH  25  26
ENDBRANCH  24  25
ENDBRANCH   3   2
ENDBRANCH   4   3
BRANCH   9  10
ATOM     10  C   UNL     1      -3.962   2.914  24.348  0.00  0.00    +0.051 C 
BRANCH  10  11
ATOM     11  C   UNL     1      -4.372   2.222  24.533  0.00  0.00    +0.100 A 
ATOM     12  N   UNL     1      -5.134   2.178  24.845  0.00  0.00    -0.082 NA
ATOM     13  O   UNL     1      -5.324   1.381  24.943  0.00  0.00    -0.354 OA
ATOM     14  C   UNL     1      -4.679   0.932  24.691  0.00  0.00    +0.198 A 
ATOM     23  C   UNL     1      -4.091   1.452  24.437  0.00  0.00    +0.057 A 
BRANCH  14  15
ATOM     15  C   UNL     1      -4.632   0.109  24.692  0.00  0.00    +0.272 C 
BRANCH  15  16
ATOM     16  O   UNL     1      -3.945  -0.264  24.427  0.00  0.00    -0.467 OA
BRANCH  16  17
ATOM     17  C   UNL     1      -3.871  -1.084  24.489  0.00  0.00    +0.139 A 
ATOM     18  C   UNL     1      -4.070  -1.566  23.849  0.00  0.00    +0.037 A 
ATOM     19  C   UNL     1      -3.996  -2.385  23.912  0.00  0.00    +0.003 A 
ATOM     20  C   UNL     1      -3.723  -2.722  24.613  0.00  0.00    +0.000 A 
ATOM     21  C   UNL     1      -3.525  -2.241  25.253  0.00  0.00    +0.003 A 
ATOM     22  C   UNL     1      -3.598  -1.422  25.191  0.00  0.00    +0.037 A 
ENDBRANCH  16  17
ENDBRANCH  15  16
ENDBRANCH  14  15
ENDBRANCH  10  11
ENDBRANCH   9  10
TORSDOF 9
ENDMDL
MODEL 3
REMARK VINA RESULT:     -11.7      1.285      4.309
REMARK  Name = 
REMARK  9 active torsions:
REMARK  status: ('A' for Active; 'I' for Inactive)
REMARK    1  A    between atoms: C_2  and  C_3
REMARK    2  A    between atoms: C_3  and  C_4
REMARK    3  A    between atoms: C_9  and  C_10
REMARK    4  A    between atoms: C_10  and  C_11
REMARK    5  A    between atoms: C_14  and  C_15
REMARK    6  A    between atoms: C_15  and  O_16
REMARK    7  A    between atoms: O_16  and  C_17
REMARK    8  A    between atoms: N_24  and  C_25
REMARK    9  A    between atoms: C_25  and  C_26
REMARK                            x       y       z     vdW  Elec       q    Type
REMARK                         _______ _______ _______ _____ _____    ______ ____
ROOT
ATOM      4  C   UNL     1      -2.458  -1.284  25.223  0.00  0.00    +0.012 C 
ATOM      5  C   UNL     1      -2.689  -1.891  24.713  0.00  0.00    +0.019 C 
ATOM      6  C   UNL     1      -2.126  -2.279  24.252  0.00  0.00    +0.089 C 
ATOM      7  N   UNL     1      -1.332  -2.060  24.300  0.00  0.00    -0.218 NA
ATOM      8  C   UNL     1      -1.101  -1.454  24.809  0.00  0.00    +0.089 C 
ATOM      9  C   UNL     1      -1.664  -1.065  25.270  0.00  0.00    +0.024 C 
ENDROOT
BRANCH   4   3
ATOM      3  C   UNL     1      -3.021  -0.896  25.684  0.00  0.00    +0.087 C 
BRANCH   3   2
ATOM      1  O   UNL     1      -4.244  -1.278  25.051  0.00  0.00    -0.273 OA
ATOM      2  C   UNL     1      -3.751  -0.692  25.359  0.00  0.00    +0.242 C 
ATOM     24  N   UNL     1      -3.989   0.098  25.342  0.00  0.00    -0.201 NA
BRANCH  24  25
ATOM     25  C   UNL     1      -4.719   0.302  25.017  0.00  0.00    +0.141 C 
BRANCH  25  26
ATOM     26  C   UNL     1      -4.956   1.093  24.998  0.00  0.00    -0.001 A 
ATOM     27  C   UNL     1      -5.554   1.357  25.501  0.00  0.00    -0.003 A 
ATOM     28  C   UNL     1      -5.790   2.146  25.482  0.00  0.00    -0.000 A 
ATOM     29  C   UNL     1      -5.429   2.673  24.958  0.00  0.00    -0.000 A 
ATOM     30  C   UNL     1      -4.832   2.408  24.455  0.00  0.00    -0.000 A 
ATOM     31  C   UNL     1      -4.595   1.618  24.474  0.00  0.00    -0.003 A 
ENDBRANCH  25  26
ENDBRANCH  24  25
ENDBRANCH   3   2
ENDBRANCH   4   3
BRANCH   9  10
ATOM     10  C   UNL     1      -1.433  -0.459  25.779  0.00  0.00    +0.051 C 
BRANCH  10  11
ATOM     11  C   UNL     1      -1.020   0.192  25.484  0.00  0.00    +0.100 A 
ATOM     12  N   UNL     1      -0.353   0.164  25.001  0.00  0.00    -0.082 NA
ATOM     13  O   UNL     1      -0.123   0.940  24.839  0.00  0.00    -0.354 OA
ATOM     14  C   UNL     1      -0.648   1.447  25.223  0.00  0.00    +0.198 A 
ATOM     23  C   UNL     1      -1.203   0.985  25.622  0.00  0.00    +0.057 A 
BRANCH  14  15
ATOM     15  C   UNL     1      -0.624   2.272  25.210  0.00  0.00    +0.272 C 
BRANCH  15  16
ATOM     16  O   UNL     1      -1.279   2.700  24.949  0.00  0.00    -0.467 OA
BRANCH  16  17
ATOM     17  C   UNL     1      -1.286   3.522  25.011  0.00  0.00    +0.139 A 
ATOM     18  C   UNL     1      -0.688   3.967  24.659  0.00  0.00    +0.037 A 
ATOM     19  C   UNL     1      -0.694   4.790  24.722  0.00  0.00    +0.003 A 
ATOM     20  C   UNL     1      -1.299   5.167  25.136  0.00  0.00    +0.000 A 
ATOM     21  C   UNL     1      -1.898   4.722  25.488  0.00  0.00    +0.003 A 
ATOM     22  C   UNL     1      -1.892   3.900  25.426  0.00  0.00    +0.037 A 
ENDBRANCH  16  17
ENDBRANCH  15  16
ENDBRANCH  14  15
ENDBRANCH  10  11
ENDBRANCH   9  10
TORSDOF 9
ENDMDL
MODEL 4
REMARK VINA RESULT:     -11.3      1.142      4.172
REMARK  Name = 
REMARK  9 active torsions:
REMARK  status: ('A' for Active; 'I' for Inactive)
REMARK    1  A    between atoms: C_2  and  C_3
REMARK    2  A    between atoms: C_3  and  C_4
REMARK    3  A    between atoms: C_9  and  C_10
REMARK    4  A    between atoms: C_10  and  C_11
REMARK    5  A    between atoms: C_14  and  C_15
REMARK    6  A    between atoms: C_15  and  O_16
REMARK    7  A    between atoms: O_16  and  C_17
REMARK    8  A    between atoms: N_24  and  C_25
REMARK    9  A    between atoms: C_25  and  C_26
REMARK                            x       y       z     vdW  Elec       q    Type
REMARK                         _______ _______ _______ _____ _____    ______ ____
ROOT
ATOM      4  C   UNL     1      -0.401   0.245  24.753  0.00  0.00    +0.012 C 
ATOM      5  C   UNL     1      -0.120  -0.201  24.117  0.00  0.00    +0.019 C 
ATOM      6  C   UNL     1       0.283   0.170  23.500  0.00  0.00    +0.089 C 
ATOM      7  N   UNL     1       0.405   0.986  23.518  0.00  0.00    -0.218 NA
ATOM      8  C   UNL     1       0.124   1.431  24.152  0.00  0.00    +0.089 C 
ATOM      9  C   UNL     1      -0.279   1.061  24.770  0.00  0.00    +0.024 C 
ENDROOT
BRANCH   4   3
ATOM      3  C   UNL     1      -0.804  -0.125  25.370  0.00  0.00    +0.087 C 
BRANCH   3   2
ATOM      1  O   UNL     1      -0.609  -1.540  25.326  0.00  0.00    -0.273 OA
ATOM      2  C   UNL     1      -1.108  -0.885  25.267  0.00  0.00    +0.242 C 
ATOM     24  N   UNL     1      -1.910  -0.990  25.105  0.00  0.00    -0.201 NA
BRANCH  24  25
ATOM     25  C   UNL     1      -2.214  -1.750  25.002  0.00  0.00    +0.141 C 
BRANCH  25  26
ATOM     26  C   UNL     1      -2.955  -1.855  24.654  0.00  0.00    -0.001 A 
ATOM     27  C   UNL     1      -3.501  -1.236  24.651  0.00  0.00    -0.003 A 
ATOM     28  C   UNL     1      -4.240  -1.341  24.303  0.00  0.00    -0.000 A 
ATOM     29  C   UNL     1      -4.436  -2.065  23.957  0.00  0.00    -0.000 A 
ATOM     30  C   UNL     1      -3.890  -2.684  23.960  0.00  0.00    -0.000 A 
ATOM     31  C   UNL     1      -3.149  -2.579  24.309  0.00  0.00    -0.003 A 
ENDBRANCH  25  26
ENDBRANCH  24  25
ENDBRANCH   3   2
ENDBRANCH   4   3
BRANCH   9  10
ATOM     10  C   UNL     1      -0.560   1.506  25.405  0.00  0.00    +0.051 C 
BRANCH  10  11
ATOM     11  C   UNL     1      -1.053   2.154  25.268  0.00  0.00    +0.100 A 
ATOM     12  N   UNL     1      -0.825   2.876  24.940  0.00  0.00    -0.082 NA
ATOM     13  O   UNL     1      -1.491   3.362  24.905  0.00  0.00    -0.354 OA
ATOM     14  C   UNL     1      -2.131   2.940  25.210  0.00  0.00    +0.198 A 
ATOM     23  C   UNL     1      -1.860   2.193  25.435  0.00  0.00    +0.057 A 
BRANCH  14  15
ATOM     15  C   UNL     1      -2.905   3.216  25.280  0.00  0.00    +0.272 C 
BRANCH  15  16
ATOM     16  O   UNL     1      -3.471   3.000  24.719  0.00  0.00    -0.467 OA
BRANCH  16  17
ATOM     17  C   UNL     1      -4.264   2.937  24.937  0.00  0.00    +0.139 A 
ATOM     18  C   UNL     1      -4.708   2.286  24.694  0.00  0.00    +0.037 A 
ATOM     19  C   UNL     1      -5.501   2.222  24.912  0.00  0.00    +0.003 A 
ATOM     20  C   UNL     1      -5.850   2.809  25.374  0.00  0.00    +0.000 A 
ATOM     21  C   UNL     1      -5.406   3.461  25.618  0.00  0.00    +0.003 A 
ATOM     22  C   UNL     1      -4.613   3.525  25.399  0.00  0.00    +0.037 A 
ENDBRANCH  16  17
ENDBRANCH  15  16
ENDBRANCH  14  15
ENDBRANCH  10  11
ENDBRANCH   9  10
TORSDOF 9
ENDMDL
MODEL 5
REMARK VINA RESULT:     -11.1      1.273      3.658
REMARK  Name = 
REMARK  9 active torsions:
REMARK  status: ('A' for Active; 'I' for Inactive)
REMARK    1  A    between atoms: C_2  and  C_3
REMARK    2  A    between atoms: C_3  and  C_4
REMARK    3  A    between atoms: C_9  and  C_10
REMARK    4  A    between atoms: C_10  and  C_11
REMARK    5  A    between atoms: C_14  and  C_15
REMARK    6  A    between atoms: C_15  and  O_16
REMARK    7  A    between atoms: O_16  and  C_17
REMARK    8  A    between atoms: N_24  and  C_25
REMARK    9  A    between atoms: C_25  and  C_26
REMARK                            x       y       z     vdW  Elec       q    Type
REMARK                         _______ _______ _______ _____ _____    ______ ____
ROOT
ATOM      4  C   UNL     1      -4.456   3.157  24.909  0.00  0.00    +0.012 C 
ATOM      5  C   UNL     1      -4.631   3.738  25.469  0.00  0.00    +0.019 C 
ATOM      6  C   UNL     1      -5.246   3.619  26.007  0.00  0.00    +0.089 C 
ATOM      7  N   UNL     1      -5.685   2.921  25.985  0.00  0.00    -0.218 NA
ATOM      8  C   UNL     1      -5.510   2.341  25.426  0.00  0.00    +0.089 C 
ATOM      9  C   UNL     1      -4.895   2.459  24.887  0.00  0.00    +0.024 C 
ENDROOT
BRANCH   4   3
ATOM      3  C   UNL     1      -3.842   3.275  24.371  0.00  0.00    +0.087 C 
BRANCH   3   2
ATOM      1  O   UNL     1      -3.144   4.473  24.714  0.00  0.00    -0.273 OA
ATOM      2  C   UNL     1      -3.150   3.655  24.611  0.00  0.00    +0.242 C 
ATOM     24  N   UNL     1      -2.466   3.216  24.749  0.00  0.00    -0.201 NA
BRANCH  24  25
ATOM     25  C   UNL     1      -1.774   3.595  24.989  0.00  0.00    +0.141 C 
BRANCH  25  26
ATOM     26  C   UNL     1      -1.109   3.150  25.195  0.00  0.00    -0.001 A 
ATOM     27  C   UNL     1      -0.939   3.008  25.989  0.00  0.00    -0.003 A 
ATOM     28  C   UNL     1      -0.275   2.564  26.195  0.00  0.00    -0.000 A 
ATOM     29  C   UNL     1       0.219   2.262  25.607  0.00  0.00    -0.000 A 
ATOM     30  C   UNL     1       0.048   2.405  24.812  0.00  0.00    -0.000 A 
ATOM     31  C   UNL     1      -0.617   2.849  24.606  0.00  0.00    -0.003 A 
ENDBRANCH  25  26
ENDBRANCH  24  25
ENDBRANCH   3   2
ENDBRANCH   4   3
BRANCH   9  10
ATOM     10  C   UNL     1      -4.720   1.879  24.328  0.00  0.00    +0.051 C 
BRANCH  10  11
ATOM     11  C   UNL     1      -4.576   1.103  24.569  0.00  0.00    +0.100 A 
ATOM     12  N   UNL     1      -5.075   0.639  25.034  0.00  0.00    -0.082 NA
ATOM     13  O   UNL     1      -4.715  -0.096  25.140  0.00  0.00    -0.354 OA
ATOM     14  C   UNL     1      -3.993  -0.086  24.740  0.00  0.00    +0.198 A 
ATOM     23  C   UNL     1      -3.907   0.655  24.387  0.00  0.00    +0.057 A 
BRANCH  14  15
ATOM     15  C   UNL     1      -3.452  -0.707  24.701  0.00  0.00    +0.272 C 
BRANCH  15  16
ATOM     16  O   UNL     1      -2.911  -0.822  25.313  0.00  0.00    -0.467 OA
BRANCH  16  17
ATOM     17  C   UNL     1      -2.210  -1.233  25.172  0.00  0.00    +0.139 A 
ATOM     18  C   UNL     1      -1.492  -0.928  25.440  0.00  0.00    +0.037 A 
ATOM     19  C   UNL     1      -0.790  -1.338  25.298  0.00  0.00    +0.003 A 
ATOM     20  C   UNL     1      -0.806  -2.053  24.888  0.00  0.00    +0.000 A 
ATOM     21  C   UNL     1      -1.524  -2.359  24.619  0.00  0.00    +0.003 A 
ATOM     22  C   UNL     1      -2.225  -1.949  24.761  0.00  0.00    +0.037 A 
ENDBRANCH  16  17
ENDBRANCH  15  16
ENDBRANCH  14  15
ENDBRANCH  10  11
ENDBRANCH   9  10
TORSDOF 9
ENDMDL
