MODEL 1
REMARK VINA RESULT:     -12.5      0.000      0.000
REMARK  Name = 
REMARK  3 active torsions:
REMARK  status: ('A' for Active; 'I' for Inactive)
REMARK    1  A    between atoms: C_5  and  C_6
REMARK    2  A    between atoms: C_6  and  N_7
REMARK    3  A    between atoms: N_13  and  C_14
REMARK                            x       y       z     vdW  Elec       q    Type
REMARK                         _______ _______ _______ _____ _____    ______ ____
ROOT
ATOM      7  N   UNL     1      -3.846   0.539  24.393  0.00  0.00    -0.266 NA
ATOM      8  C   UNL     1      -3.569   0.584  23.618  0.00  0.00    +0.094 C 
ATOM      9  C   UNL     1      -3.061   1.195  23.397  0.00  0.00    +0.112 C 
ATOM     10  N   UNL     1      -2.830   1.761  23.951  0.00  0.00    -0.261 N 
ATOM     11  C   UNL     1      -3.108   1.716  24.727  0.00  0.00    +0.113 C 
ATOM     12  C   UNL     1      -2.788   2.348  25.149  0.00  0.00    +0.116 C 
ATOM     13  N   UNL     1      -2.313   2.784  24.635  0.00  0.00    -0.264 N 
ATOM     20  C   UNL     1      -2.339   2.421  23.895  0.00  0.00    +0.307 C 
ATOM     21  O   UNL     1      -1.944   2.674  23.217  0.00  0.00    -0.252 OA
ATOM     22  C   UNL     1      -3.616   1.104  24.948  0.00  0.00    +0.094 C 
ENDROOT
BRANCH  13  14
ATOM     14  C   UNL     1      -1.887   3.464  24.828  0.00  0.00    +0.077 C 
ATOM     15  C   UNL     1      -2.283   4.177  24.955  0.00  0.00    +0.020 C 
ATOM     16  C   UNL     1      -1.856   4.857  25.147  0.00  0.00    +0.002 C 
ATOM     17  C   UNL     1      -1.034   4.823  25.212  0.00  0.00    +0.000 C 
ATOM     18  C   UNL     1      -0.639   4.111  25.085  0.00  0.00    +0.002 C 
ATOM     19  C   UNL     1      -1.065   3.431  24.893  0.00  0.00    +0.020 C 
ENDBRANCH  13  14
BRANCH   7   6
ATOM      6  C   UNL     1      -4.355  -0.073  24.615  0.00  0.00    +0.099 C 
BRANCH   6   5
ATOM      1  F   UNL     1      -3.198  -3.149  24.917  0.00  0.00    -0.204 F 
ATOM      2  C   UNL     1      -3.487  -2.379  24.842  0.00  0.00    +0.140 A 
ATOM      3  C   UNL     1      -3.408  -1.846  25.466  0.00  0.00    +0.029 A 
ATOM      4  C   UNL     1      -3.697  -1.077  25.391  0.00  0.00    -0.001 A 
ATOM      5  C   UNL     1      -4.065  -0.842  24.691  0.00  0.00    -0.006 A 
ATOM     23  C   UNL     1      -4.145  -1.376  24.066  0.00  0.00    -0.001 A 
ATOM     24  C   UNL     1      -3.855  -2.144  24.143  0.00  0.00    +0.029 A 
ENDBRANCH   6   5
ENDBRANCH   7   6
TORSDOF 3
ENDMDL
MODEL 2
REMARK VINA RESULT:     -12.1      2.028      5.069
REMARK  Name = 
REMARK  3 active torsions:
REMARK  status: ('A' for Active; 'I' for Inactive)
REMARK    1  A    between atoms: C_5  and  C_6
REMARK    2  A    between atoms: C_6  and  N_7
REMARK    3  A    between atoms: N_13  and  C_14
REMARK                            x       y       z     vdW  Elec       q    Type
REMARK                         _______ _______ _______ _____ _____    ______ ____
ROOT
ATOM      7  N   UNL     1      -3.445   2.452  24.341  0.00  0.00    -0.266 NA
ATOM      8  C   UNL     1      -4.026   2.427  24.926  0.00  0.00    +0.094 C 
ATOM      9  C   UNL     1      -4.318   1.702  25.187  0.00  0.00    +0.112 C 
ATOM     10  N   UNL     1      -4.029   1.000  24.863  0.00  0.00    -0.261 N 
ATOM     11  C   UNL     1      -3.448   1.024  24.278  0.00  0.00    +0.113 C 
ATOM     12  C   UNL     1      -3.271   0.249  24.062  0.00  0.00    +0.116 C 
ATOM     13  N   UNL     1      -3.742  -0.256  24.514  0.00  0.00    -0.264 N 
ATOM     20  C   UNL     1      -4.210   0.209  25.008  0.00  0.00    +0.307 C 
ATOM     21  O   UNL     1      -4.763  -0.069  25.554  0.00  0.00    -0.252 OA
ATOM     22  C   UNL     1      -3.156   1.751  24.016  0.00  0.00    +0.094 C 
ENDROOT
BRANCH  13  14
ATOM     14  C   UNL     1      -3.744  -1.080  24.477  0.00  0.00    +0.077 C 
ATOM     15  C   UNL     1      -4.206  -1.467  23.914  0.00  0.00    +0.020 C 
ATOM     16  C   UNL     1      -4.208  -2.291  23.877  0.00  0.00    +0.002 C 
ATOM     17  C   UNL     1      -3.747  -2.728  24.404  0.00  0.00    +0.000 C 
ATOM     18  C   UNL     1      -3.285  -2.342  24.967  0.00  0.00    +0.002 C 
ATOM     19  C   UNL     1      -3.283  -1.518  25.003  0.00  0.00    +0.020 C 
ENDBRANCH  13  14
BRANCH   7   6
ATOM      6  C   UNL     1      -3.152   3.179  24.080  0.00  0.00    +0.099 C 
BRANCH   6   5
ATOM      1  F   UNL     1      -0.554   4.546  25.586  0.00  0.00    -0.204 F 
ATOM      2  C   UNL     1      -1.204   4.204  25.210  0.00  0.00    +0.140 A 
ATOM      3  C   UNL     1      -1.969   4.416  25.433  0.00  0.00    +0.029 A 
ATOM      4  C   UNL     1      -2.619   4.074  25.057  0.00  0.00    -0.001 A 
ATOM      5  C   UNL     1      -2.503   3.521  24.457  0.00  0.00    -0.006 A 
ATOM     23  C   UNL     1      -1.738   3.309  24.232  0.00  0.00    -0.001 A 
ATOM     24  C   UNL     1      -1.089   3.651  24.609  0.00  0.00    +0.029 A 
ENDBRANCH   6   5
ENDBRANCH   7   6
TORSDOF 3
ENDMDL
MODEL 3
REMARK VINA RESULT:     -12.0      2.345      5.200
REMARK  Name = 
REMARK  3 active torsions:
REMARK  status: ('A' for Active; 'I' for Inactive)
REMARK    1  A    between atoms: C_5  and  C_6
REMARK    2  A    between atoms: C_6  and  N_7
REMARK    3  A    between atoms: N_13  and  C_14
REMARK                            x       y       z     vdW  Elec       q    Type
REMARK                         _______ _______ _______ _____ _____    ______ ____
ROOT
ATOM      7  N   UNL     1      -0.913   1.745  25.572  0.00  0.00    -0.266 NA
ATOM      8  C   UNL     1      -0.372   1.421  25.040  0.00  0.00    +0.094 C 
ATOM      9  C   UNL     1      -0.561   0.731  24.630  0.00  0.00    +0.112 C 
ATOM     10  N   UNL     1      -1.290   0.365  24.751  0.00  0.00    -0.261 N 
ATOM     11  C   UNL     1      -1.831   0.689  25.283  0.00  0.00    +0.113 C 
ATOM     12  C   UNL     1      -2.502   0.210  25.289  0.00  0.00    +0.116 C 
ATOM     13  N   UNL     1      -2.377  -0.411  24.760  0.00  0.00    -0.264 N 
ATOM     20  C   UNL     1      -1.628  -0.315  24.428  0.00  0.00    +0.307 C 
ATOM     21  O   UNL     1      -1.277  -0.812  23.870  0.00  0.00    -0.252 OA
ATOM     22  C   UNL     1      -1.642   1.380  25.694  0.00  0.00    +0.094 C 
ENDROOT
BRANCH  13  14
ATOM     14  C   UNL     1      -2.907  -1.020  24.593  0.00  0.00    +0.077 C 
ATOM     15  C   UNL     1      -3.530  -0.893  24.067  0.00  0.00    +0.020 C 
ATOM     16  C   UNL     1      -4.060  -1.503  23.900  0.00  0.00    +0.002 C 
ATOM     17  C   UNL     1      -3.967  -2.240  24.259  0.00  0.00    +0.000 C 
ATOM     18  C   UNL     1      -3.345  -2.367  24.785  0.00  0.00    +0.002 C 
ATOM     19  C   UNL     1      -2.815  -1.757  24.952  0.00  0.00    +0.020 C 
ENDBRANCH  13  14
BRANCH   7   6
ATOM      6  C   UNL     1      -0.724   2.436  25.983  0.00  0.00    +0.099 C 
BRANCH   6   5
ATOM      1  F   UNL     1      -1.705   5.365  24.822  0.00  0.00    -0.204 F 
ATOM      2  C   UNL     1      -1.459   4.632  25.112  0.00  0.00    +0.140 A 
ATOM      3  C   UNL     1      -0.740   4.312  24.869  0.00  0.00    +0.029 A 
ATOM      4  C   UNL     1      -0.494   3.580  25.159  0.00  0.00    -0.001 A 
ATOM      5  C   UNL     1      -0.969   3.168  25.693  0.00  0.00    -0.006 A 
ATOM     23  C   UNL     1      -1.690   3.488  25.937  0.00  0.00    -0.001 A 
ATOM     24  C   UNL     1      -1.934   4.220  25.646  0.00  0.00    +0.029 A 
ENDBRANCH   6   5
ENDBRANCH   7   6
TORSDOF 3
ENDMDL
