MODEL 1
REMARK VINA RESULT:     -12.0      0.000      0.000
REMARK  Name = 
REMARK  5 active torsions:
REMARK  status: ('A' for Active; 'I' for Inactive)
REMARK    1  A    between atoms: N_7  and  C_10
REMARK    2  A    between atoms: C_12  and  C_16
REMARK    3  A    between atoms: C_19  and  C_21
REMARK    4  A    between atoms: N_25  and  C_26
REMARK    5  A    between atoms: C_26  and  C_27
REMARK                            x       y       z     vdW  Elec       q    Type
REMARK                         _______ _______ _______ _____ _____    ______ ____
ROOT
ATOM     16  C   UNL     1      -4.014   2.831  24.666  0.00  0.00    +0.203 A 
ATOM     17  N   UNL     1      -4.154   3.405  24.091  0.00  0.00    -0.056 NA
ATOM     18  O   UNL     1      -3.522   3.935  24.102  0.00  0.00    -0.336 OA
ATOM     19  C   UNL     1      -2.992   3.688  24.684  0.00  0.00    +0.251 A 
ATOM     20  N   UNL     1      -3.296   3.006  25.033  0.00  0.00    -0.190 NA
ENDROOT
BRANCH  16  12
ATOM     10  C   UNL     1      -4.713   0.784  24.964  0.00  0.00    +0.132 A 
ATOM     11  C   UNL     1      -4.220   1.421  24.786  0.00  0.00    +0.037 A 
ATOM     12  C   UNL     1      -4.507   2.193  24.844  0.00  0.00    +0.043 A 
ATOM     13  C   UNL     1      -5.286   2.326  25.080  0.00  0.00    +0.024 A 
ATOM     14  C   UNL     1      -5.779   1.689  25.258  0.00  0.00    +0.100 A 
ATOM     15  N   UNL     1      -5.491   0.917  25.200  0.00  0.00    -0.229 NA
BRANCH  10   7
ATOM      1  C   UNL     1      -3.675  -2.731  24.033  0.00  0.00    +0.095 C 
ATOM      2  C   UNL     1      -3.564  -2.301  24.728  0.00  0.00    +0.226 C 
ATOM      3  O   UNL     1      -3.165  -2.642  25.366  0.00  0.00    -0.275 OA
ATOM      4  N   UNL     1      -3.850  -1.530  24.788  0.00  0.00    -0.276 N 
ATOM      5  C   UNL     1      -3.739  -1.100  25.483  0.00  0.00    +0.115 C 
ATOM      6  C   UNL     1      -4.027  -0.329  25.542  0.00  0.00    +0.114 C 
ATOM      7  N   UNL     1      -4.425   0.012  24.906  0.00  0.00    -0.290 N 
ATOM      8  C   UNL     1      -4.536  -0.417  24.210  0.00  0.00    +0.114 C 
ATOM      9  C   UNL     1      -4.249  -1.188  24.151  0.00  0.00    +0.115 C 
ENDBRANCH  10   7
ENDBRANCH  16  12
BRANCH  19  21
ATOM     21  C   UNL     1      -2.282   4.059  24.882  0.00  0.00    +0.138 C 
ATOM     22  C   UNL     1      -2.203   4.806  25.221  0.00  0.00    +0.027 C 
ATOM     23  C   UNL     1      -1.399   4.957  25.324  0.00  0.00    +0.019 C 
ATOM     24  C   UNL     1      -0.980   4.302  25.048  0.00  0.00    +0.073 C 
ATOM     25  N   UNL     1      -1.525   3.747  24.775  0.00  0.00    -0.262 NA
BRANCH  25  26
ATOM     26  C   UNL     1      -1.346   3.009  24.451  0.00  0.00    +0.106 C 
BRANCH  26  27
ATOM     27  C   UNL     1      -0.637   2.635  24.644  0.00  0.00    +0.023 A 
ATOM     28  C   UNL     1      -0.426   2.352  25.390  0.00  0.00    +0.004 A 
ATOM     29  C   UNL     1       0.328   2.021  25.333  0.00  0.00    +0.007 A 
ATOM     30  C   UNL     1       0.582   2.099  24.552  0.00  0.00    +0.035 A 
ATOM     31  S   UNL     1      -0.014   2.479  24.127  0.00  0.00    -0.089 S 
ENDBRANCH  26  27
ENDBRANCH  25  26
ENDBRANCH  19  21
TORSDOF 5
ENDMDL
MODEL 2
REMARK VINA RESULT:     -11.8      1.567      4.862
REMARK  Name = 
REMARK  5 active torsions:
REMARK  status: ('A' for Active; 'I' for Inactive)
REMARK    1  A    between atoms: N_7  and  C_10
REMARK    2  A    between atoms: C_12  and  C_16
REMARK    3  A    between atoms: C_19  and  C_21
REMARK    4  A    between atoms: N_25  and  C_26
REMARK    5  A    between atoms: C_26  and  C_27
REMARK                            x       y       z     vdW  Elec       q    Type
REMARK                         _______ _______ _______ _____ _____    ______ ____
ROOT
ATOM     16  C   UNL     1      -4.301   0.546  25.091  0.00  0.00    +0.203 A 
ATOM     17  N   UNL     1      -4.574   0.133  25.750  0.00  0.00    -0.056 NA
ATOM     18  O   UNL     1      -4.327  -0.650  25.681  0.00  0.00    -0.336 OA
ATOM     19  C   UNL     1      -3.900  -0.722  24.978  0.00  0.00    +0.251 A 
ATOM     20  N   UNL     1      -3.884   0.017  24.614  0.00  0.00    -0.190 NA
ENDROOT
BRANCH  16  12
ATOM     10  C   UNL     1      -3.915   2.679  24.834  0.00  0.00    +0.132 A 
ATOM     11  C   UNL     1      -3.793   1.878  24.989  0.00  0.00    +0.037 A 
ATOM     12  C   UNL     1      -4.422   1.347  24.936  0.00  0.00    +0.043 A 
ATOM     13  C   UNL     1      -5.174   1.618  24.727  0.00  0.00    +0.024 A 
ATOM     14  C   UNL     1      -5.296   2.419  24.572  0.00  0.00    +0.100 A 
ATOM     15  N   UNL     1      -4.666   2.949  24.626  0.00  0.00    -0.229 NA
BRANCH  10   7
ATOM      1  C   UNL     1      -0.653   4.589  24.750  0.00  0.00    +0.095 C 
ATOM      2  C   UNL     1      -1.394   4.798  25.046  0.00  0.00    +0.226 C 
ATOM      3  O   UNL     1      -1.505   5.538  25.396  0.00  0.00    -0.275 OA
ATOM      4  N   UNL     1      -2.025   4.269  24.994  0.00  0.00    -0.276 N 
ATOM      5  C   UNL     1      -2.766   4.479  25.290  0.00  0.00    +0.115 C 
ATOM      6  C   UNL     1      -3.396   3.948  25.237  0.00  0.00    +0.114 C 
ATOM      7  N   UNL     1      -3.285   3.210  24.887  0.00  0.00    -0.290 N 
ATOM      8  C   UNL     1      -2.544   3.000  24.591  0.00  0.00    +0.114 C 
ATOM      9  C   UNL     1      -1.914   3.530  24.644  0.00  0.00    +0.115 C 
ENDBRANCH  10   7
ENDBRANCH  16  12
BRANCH  19  21
ATOM     21  C   UNL     1      -3.551  -1.412  24.691  0.00  0.00    +0.138 C 
ATOM     22  C   UNL     1      -3.928  -2.001  24.255  0.00  0.00    +0.027 C 
ATOM     23  C   UNL     1      -3.374  -2.587  24.084  0.00  0.00    +0.019 C 
ATOM     24  C   UNL     1      -2.652  -2.360  24.415  0.00  0.00    +0.073 C 
ATOM     25  N   UNL     1      -2.762  -1.634  24.790  0.00  0.00    -0.262 NA
BRANCH  25  26
ATOM     26  C   UNL     1      -2.184  -1.204  25.193  0.00  0.00    +0.106 C 
BRANCH  26  27
ATOM     27  C   UNL     1      -1.386  -1.343  25.041  0.00  0.00    +0.023 A 
ATOM     28  C   UNL     1      -0.920  -1.927  25.393  0.00  0.00    +0.004 A 
ATOM     29  C   UNL     1      -0.159  -1.868  25.079  0.00  0.00    +0.007 A 
ATOM     30  C   UNL     1      -0.155  -1.248  24.535  0.00  0.00    +0.035 A 
ATOM     31  S   UNL     1      -0.912  -0.924  24.511  0.00  0.00    -0.089 S 
ENDBRANCH  26  27
ENDBRANCH  25  26
ENDBRANCH  19  21
TORSDOF 5
ENDMDL
MODEL 3
REMARK VINA RESULT:     -11.6      1.911      3.397
REMARK  Name = 
REMARK  5 active torsions:
REMARK  status: ('A' for Active; 'I' for Inactive)
REMARK    1  A    between atoms: N_7  and  C_10
REMARK    2  A    between atoms: C_12  and  C_16
REMARK    3  A    between atoms: C_19  and  C_21
REMARK    4  A    between atoms: N_25  and  C_26
REMARK    5  A    between atoms: C_26  and  C_27
REMARK                            x       y       z     vdW  Elec       q    Type
REMARK                         _______ _______ _______ _____ _____    ______ ____
ROOT
ATOM     16  C   UNL     1      -0.463   1.817  25.020  0.00  0.00    +0.203 A 
ATOM     17  N   UNL     1      -0.132   2.023  25.747  0.00  0.00    -0.056 NA
ATOM     18  O   UNL     1      -0.362   2.795  25.922  0.00  0.00    -0.336 OA
ATOM     19  C   UNL     1      -0.836   3.067  25.303  0.00  0.00    +0.251 A 
ATOM     20  N   UNL     1      -0.898   2.463  24.745  0.00  0.00    -0.190 NA
ENDROOT
BRANCH  16  12
ATOM     10  C   UNL     1      -0.871  -0.208  24.316  0.00  0.00    +0.132 A 
ATOM     11  C   UNL     1      -0.959   0.516  24.701  0.00  0.00    +0.037 A 
ATOM     12  C   UNL     1      -0.374   1.093  24.634  0.00  0.00    +0.043 A 
ATOM     13  C   UNL     1       0.300   0.946  24.181  0.00  0.00    +0.024 A 
ATOM     14  C   UNL     1       0.388   0.222  23.796  0.00  0.00    +0.100 A 
ATOM     15  N   UNL     1      -0.197  -0.355  23.863  0.00  0.00    -0.229 NA
BRANCH  10   7
ATOM      1  C   UNL     1      -3.993  -2.340  24.369  0.00  0.00    +0.095 C 
ATOM      2  C   UNL     1      -3.216  -2.515  24.586  0.00  0.00    +0.226 C 
ATOM      3  O   UNL     1      -3.025  -3.266  24.870  0.00  0.00    -0.275 OA
ATOM      4  N   UNL     1      -2.629  -1.939  24.518  0.00  0.00    -0.276 N 
ATOM      5  C   UNL     1      -1.853  -2.113  24.735  0.00  0.00    +0.115 C 
ATOM      6  C   UNL     1      -1.267  -1.536  24.667  0.00  0.00    +0.114 C 
ATOM      7  N   UNL     1      -1.457  -0.785  24.383  0.00  0.00    -0.290 N 
ATOM      8  C   UNL     1      -2.234  -0.611  24.167  0.00  0.00    +0.114 C 
ATOM      9  C   UNL     1      -2.820  -1.187  24.234  0.00  0.00    +0.115 C 
ENDBRANCH  10   7
ENDBRANCH  16  12
BRANCH  19  21
ATOM     21  C   UNL     1      -1.186   3.813  25.251  0.00  0.00    +0.138 C 
ATOM     22  C   UNL     1      -0.805   4.513  25.042  0.00  0.00    +0.027 C 
ATOM     23  C   UNL     1      -1.361   5.122  25.062  0.00  0.00    +0.019 C 
ATOM     24  C   UNL     1      -2.087   4.797  25.283  0.00  0.00    +0.073 C 
ATOM     25  N   UNL     1      -1.978   3.988  25.400  0.00  0.00    -0.262 NA
BRANCH  25  26
ATOM     26  C   UNL     1      -2.560   3.448  25.627  0.00  0.00    +0.106 C 
BRANCH  26  27
ATOM     27  C   UNL     1      -3.348   3.583  25.426  0.00  0.00    +0.023 A 
ATOM     28  C   UNL     1      -3.680   3.487  24.676  0.00  0.00    +0.004 A 
ATOM     29  C   UNL     1      -4.481   3.682  24.725  0.00  0.00    +0.007 A 
ATOM     30  C   UNL     1      -4.643   3.898  25.505  0.00  0.00    +0.035 A 
ATOM     31  S   UNL     1      -3.944   3.836  25.937  0.00  0.00    -0.089 S 
ENDBRANCH  26  27
ENDBRANCH  25  26
ENDBRANCH  19  21
TORSDOF 5
ENDMDL
MODEL 4
REMARK VINA RESULT:     -11.4      2.166      4.440
REMARK  Name = 
REMARK  5 active torsions:
REMARK  status: ('A' for Active; 'I' for Inactive)
REMARK    1  A    between atoms: N_7  and  C_10
REMARK    2  A    between atoms: C_12  and  C_16
REMARK    3  A    between atoms: C_19  and  C_21
REMARK    4  A    between atoms: N_25  and  C_26
REMARK    5  A    between atoms: C_26  and  C_27
REMARK                            x       y       z     vdW  Elec       q    Type
REMARK                         _______ _______ _______ _____ _____    ______ ____
ROOT
ATOM     16  C   UNL     1      -0.566   2.609  24.910  0.00  0.00    +0.203 A 
ATOM     17  N   UNL     1       0.145   2.530  25.322  0.00  0.00    -0.056 NA
ATOM     18  O   UNL     1       0.528   1.856  25.043  0.00  0.00    -0.336 OA
ATOM     19  C   UNL     1       0.054   1.517  24.458  0.00  0.00    +0.251 A 
ATOM     20  N   UNL     1      -0.622   1.982  24.376  0.00  0.00    -0.190 NA
ENDROOT
BRANCH  16  12
ATOM     10  C   UNL     1      -2.478   3.619  25.207  0.00  0.00    +0.132 A 
ATOM     11  C   UNL     1      -1.921   3.020  25.103  0.00  0.00    +0.037 A 
ATOM     12  C   UNL     1      -1.123   3.208  25.014  0.00  0.00    +0.043 A 
ATOM     13  C   UNL     1      -0.882   3.998  25.029  0.00  0.00    +0.024 A 
ATOM     14  C   UNL     1      -1.439   4.598  25.133  0.00  0.00    +0.100 A 
ATOM     15  N   UNL     1      -2.237   4.407  25.222  0.00  0.00    -0.229 NA
BRANCH  10   7
ATOM      1  C   UNL     1      -6.026   2.325  25.042  0.00  0.00    +0.095 C 
ATOM      2  C   UNL     1      -5.669   2.857  25.561  0.00  0.00    +0.226 C 
ATOM      3  O   UNL     1      -6.111   3.200  26.170  0.00  0.00    -0.275 OA
ATOM      4  N   UNL     1      -4.872   3.048  25.473  0.00  0.00    -0.276 N 
ATOM      5  C   UNL     1      -4.515   3.581  25.993  0.00  0.00    +0.115 C 
ATOM      6  C   UNL     1      -3.717   3.771  25.903  0.00  0.00    +0.114 C 
ATOM      7  N   UNL     1      -3.276   3.429  25.296  0.00  0.00    -0.290 N 
ATOM      8  C   UNL     1      -3.633   2.896  24.777  0.00  0.00    +0.114 C 
ATOM      9  C   UNL     1      -4.431   2.706  24.865  0.00  0.00    +0.115 C 
ENDBRANCH  10   7
ENDBRANCH  16  12
BRANCH  19  21
ATOM     21  C   UNL     1       0.227   0.832  24.031  0.00  0.00    +0.138 C 
ATOM     22  C   UNL     1       0.717   0.784  23.370  0.00  0.00    +0.027 C 
ATOM     23  C   UNL     1       0.732  -0.001  23.120  0.00  0.00    +0.019 C 
ATOM     24  C   UNL     1       0.251  -0.440  23.627  0.00  0.00    +0.073 C 
ATOM     25  N   UNL     1      -0.061   0.076  24.190  0.00  0.00    -0.262 NA
BRANCH  25  26
ATOM     26  C   UNL     1      -0.573  -0.129  24.805  0.00  0.00    +0.106 C 
BRANCH  26  27
ATOM     27  C   UNL     1      -0.935  -0.870  24.809  0.00  0.00    +0.023 A 
ATOM     28  C   UNL     1      -1.672  -1.051  24.483  0.00  0.00    +0.004 A 
ATOM     29  C   UNL     1      -1.817  -1.853  24.613  0.00  0.00    +0.007 A 
ATOM     30  C   UNL     1      -1.172  -2.166  25.020  0.00  0.00    +0.035 A 
ATOM     31  S   UNL     1      -0.627  -1.559  25.141  0.00  0.00    -0.089 S 
ENDBRANCH  26  27
ENDBRANCH  25  26
ENDBRANCH  19  21
TORSDOF 5
ENDMDL
MODEL 5
REMARK VINA RESULT:      -9.9      2.257      4.227
REMARK  Name = 
REMARK  5 active torsions:
REMARK  status: ('A' for Active; 'I' for Inactive)
REMARK    1  A    between atoms: N_7  and  C_10
REMARK    2  A    between atoms: C_12  and  C_16
REMARK    3  A    between atoms: C_19  and  C_21
REMARK    4  A    between atoms: N_25  and  C_26
REMARK    5  A    between atoms: C_26  and  C_27
REMARK                            x       y       z     vdW  Elec       q    Type
REMARK                         _______ _______ _______ _____ _____    ______ ____
ROOT
ATOM     16  C   UNL     1      -3.672  -0.214  24.798  0.00  0.00    +0.203 A 
ATOM     17  N   UNL     1      -4.314  -0.414  24.321  0.00  0.00    -0.056 NA
ATOM     18  O   UNL     1      -4.894   0.163  24.418  0.00  0.00    -0.336 OA
ATOM     19  C   UNL     1      -4.612   0.720  24.957  0.00  0.00    +0.251 A 
ATOM     20  N   UNL     1      -3.857   0.488  25.192  0.00  0.00    -0.190 NA
ENDROOT
BRANCH  16  12
ATOM     10  C   UNL     1      -1.568  -0.768  24.619  0.00  0.00    +0.132 A 
ATOM     11  C   UNL     1      -2.271  -0.343  24.547  0.00  0.00    +0.037 A 
ATOM     12  C   UNL     1      -2.969  -0.640  24.871  0.00  0.00    +0.043 A 
ATOM     13  C   UNL     1      -2.964  -1.364  25.267  0.00  0.00    +0.024 A 
ATOM     14  C   UNL     1      -2.261  -1.790  25.339  0.00  0.00    +0.100 A 
ATOM     15  N   UNL     1      -1.563  -1.491  25.015  0.00  0.00    -0.229 NA
BRANCH  10   7
ATOM      1  C   UNL     1       1.666  -0.040  22.801  0.00  0.00    +0.095 C 
ATOM      2  C   UNL     1       1.222   0.423  23.321  0.00  0.00    +0.226 C 
ATOM      3  O   UNL     1       1.476   1.184  23.516  0.00  0.00    -0.275 OA
ATOM      4  N   UNL     1       0.524   0.126  23.646  0.00  0.00    -0.276 N 
ATOM      5  C   UNL     1       0.081   0.588  24.165  0.00  0.00    +0.115 C 
ATOM      6  C   UNL     1      -0.617   0.290  24.489  0.00  0.00    +0.114 C 
ATOM      7  N   UNL     1      -0.871  -0.470  24.295  0.00  0.00    -0.290 N 
ATOM      8  C   UNL     1      -0.427  -0.932  23.775  0.00  0.00    +0.114 C 
ATOM      9  C   UNL     1       0.270  -0.635  23.450  0.00  0.00    +0.115 C 
ENDBRANCH  10   7
ENDBRANCH  16  12
BRANCH  19  21
ATOM     21  C   UNL     1      -5.015   1.393  25.215  0.00  0.00    +0.138 C 
ATOM     22  C   UNL     1      -5.725   1.401  25.634  0.00  0.00    +0.027 C 
ATOM     23  C   UNL     1      -5.928   2.187  25.777  0.00  0.00    +0.019 C 
ATOM     24  C   UNL     1      -5.342   2.666  25.447  0.00  0.00    +0.073 C 
ATOM     25  N   UNL     1      -4.778   2.174  25.099  0.00  0.00    -0.262 NA
BRANCH  25  26
ATOM     26  C   UNL     1      -4.096   2.421  24.705  0.00  0.00    +0.106 C 
BRANCH  26  27
ATOM     27  C   UNL     1      -3.771   3.161  24.867  0.00  0.00    +0.023 A 
ATOM     28  C   UNL     1      -3.280   3.345  25.505  0.00  0.00    +0.004 A 
ATOM     29  C   UNL     1      -3.085   4.146  25.452  0.00  0.00    +0.007 A 
ATOM     30  C   UNL     1      -3.456   4.455  24.784  0.00  0.00    +0.035 A 
ATOM     31  S   UNL     1      -3.879   3.847  24.422  0.00  0.00    -0.089 S 
ENDBRANCH  26  27
ENDBRANCH  25  26
ENDBRANCH  19  21
TORSDOF 5
ENDMDL
MODEL 6
REMARK VINA RESULT:      -9.8      2.914      4.969
REMARK  Name = 
REMARK  5 active torsions:
REMARK  status: ('A' for Active; 'I' for Inactive)
REMARK    1  A    between atoms: N_7  and  C_10
REMARK    2  A    between atoms: C_12  and  C_16
REMARK    3  A    between atoms: C_19  and  C_21
REMARK    4  A    between atoms: N_25  and  C_26
REMARK    5  A    between atoms: C_26  and  C_27
REMARK                            x       y       z     vdW  Elec       q    Type
REMARK                         _______ _______ _______ _____ _____    ______ ____
ROOT
ATOM     16  C   UNL     1      -1.565   1.587  24.156  0.00  0.00    +0.203 A 
ATOM     17  N   UNL     1      -1.833   2.033  23.516  0.00  0.00    -0.056 NA
ATOM     18  O   UNL     1      -2.282   2.658  23.811  0.00  0.00    -0.336 OA
ATOM     19  C   UNL     1      -2.292   2.599  24.634  0.00  0.00    +0.251 A 
ATOM     20  N   UNL     1      -1.849   1.937  24.847  0.00  0.00    -0.190 NA
ENDROOT
BRANCH  16  12
ATOM     10  C   UNL     1       0.123   0.270  23.725  0.00  0.00    +0.132 A 
ATOM     11  C   UNL     1      -0.347   0.947  23.768  0.00  0.00    +0.037 A 
ATOM     12  C   UNL     1      -1.095   0.910  24.113  0.00  0.00    +0.043 A 
ATOM     13  C   UNL     1      -1.374   0.194  24.415  0.00  0.00    +0.024 A 
ATOM     14  C   UNL     1      -0.905  -0.483  24.372  0.00  0.00    +0.100 A 
ATOM     15  N   UNL     1      -0.156  -0.444  24.027  0.00  0.00    -0.229 NA
BRANCH  10   7
ATOM      1  C   UNL     1       3.705   0.893  22.691  0.00  0.00    +0.095 C 
ATOM      2  C   UNL     1       3.117   0.427  22.347  0.00  0.00    +0.226 C 
ATOM      3  O   UNL     1       3.278   0.001  21.659  0.00  0.00    -0.275 OA
ATOM      4  N   UNL     1       2.368   0.388  22.691  0.00  0.00    -0.276 N 
ATOM      5  C   UNL     1       1.780  -0.078  22.348  0.00  0.00    +0.115 C 
ATOM      6  C   UNL     1       1.032  -0.117  22.693  0.00  0.00    +0.114 C 
ATOM      7  N   UNL     1       0.871   0.309  23.380  0.00  0.00    -0.290 N 
ATOM      8  C   UNL     1       1.459   0.775  23.724  0.00  0.00    +0.114 C 
ATOM      9  C   UNL     1       2.208   0.814  23.380  0.00  0.00    +0.115 C 
ENDBRANCH  10   7
ENDBRANCH  16  12
BRANCH  19  21
ATOM     21  C   UNL     1      -2.678   3.112  25.152  0.00  0.00    +0.138 C 
ATOM     22  C   UNL     1      -2.315   3.641  25.670  0.00  0.00    +0.027 C 
ATOM     23  C   UNL     1      -2.907   4.042  26.081  0.00  0.00    +0.019 C 
ATOM     24  C   UNL     1      -3.637   3.760  25.817  0.00  0.00    +0.073 C 
ATOM     25  N   UNL     1      -3.495   3.186  25.243  0.00  0.00    -0.262 NA
BRANCH  25  26
ATOM     26  C   UNL     1      -4.069   2.759  24.831  0.00  0.00    +0.106 C 
BRANCH  26  27
ATOM     27  C   UNL     1      -4.797   2.601  25.185  0.00  0.00    +0.023 A 
ATOM     28  C   UNL     1      -5.075   1.856  25.410  0.00  0.00    +0.004 A 
ATOM     29  C   UNL     1      -5.825   1.955  25.740  0.00  0.00    +0.007 A 
ATOM     30  C   UNL     1      -6.010   2.758  25.718  0.00  0.00    +0.035 A 
ATOM     31  S   UNL     1      -5.375   3.157  25.376  0.00  0.00    -0.089 S 
ENDBRANCH  26  27
ENDBRANCH  25  26
ENDBRANCH  19  21
TORSDOF 5
ENDMDL
