MODEL 1
REMARK VINA RESULT:      -9.7      0.000      0.000
REMARK  Name = 
REMARK  6 active torsions:
REMARK  status: ('A' for Active; 'I' for Inactive)
REMARK    1  A    between atoms: C_2  and  C_4
REMARK    2  A    between atoms: C_7  and  N_8
REMARK    3  A    between atoms: C_9  and  O_11
REMARK    4  A    between atoms: O_11  and  C_12
REMARK    5  A    between atoms: C_16  and  N_20
REMARK    6  A    between atoms: C_21  and  C_23
REMARK                            x       y       z     vdW  Elec       q    Type
REMARK                         _______ _______ _______ _____ _____    ______ ____
ROOT
ATOM     12  C   UNL     1      -0.720   0.821  23.561  0.00  0.00    +0.229 C 
ATOM     13  C   UNL     1      -0.383   1.292  24.148  0.00  0.00    +0.188 C 
ATOM     14  O   UNL     1       0.432   1.163  24.141  0.00  0.00    -0.348 OA
ATOM     15  C   UNL     1       0.599   0.613  23.551  0.00  0.00    +0.168 C 
ATOM     16  C   UNL     1       1.205   0.193  23.181  0.00  0.00    +0.155 C 
ATOM     17  C   UNL     1       0.868  -0.279  22.593  0.00  0.00    +0.166 C 
ATOM     18  O   UNL     1       0.053  -0.150  22.600  0.00  0.00    -0.348 OA
ATOM     19  C   UNL     1      -0.113   0.401  23.192  0.00  0.00    +0.186 C 
ENDROOT
BRANCH  16  20
ATOM     20  N   UNL     1       2.008   0.237  23.366  0.00  0.00    -0.198 NA
ATOM     21  C   UNL     1       2.574   0.129  22.776  0.00  0.00    +0.265 C 
ATOM     22  O   UNL     1       2.338  -0.023  22.000  0.00  0.00    -0.268 OA
BRANCH  21  23
ATOM     23  C   UNL     1       3.377   0.173  22.961  0.00  0.00    +0.055 A 
ATOM     24  C   UNL     1       3.804   0.856  22.786  0.00  0.00    +0.004 A 
ATOM     25  C   UNL     1       4.607   0.901  22.971  0.00  0.00    -0.004 A 
ATOM     26  C   UNL     1       4.982   0.260  23.332  0.00  0.00    -0.022 A 
ATOM     27  C   UNL     1       5.785   0.304  23.517  0.00  0.00    +0.031 C 
ATOM     28  C   UNL     1       4.555  -0.423  23.507  0.00  0.00    -0.004 A 
ATOM     29  C   UNL     1       3.752  -0.468  23.322  0.00  0.00    +0.004 A 
ENDBRANCH  21  23
ENDBRANCH  16  20
BRANCH  12  11
ATOM     11  O   UNL     1      -1.523   0.777  23.375  0.00  0.00    -0.432 OA
BRANCH  11   9
ATOM      8  N   UNL     1      -2.788   1.421  23.536  0.00  0.00    -0.142 NA
ATOM      9  C   UNL     1      -2.079   1.150  23.857  0.00  0.00    +0.425 C 
ATOM     10  O   UNL     1      -1.924   1.252  24.662  0.00  0.00    -0.224 OA
BRANCH   8   7
ATOM      4  C   UNL     1      -4.456   2.541  24.982  0.00  0.00    -0.022 A 
ATOM      5  C   UNL     1      -3.923   2.991  24.541  0.00  0.00    -0.003 A 
ATOM      6  C   UNL     1      -3.368   2.618  24.059  0.00  0.00    +0.016 A 
ATOM      7  C   UNL     1      -3.344   1.794  24.018  0.00  0.00    +0.077 A 
ATOM     30  C   UNL     1      -3.876   1.344  24.459  0.00  0.00    +0.016 A 
ATOM     31  C   UNL     1      -4.432   1.717  24.941  0.00  0.00    -0.003 A 
BRANCH   4   2
ATOM      1  C   UNL     1      -4.956   3.726  25.604  0.00  0.00    +0.005 C 
ATOM      2  C   UNL     1      -5.011   2.915  25.464  0.00  0.00    +0.022 C 
ATOM      3  C   UNL     1      -5.622   2.478  25.805  0.00  0.00    +0.005 C 
ENDBRANCH   4   2
ENDBRANCH   8   7
ENDBRANCH  11   9
ENDBRANCH  12  11
TORSDOF 6
ENDMDL
MODEL 2
REMARK VINA RESULT:      -8.6      0.778      7.104
REMARK  Name = 
REMARK  6 active torsions:
REMARK  status: ('A' for Active; 'I' for Inactive)
REMARK    1  A    between atoms: C_2  and  C_4
REMARK    2  A    between atoms: C_7  and  N_8
REMARK    3  A    between atoms: C_9  and  O_11
REMARK    4  A    between atoms: O_11  and  C_12
REMARK    5  A    between atoms: C_16  and  N_20
REMARK    6  A    between atoms: C_21  and  C_23
REMARK                            x       y       z     vdW  Elec       q    Type
REMARK                         _______ _______ _______ _____ _____    ______ ____
ROOT
ATOM     12  C   UNL     1      -0.213   0.487  23.329  0.00  0.00    +0.229 C 
ATOM     13  C   UNL     1      -0.271   0.212  24.104  0.00  0.00    +0.188 C 
ATOM     14  O   UNL     1      -0.956   0.530  24.436  0.00  0.00    -0.348 OA
ATOM     15  C   UNL     1      -1.322   1.000  23.867  0.00  0.00    +0.168 C 
ATOM     16  C   UNL     1      -1.971   1.488  23.719  0.00  0.00    +0.155 C 
ATOM     17  C   UNL     1      -1.913   1.763  22.944  0.00  0.00    +0.166 C 
ATOM     18  O   UNL     1      -1.228   1.445  22.612  0.00  0.00    -0.348 OA
ATOM     19  C   UNL     1      -0.863   0.974  23.182  0.00  0.00    +0.186 C 
ENDROOT
BRANCH  16  20
ATOM     20  N   UNL     1      -2.573   1.668  24.254  0.00  0.00    -0.198 NA
ATOM     21  C   UNL     1      -3.291   1.968  23.981  0.00  0.00    +0.265 C 
ATOM     22  O   UNL     1      -3.409   2.087  23.174  0.00  0.00    -0.268 OA
BRANCH  21  23
ATOM     23  C   UNL     1      -3.893   2.149  24.517  0.00  0.00    +0.055 A 
ATOM     24  C   UNL     1      -3.926   2.897  24.863  0.00  0.00    +0.004 A 
ATOM     25  C   UNL     1      -4.528   3.078  25.398  0.00  0.00    -0.004 A 
ATOM     26  C   UNL     1      -5.096   2.509  25.586  0.00  0.00    -0.022 A 
ATOM     27  C   UNL     1      -5.698   2.690  26.121  0.00  0.00    +0.031 C 
ATOM     28  C   UNL     1      -5.062   1.762  25.240  0.00  0.00    -0.004 A 
ATOM     29  C   UNL     1      -4.461   1.581  24.705  0.00  0.00    +0.004 A 
ENDBRANCH  21  23
ENDBRANCH  16  20
BRANCH  12  11
ATOM     11  O   UNL     1       0.388   0.307  22.794  0.00  0.00    -0.432 OA
BRANCH  11   9
ATOM      8  N   UNL     1       1.772   0.078  22.522  0.00  0.00    -0.142 NA
ATOM      9  C   UNL     1       1.176   0.315  23.040  0.00  0.00    +0.425 C 
ATOM     10  O   UNL     1       1.366   0.561  23.804  0.00  0.00    -0.224 OA
BRANCH   8   7
ATOM      4  C   UNL     1       4.135   0.103  23.260  0.00  0.00    -0.022 A 
ATOM      5  C   UNL     1       3.800   0.779  22.925  0.00  0.00    -0.003 A 
ATOM      6  C   UNL     1       3.012   0.770  22.680  0.00  0.00    +0.016 A 
ATOM      7  C   UNL     1       2.560   0.086  22.768  0.00  0.00    +0.077 A 
ATOM     30  C   UNL     1       2.895  -0.589  23.103  0.00  0.00    +0.016 A 
ATOM     31  C   UNL     1       3.683  -0.581  23.349  0.00  0.00    -0.003 A 
BRANCH   4   2
ATOM      1  C   UNL     1       5.361   0.810  23.458  0.00  0.00    +0.005 C 
ATOM      2  C   UNL     1       4.922   0.112  23.506  0.00  0.00    +0.022 C 
ATOM      3  C   UNL     1       5.271  -0.575  23.800  0.00  0.00    +0.005 C 
ENDBRANCH   4   2
ENDBRANCH   8   7
ENDBRANCH  11   9
ENDBRANCH  12  11
TORSDOF 6
ENDMDL
MODEL 3
REMARK VINA RESULT:      -6.8     14.958     17.142
REMARK  Name = 
REMARK  6 active torsions:
REMARK  status: ('A' for Active; 'I' for Inactive)
REMARK    1  A    between atoms: C_2  and  C_4
REMARK    2  A    between atoms: C_7  and  N_8
REMARK    3  A    between atoms: C_9  and  O_11
REMARK    4  A    between atoms: O_11  and  C_12
REMARK    5  A    between atoms: C_16  and  N_20
REMARK    6  A    between atoms: C_21  and  C_23
REMARK                            x       y       z     vdW  Elec       q    Type
REMARK                         _______ _______ _______ _____ _____    ______ ____
ROOT
ATOM     12  C   UNL     1      -5.875 -10.473  14.069  0.00  0.00    +0.229 C 
ATOM     13  C   UNL     1      -6.601 -10.693  13.746  0.00  0.00    +0.188 C 
ATOM     14  O   UNL     1      -7.186 -10.539  14.307  0.00  0.00    -0.348 OA
ATOM     15  C   UNL     1      -6.823 -10.224  14.976  0.00  0.00    +0.168 C 
ATOM     16  C   UNL     1      -6.958  -9.933  15.736  0.00  0.00    +0.155 C 
ATOM     17  C   UNL     1      -6.232  -9.713  16.059  0.00  0.00    +0.166 C 
ATOM     18  O   UNL     1      -5.647  -9.867  15.499  0.00  0.00    -0.348 OA
ATOM     19  C   UNL     1      -6.012 -10.183  14.829  0.00  0.00    +0.186 C 
ENDROOT
BRANCH  16  20
ATOM     20  N   UNL     1      -7.693  -9.874  16.108  0.00  0.00    -0.198 NA
ATOM     21  C   UNL     1      -7.782  -9.388  16.769  0.00  0.00    +0.265 C 
ATOM     22  O   UNL     1      -7.138  -8.962  17.058  0.00  0.00    -0.268 OA
BRANCH  21  23
ATOM     23  C   UNL     1      -8.517  -9.329  17.141  0.00  0.00    +0.055 A 
ATOM     24  C   UNL     1      -8.786  -9.942  17.622  0.00  0.00    +0.004 A 
ATOM     25  C   UNL     1      -9.520  -9.884  17.994  0.00  0.00    -0.004 A 
ATOM     26  C   UNL     1      -9.985  -9.210  17.884  0.00  0.00    -0.022 A 
ATOM     27  C   UNL     1     -10.719  -9.150  18.256  0.00  0.00    +0.031 C 
ATOM     28  C   UNL     1      -9.715  -8.598  17.402  0.00  0.00    -0.004 A 
ATOM     29  C   UNL     1      -8.981  -8.656  17.030  0.00  0.00    +0.004 A 
ENDBRANCH  21  23
ENDBRANCH  16  20
BRANCH  12  11
ATOM     11  O   UNL     1      -5.141 -10.532  13.698  0.00  0.00    -0.432 OA
BRANCH  11   9
ATOM      8  N   UNL     1      -4.466  -9.984  12.563  0.00  0.00    -0.142 NA
ATOM      9  C   UNL     1      -5.082 -10.431  12.881  0.00  0.00    +0.425 C 
ATOM     10  O   UNL     1      -5.641 -10.779  12.382  0.00  0.00    -0.224 OA
BRANCH   8   7
ATOM      4  C   UNL     1      -4.290  -9.683  10.113  0.00  0.00    -0.022 A 
ATOM      5  C   UNL     1      -3.912 -10.319  10.479  0.00  0.00    -0.003 A 
ATOM      6  C   UNL     1      -3.971 -10.419  11.295  0.00  0.00    +0.016 A 
ATOM      7  C   UNL     1      -4.408  -9.884  11.746  0.00  0.00    +0.077 A 
ATOM     30  C   UNL     1      -4.785  -9.248  11.381  0.00  0.00    +0.016 A 
ATOM     31  C   UNL     1      -4.726  -9.147  10.564  0.00  0.00    -0.003 A 
BRANCH   4   2
ATOM      1  C   UNL     1      -4.066  -8.837   8.983  0.00  0.00    +0.005 C 
ATOM      2  C   UNL     1      -4.231  -9.583   9.296  0.00  0.00    +0.022 C 
ATOM      3  C   UNL     1      -4.336 -10.228   8.792  0.00  0.00    +0.005 C 
ENDBRANCH   4   2
ENDBRANCH   8   7
ENDBRANCH  11   9
ENDBRANCH  12  11
TORSDOF 6
ENDMDL
MODEL 4
REMARK VINA RESULT:      -6.8     14.760     16.636
REMARK  Name = 
REMARK  6 active torsions:
REMARK  status: ('A' for Active; 'I' for Inactive)
REMARK    1  A    between atoms: C_2  and  C_4
REMARK    2  A    between atoms: C_7  and  N_8
REMARK    3  A    between atoms: C_9  and  O_11
REMARK    4  A    between atoms: O_11  and  C_12
REMARK    5  A    between atoms: C_16  and  N_20
REMARK    6  A    between atoms: C_21  and  C_23
REMARK                            x       y       z     vdW  Elec       q    Type
REMARK                         _______ _______ _______ _____ _____    ______ ____
ROOT
ATOM     12  C   UNL     1      -4.445 -10.670  13.889  0.00  0.00    +0.229 C 
ATOM     13  C   UNL     1      -5.262 -10.760  13.828  0.00  0.00    +0.188 C 
ATOM     14  O   UNL     1      -5.574 -10.781  14.591  0.00  0.00    -0.348 OA
ATOM     15  C   UNL     1      -4.950 -10.704  15.124  0.00  0.00    +0.168 C 
ATOM     16  C   UNL     1      -4.756 -10.669  15.925  0.00  0.00    +0.155 C 
ATOM     17  C   UNL     1      -3.938 -10.579  15.986  0.00  0.00    +0.166 C 
ATOM     18  O   UNL     1      -3.627 -10.558  15.223  0.00  0.00    -0.348 OA
ATOM     19  C   UNL     1      -4.252 -10.635  14.690  0.00  0.00    +0.186 C 
ENDROOT
BRANCH  16  20
ATOM     20  N   UNL     1      -5.287 -10.716  16.555  0.00  0.00    -0.198 NA
ATOM     21  C   UNL     1      -5.079 -10.415  17.294  0.00  0.00    +0.265 C 
ATOM     22  O   UNL     1      -4.340 -10.066  17.404  0.00  0.00    -0.268 OA
BRANCH  21  23
ATOM     23  C   UNL     1      -5.610 -10.462  17.923  0.00  0.00    +0.055 A 
ATOM     24  C   UNL     1      -6.402 -10.261  17.811  0.00  0.00    +0.004 A 
ATOM     25  C   UNL     1      -6.934 -10.308  18.440  0.00  0.00    -0.004 A 
ATOM     26  C   UNL     1      -6.672 -10.557  19.182  0.00  0.00    -0.022 A 
ATOM     27  C   UNL     1      -7.204 -10.604  19.812  0.00  0.00    +0.031 C 
ATOM     28  C   UNL     1      -5.881 -10.758  19.294  0.00  0.00    -0.004 A 
ATOM     29  C   UNL     1      -5.349 -10.711  18.665  0.00  0.00    +0.004 A 
ENDBRANCH  21  23
ENDBRANCH  16  20
BRANCH  12  11
ATOM     11  O   UNL     1      -3.913 -10.622  13.259  0.00  0.00    -0.432 OA
BRANCH  11   9
ATOM      8  N   UNL     1      -3.697 -10.074  11.958  0.00  0.00    -0.142 NA
ATOM      9  C   UNL     1      -4.188 -10.456  12.499  0.00  0.00    +0.425 C 
ATOM     10  O   UNL     1      -4.954 -10.673  12.281  0.00  0.00    -0.224 OA
BRANCH   8   7
ATOM      4  C   UNL     1      -4.520  -9.574   9.677  0.00  0.00    -0.022 A 
ATOM      5  C   UNL     1      -4.280  -8.960  10.173  0.00  0.00    -0.003 A 
ATOM      6  C   UNL     1      -4.005  -9.127  10.933  0.00  0.00    +0.016 A 
ATOM      7  C   UNL     1      -3.972  -9.908  11.197  0.00  0.00    +0.077 A 
ATOM     30  C   UNL     1      -4.212 -10.521  10.702  0.00  0.00    +0.016 A 
ATOM     31  C   UNL     1      -4.487 -10.355   9.942  0.00  0.00    -0.003 A 
BRANCH   4   2
ATOM      1  C   UNL     1      -5.288  -8.757   8.791  0.00  0.00    +0.005 C 
ATOM      2  C   UNL     1      -4.795  -9.407   8.918  0.00  0.00    +0.022 C 
ATOM      3  C   UNL     1      -4.576  -9.888   8.284  0.00  0.00    +0.005 C 
ENDBRANCH   4   2
ENDBRANCH   8   7
ENDBRANCH  11   9
ENDBRANCH  12  11
TORSDOF 6
ENDMDL
MODEL 5
REMARK VINA RESULT:      -6.5     14.326     16.426
REMARK  Name = 
REMARK  6 active torsions:
REMARK  status: ('A' for Active; 'I' for Inactive)
REMARK    1  A    between atoms: C_2  and  C_4
REMARK    2  A    between atoms: C_7  and  N_8
REMARK    3  A    between atoms: C_9  and  O_11
REMARK    4  A    between atoms: O_11  and  C_12
REMARK    5  A    between atoms: C_16  and  N_20
REMARK    6  A    between atoms: C_21  and  C_23
REMARK                            x       y       z     vdW  Elec       q    Type
REMARK                         _______ _______ _______ _____ _____    ______ ____
ROOT
ATOM     12  C   UNL     1      -4.900 -10.521  14.784  0.00  0.00    +0.229 C 
ATOM     13  C   UNL     1      -5.521 -10.477  14.244  0.00  0.00    +0.188 C 
ATOM     14  O   UNL     1      -6.184 -10.191  14.642  0.00  0.00    -0.348 OA
ATOM     15  C   UNL     1      -5.974 -10.058  15.427  0.00  0.00    +0.168 C 
ATOM     16  C   UNL     1      -6.252  -9.799  16.160  0.00  0.00    +0.155 C 
ATOM     17  C   UNL     1      -5.630  -9.843  16.700  0.00  0.00    +0.166 C 
ATOM     18  O   UNL     1      -4.967 -10.129  16.302  0.00  0.00    -0.348 OA
ATOM     19  C   UNL     1      -5.179 -10.262  15.515  0.00  0.00    +0.186 C 
ENDROOT
BRANCH  16  20
ATOM     20  N   UNL     1      -7.019  -9.541  16.322  0.00  0.00    -0.198 NA
ATOM     21  C   UNL     1      -7.331  -9.629  17.081  0.00  0.00    +0.265 C 
ATOM     22  O   UNL     1      -6.878  -9.976  17.676  0.00  0.00    -0.268 OA
BRANCH  21  23
ATOM     23  C   UNL     1      -8.098  -9.371  17.244  0.00  0.00    +0.055 A 
ATOM     24  C   UNL     1      -8.347  -8.628  16.985  0.00  0.00    +0.004 A 
ATOM     25  C   UNL     1      -9.113  -8.369  17.148  0.00  0.00    -0.004 A 
ATOM     26  C   UNL     1      -9.631  -8.856  17.569  0.00  0.00    -0.022 A 
ATOM     27  C   UNL     1     -10.398  -8.597  17.732  0.00  0.00    +0.031 C 
ATOM     28  C   UNL     1      -9.382  -9.598  17.827  0.00  0.00    -0.004 A 
ATOM     29  C   UNL     1      -8.616  -9.857  17.665  0.00  0.00    +0.004 A 
ENDBRANCH  21  23
ENDBRANCH  16  20
BRANCH  12  11
ATOM     11  O   UNL     1      -4.133 -10.779  14.621  0.00  0.00    -0.432 OA
BRANCH  11   9
ATOM      8  N   UNL     1      -2.946 -10.708  13.829  0.00  0.00    -0.142 NA
ATOM      9  C   UNL     1      -3.718 -10.462  13.983  0.00  0.00    +0.425 C 
ATOM     10  O   UNL     1      -4.076  -9.899  13.497  0.00  0.00    -0.224 OA
BRANCH   8   7
ATOM      4  C   UNL     1      -1.699  -9.757  11.915  0.00  0.00    -0.022 A 
ATOM      5  C   UNL     1      -1.487  -9.555  12.686  0.00  0.00    -0.003 A 
ATOM      6  C   UNL     1      -1.903  -9.872  13.324  0.00  0.00    +0.016 A 
ATOM      7  C   UNL     1      -2.530 -10.391  13.191  0.00  0.00    +0.077 A 
ATOM     30  C   UNL     1      -2.741 -10.593  12.420  0.00  0.00    +0.016 A 
ATOM     31  C   UNL     1      -2.326 -10.276  11.781  0.00  0.00    -0.003 A 
BRANCH   4   2
ATOM      1  C   UNL     1      -1.690  -9.174  10.610  0.00  0.00    +0.005 C 
ATOM      2  C   UNL     1      -1.283  -9.439  11.277  0.00  0.00    +0.022 C 
ATOM      3  C   UNL     1      -0.460  -9.387  11.305  0.00  0.00    +0.005 C 
ENDBRANCH   4   2
ENDBRANCH   8   7
ENDBRANCH  11   9
ENDBRANCH  12  11
TORSDOF 6
ENDMDL
MODEL 6
REMARK VINA RESULT:      -6.3     15.122     16.867
REMARK  Name = 
REMARK  6 active torsions:
REMARK  status: ('A' for Active; 'I' for Inactive)
REMARK    1  A    between atoms: C_2  and  C_4
REMARK    2  A    between atoms: C_7  and  N_8
REMARK    3  A    between atoms: C_9  and  O_11
REMARK    4  A    between atoms: O_11  and  C_12
REMARK    5  A    between atoms: C_16  and  N_20
REMARK    6  A    between atoms: C_21  and  C_23
REMARK                            x       y       z     vdW  Elec       q    Type
REMARK                         _______ _______ _______ _____ _____    ______ ____
ROOT
ATOM     12  C   UNL     1      -7.090 -10.130  13.615  0.00  0.00    +0.229 C 
ATOM     13  C   UNL     1      -6.362 -10.483  13.773  0.00  0.00    +0.188 C 
ATOM     14  O   UNL     1      -6.308 -10.600  14.587  0.00  0.00    -0.348 OA
ATOM     15  C   UNL     1      -7.001 -10.319  14.933  0.00  0.00    +0.168 C 
ATOM     16  C   UNL     1      -7.398 -10.216  15.649  0.00  0.00    +0.155 C 
ATOM     17  C   UNL     1      -8.126  -9.863  15.491  0.00  0.00    +0.166 C 
ATOM     18  O   UNL     1      -8.180  -9.746  14.676  0.00  0.00    -0.348 OA
ATOM     19  C   UNL     1      -7.485 -10.028  14.331  0.00  0.00    +0.186 C 
ENDROOT
BRANCH  16  20
ATOM     20  N   UNL     1      -7.114 -10.431  16.394  0.00  0.00    -0.198 NA
ATOM     21  C   UNL     1      -7.219  -9.924  17.037  0.00  0.00    +0.265 C 
ATOM     22  O   UNL     1      -7.607  -9.203  16.935  0.00  0.00    -0.268 OA
BRANCH  21  23
ATOM     23  C   UNL     1      -6.936 -10.139  17.782  0.00  0.00    +0.055 A 
ATOM     24  C   UNL     1      -7.457 -10.418  18.357  0.00  0.00    +0.004 A 
ATOM     25  C   UNL     1      -7.175 -10.633  19.102  0.00  0.00    -0.004 A 
ATOM     26  C   UNL     1      -6.369 -10.567  19.271  0.00  0.00    -0.022 A 
ATOM     27  C   UNL     1      -6.086 -10.781  20.016  0.00  0.00    +0.031 C 
ATOM     28  C   UNL     1      -5.849 -10.287  18.696  0.00  0.00    -0.004 A 
ATOM     29  C   UNL     1      -6.131 -10.073  17.951  0.00  0.00    +0.004 A 
ENDBRANCH  21  23
ENDBRANCH  16  20
BRANCH  12  11
ATOM     11  O   UNL     1      -7.374  -9.915  12.870  0.00  0.00    -0.432 OA
BRANCH  11   9
ATOM      8  N   UNL     1      -6.640  -9.184  11.886  0.00  0.00    -0.142 NA
ATOM      9  C   UNL     1      -6.863  -9.903  12.222  0.00  0.00    +0.425 C 
ATOM     10  O   UNL     1      -6.576 -10.611  11.909  0.00  0.00    -0.224 OA
BRANCH   8   7
ATOM      4  C   UNL     1      -5.107  -9.145   9.943  0.00  0.00    -0.022 A 
ATOM      5  C   UNL     1      -4.802  -9.135  10.710  0.00  0.00    -0.003 A 
ATOM      6  C   UNL     1      -5.313  -9.148  11.357  0.00  0.00    +0.016 A 
ATOM      7  C   UNL     1      -6.129  -9.171  11.238  0.00  0.00    +0.077 A 
ATOM     30  C   UNL     1      -6.434  -9.181  10.472  0.00  0.00    +0.016 A 
ATOM     31  C   UNL     1      -5.923  -9.168   9.824  0.00  0.00    -0.003 A 
BRANCH   4   2
ATOM      1  C   UNL     1      -3.968  -8.597   9.277  0.00  0.00    +0.005 C 
ATOM      2  C   UNL     1      -4.596  -9.132   9.296  0.00  0.00    +0.022 C 
ATOM      3  C   UNL     1      -4.712  -9.654   8.667  0.00  0.00    +0.005 C 
ENDBRANCH   4   2
ENDBRANCH   8   7
ENDBRANCH  11   9
ENDBRANCH  12  11
TORSDOF 6
ENDMDL
MODEL 7
REMARK VINA RESULT:      -6.1     15.061     15.961
REMARK  Name = 
REMARK  6 active torsions:
REMARK  status: ('A' for Active; 'I' for Inactive)
REMARK    1  A    between atoms: C_2  and  C_4
REMARK    2  A    between atoms: C_7  and  N_8
REMARK    3  A    between atoms: C_9  and  O_11
REMARK    4  A    between atoms: O_11  and  C_12
REMARK    5  A    between atoms: C_16  and  N_20
REMARK    6  A    between atoms: C_21  and  C_23
REMARK                            x       y       z     vdW  Elec       q    Type
REMARK                         _______ _______ _______ _____ _____    ______ ____
ROOT
ATOM     12  C   UNL     1      -6.604 -10.377  13.993  0.00  0.00    +0.229 C 
ATOM     13  C   UNL     1      -6.080 -10.007  14.511  0.00  0.00    +0.188 C 
ATOM     14  O   UNL     1      -5.368  -9.887  14.112  0.00  0.00    -0.348 OA
ATOM     15  C   UNL     1      -5.452 -10.183  13.347  0.00  0.00    +0.168 C 
ATOM     16  C   UNL     1      -5.065 -10.292  12.626  0.00  0.00    +0.155 C 
ATOM     17  C   UNL     1      -5.589 -10.662  12.108  0.00  0.00    +0.166 C 
ATOM     18  O   UNL     1      -6.300 -10.781  12.507  0.00  0.00    -0.348 OA
ATOM     19  C   UNL     1      -6.216 -10.485  13.273  0.00  0.00    +0.186 C 
ENDROOT
BRANCH  16  20
ATOM     20  N   UNL     1      -4.289 -10.070  12.455  0.00  0.00    -0.198 NA
ATOM     21  C   UNL     1      -3.975 -10.211  11.705  0.00  0.00    +0.265 C 
ATOM     22  O   UNL     1      -4.437 -10.574  11.126  0.00  0.00    -0.268 OA
BRANCH  21  23
ATOM     23  C   UNL     1      -3.199  -9.989  11.534  0.00  0.00    +0.055 A 
ATOM     24  C   UNL     1      -2.578 -10.264  12.002  0.00  0.00    +0.004 A 
ATOM     25  C   UNL     1      -1.802 -10.043  11.832  0.00  0.00    -0.004 A 
ATOM     26  C   UNL     1      -1.648  -9.545  11.191  0.00  0.00    -0.022 A 
ATOM     27  C   UNL     1      -0.871  -9.323  11.020  0.00  0.00    +0.031 C 
ATOM     28  C   UNL     1      -2.268  -9.271  10.723  0.00  0.00    -0.004 A 
ATOM     29  C   UNL     1      -3.045  -9.492  10.894  0.00  0.00    +0.004 A 
ENDBRANCH  21  23
ENDBRANCH  16  20
BRANCH  12  11
ATOM     11  O   UNL     1      -7.380 -10.599  14.164  0.00  0.00    -0.432 OA
BRANCH  11   9
ATOM      8  N   UNL     1      -8.204 -10.461  15.323  0.00  0.00    -0.142 NA
ATOM      9  C   UNL     1      -7.844 -10.130  14.660  0.00  0.00    +0.425 C 
ATOM     10  O   UNL     1      -7.947  -9.328  14.491  0.00  0.00    -0.224 OA
BRANCH   8   7
ATOM      4  C   UNL     1      -9.596  -9.054  16.810  0.00  0.00    -0.022 A 
ATOM      5  C   UNL     1      -9.881  -9.280  16.069  0.00  0.00    -0.003 A 
ATOM      6  C   UNL     1      -9.417  -9.749  15.574  0.00  0.00    +0.016 A 
ATOM      7  C   UNL     1      -8.668  -9.992  15.819  0.00  0.00    +0.077 A 
ATOM     30  C   UNL     1      -8.383  -9.767  16.559  0.00  0.00    +0.016 A 
ATOM     31  C   UNL     1      -8.846  -9.298  17.055  0.00  0.00    -0.003 A 
BRANCH   4   2
ATOM      1  C   UNL     1     -10.133  -7.777  17.158  0.00  0.00    +0.005 C 
ATOM      2  C   UNL     1     -10.060  -8.586  17.305  0.00  0.00    +0.022 C 
ATOM      3  C   UNL     1     -10.451  -8.925  17.948  0.00  0.00    +0.005 C 
ENDBRANCH   4   2
ENDBRANCH   8   7
ENDBRANCH  11   9
ENDBRANCH  12  11
TORSDOF 6
ENDMDL
MODEL 8
REMARK VINA RESULT:      -5.8     15.622     16.405
REMARK  Name = 
REMARK  6 active torsions:
REMARK  status: ('A' for Active; 'I' for Inactive)
REMARK    1  A    between atoms: C_2  and  C_4
REMARK    2  A    between atoms: C_7  and  N_8
REMARK    3  A    between atoms: C_9  and  O_11
REMARK    4  A    between atoms: O_11  and  C_12
REMARK    5  A    between atoms: C_16  and  N_20
REMARK    6  A    between atoms: C_21  and  C_23
REMARK                            x       y       z     vdW  Elec       q    Type
REMARK                         _______ _______ _______ _____ _____    ______ ____
ROOT
ATOM     12  C   UNL     1      -7.783  -9.777  13.425  0.00  0.00    +0.229 C 
ATOM     13  C   UNL     1      -7.162  -9.937  13.942  0.00  0.00    +0.188 C 
ATOM     14  O   UNL     1      -6.455  -9.808  13.538  0.00  0.00    -0.348 OA
ATOM     15  C   UNL     1      -6.639  -9.567  12.772  0.00  0.00    +0.168 C 
ATOM     16  C   UNL     1      -6.317  -9.338  12.048  0.00  0.00    +0.155 C 
ATOM     17  C   UNL     1      -6.938  -9.178  11.530  0.00  0.00    +0.166 C 
ATOM     18  O   UNL     1      -7.645  -9.307  11.934  0.00  0.00    -0.348 OA
ATOM     19  C   UNL     1      -7.461  -9.548  12.702  0.00  0.00    +0.186 C 
ENDROOT
BRANCH  16  20
ATOM     20  N   UNL     1      -5.512  -9.280  11.872  0.00  0.00    -0.198 NA
ATOM     21  C   UNL     1      -5.228  -9.551  11.147  0.00  0.00    +0.265 C 
ATOM     22  O   UNL     1      -5.747  -9.881  10.597  0.00  0.00    -0.268 OA
BRANCH  21  23
ATOM     23  C   UNL     1      -4.423  -9.493  10.971  0.00  0.00    +0.055 A 
ATOM     24  C   UNL     1      -4.165  -8.970  10.388  0.00  0.00    +0.004 A 
ATOM     25  C   UNL     1      -3.361  -8.911  10.211  0.00  0.00    -0.004 A 
ATOM     26  C   UNL     1      -2.815  -9.377  10.620  0.00  0.00    -0.022 A 
ATOM     27  C   UNL     1      -2.011  -9.318  10.445  0.00  0.00    +0.031 C 
ATOM     28  C   UNL     1      -3.074  -9.899  11.203  0.00  0.00    -0.004 A 
ATOM     29  C   UNL     1      -3.878  -9.958  11.380  0.00  0.00    +0.004 A 
ENDBRANCH  21  23
ENDBRANCH  16  20
BRANCH  12  11
ATOM     11  O   UNL     1      -8.588  -9.835  13.601  0.00  0.00    -0.432 OA
BRANCH  11   9
ATOM      8  N   UNL     1      -9.364  -9.288  14.668  0.00  0.00    -0.142 NA
ATOM      9  C   UNL     1      -8.838  -9.857  14.386  0.00  0.00    +0.425 C 
ATOM     10  O   UNL     1      -8.562 -10.450  14.890  0.00  0.00    -0.224 OA
BRANCH   8   7
ATOM      4  C   UNL     1     -10.117  -9.355  17.025  0.00  0.00    -0.022 A 
ATOM      5  C   UNL     1     -10.487  -9.828  16.460  0.00  0.00    -0.003 A 
ATOM      6  C   UNL     1     -10.236  -9.806  15.675  0.00  0.00    +0.016 A 
ATOM      7  C   UNL     1      -9.615  -9.310  15.454  0.00  0.00    +0.077 A 
ATOM     30  C   UNL     1      -9.245  -8.837  16.019  0.00  0.00    +0.016 A 
ATOM     31  C   UNL     1      -9.495  -8.859  16.805  0.00  0.00    -0.003 A 
BRANCH   4   2
ATOM      1  C   UNL     1     -10.718  -8.712  18.151  0.00  0.00    +0.005 C 
ATOM      2  C   UNL     1     -10.368  -9.377  17.811  0.00  0.00    +0.022 C 
ATOM      3  C   UNL     1     -10.268 -10.065  18.256  0.00  0.00    +0.005 C 
ENDBRANCH   4   2
ENDBRANCH   8   7
ENDBRANCH  11   9
ENDBRANCH  12  11
TORSDOF 6
ENDMDL
MODEL 9
REMARK VINA RESULT:      -5.8     15.374     17.565
REMARK  Name = 
REMARK  6 active torsions:
REMARK  status: ('A' for Active; 'I' for Inactive)
REMARK    1  A    between atoms: C_2  and  C_4
REMARK    2  A    between atoms: C_7  and  N_8
REMARK    3  A    between atoms: C_9  and  O_11
REMARK    4  A    between atoms: O_11  and  C_12
REMARK    5  A    between atoms: C_16  and  N_20
REMARK    6  A    between atoms: C_21  and  C_23
REMARK                            x       y       z     vdW  Elec       q    Type
REMARK                         _______ _______ _______ _____ _____    ______ ____
ROOT
ATOM     12  C   UNL     1      -6.904 -10.084  13.040  0.00  0.00    +0.229 C 
ATOM     13  C   UNL     1      -6.484 -10.151  13.746  0.00  0.00    +0.188 C 
ATOM     14  O   UNL     1      -7.013 -10.039  14.368  0.00  0.00    -0.348 OA
ATOM     15  C   UNL     1      -7.760  -9.903  14.047  0.00  0.00    +0.168 C 
ATOM     16  C   UNL     1      -8.549  -9.750  14.232  0.00  0.00    +0.155 C 
ATOM     17  C   UNL     1      -8.969  -9.683  13.526  0.00  0.00    +0.166 C 
ATOM     18  O   UNL     1      -8.440  -9.795  12.904  0.00  0.00    -0.348 OA
ATOM     19  C   UNL     1      -7.692  -9.931  13.226  0.00  0.00    +0.186 C 
ENDROOT
BRANCH  16  20
ATOM     20  N   UNL     1      -8.863  -9.676  14.992  0.00  0.00    -0.198 NA
ATOM     21  C   UNL     1      -9.464  -9.130  15.139  0.00  0.00    +0.265 C 
ATOM     22  O   UNL     1      -9.751  -8.658  14.527  0.00  0.00    -0.268 OA
BRANCH  21  23
ATOM     23  C   UNL     1      -9.778  -9.057  15.899  0.00  0.00    +0.055 A 
ATOM     24  C   UNL     1      -9.575  -8.410  16.368  0.00  0.00    +0.004 A 
ATOM     25  C   UNL     1      -9.888  -8.335  17.128  0.00  0.00    -0.004 A 
ATOM     26  C   UNL     1     -10.405  -8.910  17.418  0.00  0.00    -0.022 A 
ATOM     27  C   UNL     1     -10.719  -8.837  18.178  0.00  0.00    +0.031 C 
ATOM     28  C   UNL     1     -10.607  -9.557  16.948  0.00  0.00    -0.004 A 
ATOM     29  C   UNL     1     -10.294  -9.631  16.189  0.00  0.00    +0.004 A 
ENDBRANCH  21  23
ENDBRANCH  16  20
BRANCH  12  11
ATOM     11  O   UNL     1      -6.590 -10.157  12.280  0.00  0.00    -0.432 OA
BRANCH  11   9
ATOM      8  N   UNL     1      -5.305 -10.497  11.756  0.00  0.00    -0.142 NA
ATOM      9  C   UNL     1      -5.801  -9.961  12.138  0.00  0.00    +0.425 C 
ATOM     10  O   UNL     1      -5.509  -9.228  12.380  0.00  0.00    -0.224 OA
BRANCH   8   7
ATOM      4  C   UNL     1      -2.938  -9.909  11.332  0.00  0.00    -0.022 A 
ATOM      5  C   UNL     1      -3.146 -10.313  12.021  0.00  0.00    -0.003 A 
ATOM      6  C   UNL     1      -3.935 -10.509  12.161  0.00  0.00    +0.016 A 
ATOM      7  C   UNL     1      -4.516 -10.301  11.614  0.00  0.00    +0.077 A 
ATOM     30  C   UNL     1      -4.308  -9.897  10.926  0.00  0.00    +0.016 A 
ATOM     31  C   UNL     1      -3.519  -9.701  10.784  0.00  0.00    -0.003 A 
BRANCH   4   2
ATOM      1  C   UNL     1      -1.961  -9.130  10.638  0.00  0.00    +0.005 C 
ATOM      2  C   UNL     1      -2.149  -9.713  11.191  0.00  0.00    +0.022 C 
ATOM      3  C   UNL     1      -1.548 -10.101  11.602  0.00  0.00    +0.005 C 
ENDBRANCH   4   2
ENDBRANCH   8   7
ENDBRANCH  11   9
ENDBRANCH  12  11
TORSDOF 6
ENDMDL
