MODEL 1
REMARK VINA RESULT:      -7.6      0.000      0.000
REMARK  Name = 
REMARK  7 active torsions:
REMARK  status: ('A' for Active; 'I' for Inactive)
REMARK    1  A    between atoms: O_2  and  C_3
REMARK    2  A    between atoms: C_4  and  C_9
REMARK    3  A    between atoms: N_11  and  C_12
REMARK    4  A    between atoms: C_12  and  C_13
REMARK    5  A    between atoms: C_17  and  C_18
REMARK    6  A    between atoms: C_18  and  C_19
REMARK    7  A    between atoms: C_34  and  C_35
REMARK                            x       y       z     vdW  Elec       q    Type
REMARK                         _______ _______ _______ _____ _____    ______ ____
ROOT
ATOM     13  C   UNL     1      -2.785   1.447  24.082  0.00  0.00    +0.043 C 
ATOM     14  C   UNL     1      -2.612   0.969  24.732  0.00  0.00    -0.033 C 
ATOM     15  C   UNL     1      -1.856   0.647  24.817  0.00  0.00    -0.048 C 
ATOM     16  C   UNL     1      -1.683   0.169  25.466  0.00  0.00    +0.026 C 
ATOM     17  C   UNL     1      -1.275   0.804  24.252  0.00  0.00    +0.027 C 
ATOM     33  C   UNL     1      -1.449   1.282  23.603  0.00  0.00    +0.005 C 
ATOM     34  C   UNL     1      -2.204   1.604  23.518  0.00  0.00    +0.006 C 
ENDROOT
BRANCH  34  35
ATOM     35  C   UNL     1      -2.378   2.082  22.868  0.00  0.00    +0.000 C 
ATOM     36  C   UNL     1      -2.668   1.746  22.174  0.00  0.00    +0.000 C 
ATOM     37  C   UNL     1      -2.262   2.898  22.915  0.00  0.00    +0.000 C 
ENDBRANCH  34  35
BRANCH  13  12
ATOM     12  C   UNL     1      -3.540   1.769  23.997  0.00  0.00    +0.120 C 
BRANCH  12  11
ATOM      9  C   UNL     1      -4.821   2.084  24.548  0.00  0.00    +0.268 C 
ATOM     10  O   UNL     1      -5.047   2.419  23.831  0.00  0.00    -0.268 OA
ATOM     11  N   UNL     1      -4.067   1.758  24.632  0.00  0.00    -0.201 NA
BRANCH   9   4
ATOM      3  C   UNL     1      -5.525   2.772  25.583  0.00  0.00    +0.143 A 
ATOM      4  C   UNL     1      -5.347   2.072  25.183  0.00  0.00    +0.089 A 
ATOM      5  C   UNL     1      -5.695   1.362  25.419  0.00  0.00    +0.008 A 
ATOM      6  C   UNL     1      -6.222   1.352  26.054  0.00  0.00    +0.000 A 
ATOM      7  C   UNL     1      -6.400   2.051  26.454  0.00  0.00    +0.003 A 
ATOM      8  C   UNL     1      -6.052   2.761  26.218  0.00  0.00    +0.037 A 
BRANCH   3   2
ATOM      1  C   UNL     1      -5.375   4.185  25.731  0.00  0.00    +0.252 C 
ATOM      2  O   UNL     1      -5.178   3.481  25.348  0.00  0.00    -0.471 OA
ENDBRANCH   3   2
ENDBRANCH   9   4
ENDBRANCH  12  11
ENDBRANCH  13  12
BRANCH  17  18
ATOM     18  C   UNL     1      -0.521   0.482  24.338  0.00  0.00    +0.089 C 
BRANCH  18  19
ATOM     19  C   UNL     1      -0.202   0.013  23.739  0.00  0.00    +0.226 C 
ATOM     20  O   UNL     1      -0.660  -0.578  23.390  0.00  0.00    -0.275 OA
ATOM     21  N   UNL     1       0.575   0.133  23.489  0.00  0.00    -0.276 N 
ATOM     22  C   UNL     1       0.893  -0.336  22.891  0.00  0.00    +0.115 C 
ATOM     23  C   UNL     1       1.670  -0.215  22.640  0.00  0.00    +0.114 C 
ATOM     24  N   UNL     1       2.129   0.375  22.989  0.00  0.00    -0.290 N 
ATOM     25  C   UNL     1       1.810   0.846  23.589  0.00  0.00    +0.114 C 
ATOM     26  C   UNL     1       1.033   0.724  23.838  0.00  0.00    +0.115 C 
ATOM     27  C   UNL     1       2.906   0.497  22.739  0.00  0.00    +0.132 A 
ATOM     28  N   UNL     1       3.224   0.027  22.141  0.00  0.00    -0.229 NA
ATOM     29  C   UNL     1       4.001   0.148  21.891  0.00  0.00    +0.100 A 
ATOM     30  C   UNL     1       4.459   0.739  22.240  0.00  0.00    +0.021 A 
ATOM     31  C   UNL     1       4.141   1.208  22.839  0.00  0.00    +0.004 A 
ATOM     32  C   UNL     1       3.364   1.087  23.088  0.00  0.00    +0.034 A 
ENDBRANCH  18  19
ENDBRANCH  17  18
TORSDOF 7
ENDMDL
MODEL 2
REMARK VINA RESULT:      -7.4      0.889      1.655
REMARK  Name = 
REMARK  7 active torsions:
REMARK  status: ('A' for Active; 'I' for Inactive)
REMARK    1  A    between atoms: O_2  and  C_3
REMARK    2  A    between atoms: C_4  and  C_9
REMARK    3  A    between atoms: N_11  and  C_12
REMARK    4  A    between atoms: C_12  and  C_13
REMARK    5  A    between atoms: C_17  and  C_18
REMARK    6  A    between atoms: C_18  and  C_19
REMARK    7  A    between atoms: C_34  and  C_35
REMARK                            x       y       z     vdW  Elec       q    Type
REMARK                         _______ _______ _______ _____ _____    ______ ____
ROOT
ATOM     13  C   UNL     1      -3.003   0.661  24.722  0.00  0.00    +0.043 C 
ATOM     14  C   UNL     1      -2.530   1.321  24.579  0.00  0.00    -0.033 C 
ATOM     15  C   UNL     1      -1.716   1.230  24.472  0.00  0.00    -0.048 C 
ATOM     16  C   UNL     1      -1.243   1.890  24.329  0.00  0.00    +0.026 C 
ATOM     17  C   UNL     1      -1.377   0.479  24.510  0.00  0.00    +0.027 C 
ATOM     33  C   UNL     1      -1.851  -0.181  24.653  0.00  0.00    +0.005 C 
ATOM     34  C   UNL     1      -2.664  -0.090  24.760  0.00  0.00    +0.006 C 
ENDROOT
BRANCH  34  35
ATOM     35  C   UNL     1      -3.138  -0.750  24.903  0.00  0.00    +0.000 C 
ATOM     36  C   UNL     1      -3.232  -1.031  25.672  0.00  0.00    +0.000 C 
ATOM     37  C   UNL     1      -3.519  -1.128  24.276  0.00  0.00    +0.000 C 
ENDBRANCH  34  35
BRANCH  13  12
ATOM     12  C   UNL     1      -3.817   0.753  24.828  0.00  0.00    +0.120 C 
BRANCH  12  11
ATOM      9  C   UNL     1      -4.903   1.676  24.927  0.00  0.00    +0.268 C 
ATOM     10  O   UNL     1      -5.382   1.157  24.502  0.00  0.00    -0.268 OA
ATOM     11  N   UNL     1      -4.119   1.474  25.090  0.00  0.00    -0.201 NA
BRANCH   9   4
ATOM      3  C   UNL     1      -5.796   2.411  25.765  0.00  0.00    +0.143 A 
ATOM      4  C   UNL     1      -5.205   2.397  25.189  0.00  0.00    +0.089 A 
ATOM      5  C   UNL     1      -4.918   3.104  24.875  0.00  0.00    +0.008 A 
ATOM      6  C   UNL     1      -5.221   3.825  25.138  0.00  0.00    +0.000 A 
ATOM      7  C   UNL     1      -5.811   3.840  25.714  0.00  0.00    +0.003 A 
ATOM      8  C   UNL     1      -6.098   3.133  26.027  0.00  0.00    +0.037 A 
BRANCH   3   2
ATOM      1  C   UNL     1      -6.606   1.719  26.716  0.00  0.00    +0.252 C 
ATOM      2  O   UNL     1      -6.083   1.705  26.079  0.00  0.00    -0.471 OA
ENDBRANCH   3   2
ENDBRANCH   9   4
ENDBRANCH  12  11
ENDBRANCH  13  12
BRANCH  17  18
ATOM     18  C   UNL     1      -0.564   0.388  24.404  0.00  0.00    +0.089 C 
BRANCH  18  19
ATOM     19  C   UNL     1      -0.277  -0.038  23.758  0.00  0.00    +0.226 C 
ATOM     20  O   UNL     1      -0.762  -0.587  23.377  0.00  0.00    -0.275 OA
ATOM     21  N   UNL     1       0.494   0.084  23.493  0.00  0.00    -0.276 N 
ATOM     22  C   UNL     1       0.781  -0.341  22.847  0.00  0.00    +0.115 C 
ATOM     23  C   UNL     1       1.552  -0.219  22.582  0.00  0.00    +0.114 C 
ATOM     24  N   UNL     1       2.037   0.329  22.962  0.00  0.00    -0.290 N 
ATOM     25  C   UNL     1       1.750   0.755  23.608  0.00  0.00    +0.114 C 
ATOM     26  C   UNL     1       0.979   0.633  23.873  0.00  0.00    +0.115 C 
ATOM     27  C   UNL     1       2.809   0.452  22.697  0.00  0.00    +0.132 A 
ATOM     28  N   UNL     1       3.095   0.026  22.051  0.00  0.00    -0.229 NA
ATOM     29  C   UNL     1       3.867   0.148  21.786  0.00  0.00    +0.100 A 
ATOM     30  C   UNL     1       4.352   0.697  22.167  0.00  0.00    +0.021 A 
ATOM     31  C   UNL     1       4.065   1.122  22.812  0.00  0.00    +0.004 A 
ATOM     32  C   UNL     1       3.294   1.000  23.077  0.00  0.00    +0.034 A 
ENDBRANCH  18  19
ENDBRANCH  17  18
TORSDOF 7
ENDMDL
MODEL 3
REMARK VINA RESULT:      -6.9      1.436      7.359
REMARK  Name = 
REMARK  7 active torsions:
REMARK  status: ('A' for Active; 'I' for Inactive)
REMARK    1  A    between atoms: O_2  and  C_3
REMARK    2  A    between atoms: C_4  and  C_9
REMARK    3  A    between atoms: N_11  and  C_12
REMARK    4  A    between atoms: C_12  and  C_13
REMARK    5  A    between atoms: C_17  and  C_18
REMARK    6  A    between atoms: C_18  and  C_19
REMARK    7  A    between atoms: C_34  and  C_35
REMARK                            x       y       z     vdW  Elec       q    Type
REMARK                         _______ _______ _______ _____ _____    ______ ____
ROOT
ATOM     13  C   UNL     1       0.574   0.515  23.577  0.00  0.00    +0.043 C 
ATOM     14  C   UNL     1       0.689   1.328  23.656  0.00  0.00    -0.033 C 
ATOM     15  C   UNL     1       0.066   1.809  23.908  0.00  0.00    -0.048 C 
ATOM     16  C   UNL     1       0.181   2.622  23.988  0.00  0.00    +0.026 C 
ATOM     17  C   UNL     1      -0.669   1.476  24.079  0.00  0.00    +0.027 C 
ATOM     33  C   UNL     1      -0.782   0.663  23.999  0.00  0.00    +0.005 C 
ATOM     34  C   UNL     1      -0.161   0.182  23.748  0.00  0.00    +0.006 C 
ENDROOT
BRANCH  34  35
ATOM     35  C   UNL     1      -0.274  -0.631  23.667  0.00  0.00    +0.000 C 
ATOM     36  C   UNL     1      -0.457  -0.952  22.930  0.00  0.00    +0.000 C 
ATOM     37  C   UNL     1      -0.204  -1.124  24.325  0.00  0.00    +0.000 C 
ENDBRANCH  34  35
BRANCH  13  12
ATOM     12  C   UNL     1       1.197   0.034  23.325  0.00  0.00    +0.120 C 
BRANCH  12  11
ATOM      9  C   UNL     1       2.557  -0.020  22.893  0.00  0.00    +0.268 C 
ATOM     10  O   UNL     1       2.364  -0.616  22.358  0.00  0.00    -0.268 OA
ATOM     11  N   UNL     1       1.974   0.306  23.377  0.00  0.00    -0.201 NA
BRANCH   9   4
ATOM      3  C   UNL     1       3.922  -0.237  23.258  0.00  0.00    +0.143 A 
ATOM      4  C   UNL     1       3.335   0.251  22.944  0.00  0.00    +0.089 A 
ATOM      5  C   UNL     1       3.525   1.010  22.684  0.00  0.00    +0.008 A 
ATOM      6  C   UNL     1       4.303   1.281  22.736  0.00  0.00    +0.000 A 
ATOM      7  C   UNL     1       4.890   0.793  23.049  0.00  0.00    +0.003 A 
ATOM      8  C   UNL     1       4.699   0.034  23.310  0.00  0.00    +0.037 A 
BRANCH   3   2
ATOM      1  C   UNL     1       4.313  -1.476  23.852  0.00  0.00    +0.252 C 
ATOM      2  O   UNL     1       3.731  -0.996  23.518  0.00  0.00    -0.471 OA
ENDBRANCH   3   2
ENDBRANCH   9   4
ENDBRANCH  12  11
ENDBRANCH  13  12
BRANCH  17  18
ATOM     18  C   UNL     1      -1.290   1.957  24.330  0.00  0.00    +0.089 C 
BRANCH  18  19
ATOM     19  C   UNL     1      -1.939   2.085  23.836  0.00  0.00    +0.226 C 
ATOM     20  O   UNL     1      -1.823   2.218  23.030  0.00  0.00    -0.275 OA
ATOM     21  N   UNL     1      -2.702   2.081  24.148  0.00  0.00    -0.276 N 
ATOM     22  C   UNL     1      -3.350   2.209  23.655  0.00  0.00    +0.115 C 
ATOM     23  C   UNL     1      -4.114   2.205  23.966  0.00  0.00    +0.114 C 
ATOM     24  N   UNL     1      -4.230   2.072  24.772  0.00  0.00    -0.290 N 
ATOM     25  C   UNL     1      -3.581   1.943  25.267  0.00  0.00    +0.114 C 
ATOM     26  C   UNL     1      -2.818   1.948  24.954  0.00  0.00    +0.115 C 
ATOM     27  C   UNL     1      -4.994   2.067  25.085  0.00  0.00    +0.132 A 
ATOM     28  N   UNL     1      -5.641   2.196  24.590  0.00  0.00    -0.229 NA
ATOM     29  C   UNL     1      -6.405   2.191  24.903  0.00  0.00    +0.100 A 
ATOM     30  C   UNL     1      -6.520   2.058  25.709  0.00  0.00    +0.021 A 
ATOM     31  C   UNL     1      -5.872   1.930  26.202  0.00  0.00    +0.004 A 
ATOM     32  C   UNL     1      -5.109   1.935  25.891  0.00  0.00    +0.034 A 
ENDBRANCH  18  19
ENDBRANCH  17  18
TORSDOF 7
ENDMDL
MODEL 4
REMARK VINA RESULT:      -6.4     16.510     18.773
REMARK  Name = 
REMARK  7 active torsions:
REMARK  status: ('A' for Active; 'I' for Inactive)
REMARK    1  A    between atoms: O_2  and  C_3
REMARK    2  A    between atoms: C_4  and  C_9
REMARK    3  A    between atoms: N_11  and  C_12
REMARK    4  A    between atoms: C_12  and  C_13
REMARK    5  A    between atoms: C_17  and  C_18
REMARK    6  A    between atoms: C_18  and  C_19
REMARK    7  A    between atoms: C_34  and  C_35
REMARK                            x       y       z     vdW  Elec       q    Type
REMARK                         _______ _______ _______ _____ _____    ______ ____
ROOT
ATOM     13  C   UNL     1      -4.690  -9.573  10.426  0.00  0.00    +0.043 C 
ATOM     14  C   UNL     1      -4.462  -9.390   9.654  0.00  0.00    -0.033 C 
ATOM     15  C   UNL     1      -5.011  -9.070   9.127  0.00  0.00    -0.048 C 
ATOM     16  C   UNL     1      -4.783  -8.888   8.356  0.00  0.00    +0.026 C 
ATOM     17  C   UNL     1      -5.787  -8.934   9.371  0.00  0.00    +0.027 C 
ATOM     33  C   UNL     1      -6.014  -9.117  10.143  0.00  0.00    +0.005 C 
ATOM     34  C   UNL     1      -5.466  -9.436  10.670  0.00  0.00    +0.006 C 
ENDROOT
BRANCH  34  35
ATOM     35  C   UNL     1      -5.693  -9.619  11.442  0.00  0.00    +0.000 C 
ATOM     36  C   UNL     1      -5.864 -10.399  11.648  0.00  0.00    +0.000 C 
ATOM     37  C   UNL     1      -5.749  -9.021  12.008  0.00  0.00    +0.000 C 
ENDBRANCH  34  35
BRANCH  13  12
ATOM     12  C   UNL     1      -4.141  -9.893  10.953  0.00  0.00    +0.120 C 
BRANCH  12  11
ATOM      9  C   UNL     1      -2.767 -10.007  11.326  0.00  0.00    +0.268 C 
ATOM     10  O   UNL     1      -2.898 -10.781  11.574  0.00  0.00    -0.268 OA
ATOM     11  N   UNL     1      -3.388  -9.561  11.015  0.00  0.00    -0.201 NA
BRANCH   9   4
ATOM      3  C   UNL     1      -1.582  -9.760  12.087  0.00  0.00    +0.143 A 
ATOM      4  C   UNL     1      -2.014  -9.675  11.388  0.00  0.00    +0.089 A 
ATOM      5  C   UNL     1      -1.692  -9.259  10.753  0.00  0.00    +0.008 A 
ATOM      6  C   UNL     1      -0.939  -8.927  10.816  0.00  0.00    +0.000 A 
ATOM      7  C   UNL     1      -0.508  -9.013  11.514  0.00  0.00    +0.003 A 
ATOM      8  C   UNL     1      -0.829  -9.429  12.149  0.00  0.00    +0.037 A 
BRANCH   3   2
ATOM      1  C   UNL     1      -1.595 -10.076  13.480  0.00  0.00    +0.252 C 
ATOM      2  O   UNL     1      -1.903 -10.177  12.722  0.00  0.00    -0.471 OA
ENDBRANCH   3   2
ENDBRANCH   9   4
ENDBRANCH  12  11
ENDBRANCH  13  12
BRANCH  17  18
ATOM     18  C   UNL     1      -6.335  -8.614   8.845  0.00  0.00    +0.089 C 
BRANCH  18  19
ATOM     19  C   UNL     1      -7.138  -8.779   8.934  0.00  0.00    +0.226 C 
ATOM     20  O   UNL     1      -7.386  -9.549   9.093  0.00  0.00    -0.275 OA
ATOM     21  N   UNL     1      -7.694  -8.173   8.864  0.00  0.00    -0.276 N 
ATOM     22  C   UNL     1      -8.497  -8.338   8.954  0.00  0.00    +0.115 C 
ATOM     23  C   UNL     1      -9.053  -7.732   8.884  0.00  0.00    +0.114 C 
ATOM     24  N   UNL     1      -8.805  -6.962   8.725  0.00  0.00    -0.290 N 
ATOM     25  C   UNL     1      -8.001  -6.797   8.636  0.00  0.00    +0.114 C 
ATOM     26  C   UNL     1      -7.446  -7.403   8.705  0.00  0.00    +0.115 C 
ATOM     27  C   UNL     1      -9.361  -6.355   8.655  0.00  0.00    +0.132 A 
ATOM     28  N   UNL     1     -10.164  -6.521   8.745  0.00  0.00    -0.229 NA
ATOM     29  C   UNL     1     -10.720  -5.915   8.675  0.00  0.00    +0.100 A 
ATOM     30  C   UNL     1     -10.472  -5.144   8.516  0.00  0.00    +0.021 A 
ATOM     31  C   UNL     1      -9.669  -4.979   8.427  0.00  0.00    +0.004 A 
ATOM     32  C   UNL     1      -9.114  -5.585   8.496  0.00  0.00    +0.034 A 
ENDBRANCH  18  19
ENDBRANCH  17  18
TORSDOF 7
ENDMDL
MODEL 5
REMARK VINA RESULT:      -6.4      1.168      1.619
REMARK  Name = 
REMARK  7 active torsions:
REMARK  status: ('A' for Active; 'I' for Inactive)
REMARK    1  A    between atoms: O_2  and  C_3
REMARK    2  A    between atoms: C_4  and  C_9
REMARK    3  A    between atoms: N_11  and  C_12
REMARK    4  A    between atoms: C_12  and  C_13
REMARK    5  A    between atoms: C_17  and  C_18
REMARK    6  A    between atoms: C_18  and  C_19
REMARK    7  A    between atoms: C_34  and  C_35
REMARK                            x       y       z     vdW  Elec       q    Type
REMARK                         _______ _______ _______ _____ _____    ______ ____
ROOT
ATOM     13  C   UNL     1      -1.899   2.209  24.593  0.00  0.00    +0.043 C 
ATOM     14  C   UNL     1      -2.109   1.880  23.866  0.00  0.00    -0.033 C 
ATOM     15  C   UNL     1      -1.531   1.542  23.383  0.00  0.00    -0.048 C 
ATOM     16  C   UNL     1      -1.741   1.213  22.657  0.00  0.00    +0.026 C 
ATOM     17  C   UNL     1      -0.743   1.532  23.628  0.00  0.00    +0.027 C 
ATOM     33  C   UNL     1      -0.534   1.861  24.356  0.00  0.00    +0.005 C 
ATOM     34  C   UNL     1      -1.111   2.199  24.837  0.00  0.00    +0.006 C 
ENDROOT
BRANCH  34  35
ATOM     35  C   UNL     1      -0.902   2.528  25.565  0.00  0.00    +0.000 C 
ATOM     36  C   UNL     1      -0.764   3.338  25.627  0.00  0.00    +0.000 C 
ATOM     37  C   UNL     1      -0.830   2.045  26.230  0.00  0.00    +0.000 C 
ENDBRANCH  34  35
BRANCH  13  12
ATOM     12  C   UNL     1      -2.477   2.547  25.075  0.00  0.00    +0.120 C 
BRANCH  12  11
ATOM      9  C   UNL     1      -3.853   2.692  25.434  0.00  0.00    +0.268 C 
ATOM     10  O   UNL     1      -3.661   3.337  25.909  0.00  0.00    -0.268 OA
ATOM     11  N   UNL     1      -3.261   2.296  25.016  0.00  0.00    -0.201 NA
BRANCH   9   4
ATOM      3  C   UNL     1      -5.248   2.994  25.384  0.00  0.00    +0.143 A 
ATOM      4  C   UNL     1      -4.636   2.440  25.375  0.00  0.00    +0.089 A 
ATOM      5  C   UNL     1      -4.808   1.636  25.308  0.00  0.00    +0.008 A 
ATOM      6  C   UNL     1      -5.593   1.386  25.250  0.00  0.00    +0.000 A 
ATOM      7  C   UNL     1      -6.204   1.939  25.258  0.00  0.00    +0.003 A 
ATOM      8  C   UNL     1      -6.032   2.743  25.325  0.00  0.00    +0.037 A 
BRANCH   3   2
ATOM      1  C   UNL     1      -5.688   4.351  25.462  0.00  0.00    +0.252 C 
ATOM      2  O   UNL     1      -5.077   3.797  25.451  0.00  0.00    -0.471 OA
ENDBRANCH   3   2
ENDBRANCH   9   4
ENDBRANCH  12  11
ENDBRANCH  13  12
BRANCH  17  18
ATOM     18  C   UNL     1      -0.166   1.195  23.147  0.00  0.00    +0.089 C 
BRANCH  18  19
ATOM     19  C   UNL     1       0.201   0.490  23.372  0.00  0.00    +0.226 C 
ATOM     20  O   UNL     1      -0.253  -0.138  23.655  0.00  0.00    -0.275 OA
ATOM     21  N   UNL     1       1.020   0.414  23.315  0.00  0.00    -0.276 N 
ATOM     22  C   UNL     1       1.385  -0.289  23.540  0.00  0.00    +0.115 C 
ATOM     23  C   UNL     1       2.205  -0.366  23.483  0.00  0.00    +0.114 C 
ATOM     24  N   UNL     1       2.659   0.262  23.200  0.00  0.00    -0.290 N 
ATOM     25  C   UNL     1       2.293   0.967  22.974  0.00  0.00    +0.114 C 
ATOM     26  C   UNL     1       1.473   1.043  23.032  0.00  0.00    +0.115 C 
ATOM     27  C   UNL     1       3.479   0.186  23.143  0.00  0.00    +0.132 A 
ATOM     28  N   UNL     1       3.844  -0.518  23.369  0.00  0.00    -0.229 NA
ATOM     29  C   UNL     1       4.663  -0.593  23.311  0.00  0.00    +0.100 A 
ATOM     30  C   UNL     1       5.117   0.035  23.028  0.00  0.00    +0.021 A 
ATOM     31  C   UNL     1       4.751   0.738  22.803  0.00  0.00    +0.004 A 
ATOM     32  C   UNL     1       3.933   0.814  22.860  0.00  0.00    +0.034 A 
ENDBRANCH  18  19
ENDBRANCH  17  18
TORSDOF 7
ENDMDL
