MODEL 1
REMARK VINA RESULT:     -12.3      0.000      0.000
REMARK  Name = 
REMARK  7 active torsions:
REMARK  status: ('A' for Active; 'I' for Inactive)
REMARK    1  A    between atoms: C_2  and  C_4
REMARK    2  A    between atoms: C_4  and  C_5
REMARK    3  A    between atoms: C_5  and  N_6
REMARK    4  A    between atoms: C_5  and  C_28
REMARK    5  A    between atoms: C_7  and  C_9
REMARK    6  A    between atoms: C_11  and  N_12
REMARK    7  A    between atoms: N_15  and  C_16
REMARK                            x       y       z     vdW  Elec       q    Type
REMARK                         _______ _______ _______ _____ _____    ______ ____
ROOT
ATOM      9  C   UNL     1      -3.682   2.990  24.963  0.00  0.00    +0.033 C 
ATOM     10  C   UNL     1      -3.932   2.247  24.705  0.00  0.00    -0.002 C 
ATOM     11  C   UNL     1      -4.687   1.977  24.899  0.00  0.00    +0.152 C 
ATOM     23  C   UNL     1      -5.191   2.449  25.349  0.00  0.00    +0.206 C 
ATOM     24  O   UNL     1      -5.947   2.178  25.542  0.00  0.00    -0.218 OA
ATOM     25  C   UNL     1      -4.941   3.192  25.606  0.00  0.00    +0.189 C 
ATOM     26  O   UNL     1      -5.446   3.664  26.056  0.00  0.00    -0.220 OA
ATOM     27  C   UNL     1      -4.186   3.462  25.412  0.00  0.00    +0.066 C 
ENDROOT
BRANCH  11  12
ATOM     12  N   UNL     1      -4.938   1.233  24.642  0.00  0.00    -0.181 NA
ATOM     13  C   UNL     1      -4.451   0.576  24.747  0.00  0.00    +0.344 C 
ATOM     14  O   UNL     1      -3.716   0.661  25.109  0.00  0.00    -0.249 OA
ATOM     15  N   UNL     1      -4.702  -0.167  24.490  0.00  0.00    -0.161 NA
BRANCH  15  16
ATOM     16  C   UNL     1      -4.215  -0.825  24.595  0.00  0.00    +0.075 A 
ATOM     17  C   UNL     1      -3.999  -1.287  23.945  0.00  0.00    +0.016 A 
ATOM     18  C   UNL     1      -3.513  -1.945  24.051  0.00  0.00    -0.003 A 
ATOM     19  C   UNL     1      -3.243  -2.141  24.804  0.00  0.00    -0.022 A 
ATOM     20  C   UNL     1      -2.756  -2.799  24.910  0.00  0.00    +0.031 C 
ATOM     21  C   UNL     1      -3.458  -1.680  25.454  0.00  0.00    -0.003 A 
ATOM     22  C   UNL     1      -3.945  -1.022  25.348  0.00  0.00    +0.016 A 
ENDBRANCH  15  16
ENDBRANCH  11  12
BRANCH   9   7
ATOM      6  N   UNL     1      -2.335   3.279  25.345  0.00  0.00    -0.194 NA
ATOM      7  C   UNL     1      -2.927   3.260  24.769  0.00  0.00    +0.261 C 
ATOM      8  O   UNL     1      -2.762   3.511  24.001  0.00  0.00    -0.269 OA
BRANCH   6   5
ATOM      5  C   UNL     1      -1.580   3.548  25.152  0.00  0.00    +0.175 C 
BRANCH   5  28
ATOM     28  C   UNL     1      -1.404   4.353  25.200  0.00  0.00    +0.281 C 
ATOM     29  N   UNL     1      -0.890   4.695  24.654  0.00  0.00    -0.086 NA
ATOM     30  O   UNL     1      -1.744   4.814  25.794  0.00  0.00    -0.270 OA
ENDBRANCH   5  28
BRANCH   5   4
ATOM      4  C   UNL     1      -1.001   3.013  24.910  0.00  0.00    +0.031 C 
BRANCH   4   2
ATOM      1  C   UNL     1      -0.464   1.741  25.283  0.00  0.00    +0.000 C 
ATOM      2  C   UNL     1      -0.629   2.530  25.466  0.00  0.00    +0.002 C 
ATOM      3  C   UNL     1      -0.421   2.834  26.204  0.00  0.00    +0.000 C 
ENDBRANCH   4   2
ENDBRANCH   5   4
ENDBRANCH   6   5
ENDBRANCH   9   7
TORSDOF 7
ENDMDL
MODEL 2
REMARK VINA RESULT:     -11.8      1.226      4.720
REMARK  Name = 
REMARK  7 active torsions:
REMARK  status: ('A' for Active; 'I' for Inactive)
REMARK    1  A    between atoms: C_2  and  C_4
REMARK    2  A    between atoms: C_4  and  C_5
REMARK    3  A    between atoms: C_5  and  N_6
REMARK    4  A    between atoms: C_5  and  C_28
REMARK    5  A    between atoms: C_7  and  C_9
REMARK    6  A    between atoms: C_11  and  N_12
REMARK    7  A    between atoms: N_15  and  C_16
REMARK                            x       y       z     vdW  Elec       q    Type
REMARK                         _______ _______ _______ _____ _____    ______ ____
ROOT
ATOM      9  C   UNL     1      -4.290   1.090  24.750  0.00  0.00    +0.033 C 
ATOM     10  C   UNL     1      -3.912   1.702  25.154  0.00  0.00    -0.002 C 
ATOM     11  C   UNL     1      -4.351   2.337  25.446  0.00  0.00    +0.152 C 
ATOM     23  C   UNL     1      -5.167   2.359  25.334  0.00  0.00    +0.206 C 
ATOM     24  O   UNL     1      -5.606   2.994  25.626  0.00  0.00    -0.218 OA
ATOM     25  C   UNL     1      -5.546   1.748  24.931  0.00  0.00    +0.189 C 
ATOM     26  O   UNL     1      -6.363   1.770  24.819  0.00  0.00    -0.220 OA
ATOM     27  C   UNL     1      -5.107   1.113  24.639  0.00  0.00    +0.066 C 
ENDROOT
BRANCH  11  12
ATOM     12  N   UNL     1      -3.972   2.949  25.850  0.00  0.00    -0.181 NA
ATOM     13  C   UNL     1      -3.309   3.312  25.520  0.00  0.00    +0.344 C 
ATOM     14  O   UNL     1      -3.024   3.063  24.788  0.00  0.00    -0.249 OA
ATOM     15  N   UNL     1      -2.931   3.923  25.924  0.00  0.00    -0.161 NA
BRANCH  15  16
ATOM     16  C   UNL     1      -2.267   4.287  25.594  0.00  0.00    +0.075 A 
ATOM     17  C   UNL     1      -1.550   3.879  25.556  0.00  0.00    +0.016 A 
ATOM     18  C   UNL     1      -0.887   4.242  25.226  0.00  0.00    -0.003 A 
ATOM     19  C   UNL     1      -0.939   5.011  24.935  0.00  0.00    -0.022 A 
ATOM     20  C   UNL     1      -0.276   5.374  24.606  0.00  0.00    +0.031 C 
ATOM     21  C   UNL     1      -1.655   5.419  24.973  0.00  0.00    -0.003 A 
ATOM     22  C   UNL     1      -2.319   5.056  25.303  0.00  0.00    +0.016 A 
ENDBRANCH  15  16
ENDBRANCH  11  12
BRANCH   9   7
ATOM      6  N   UNL     1      -3.544  -0.107  24.979  0.00  0.00    -0.194 NA
ATOM      7  C   UNL     1      -3.851   0.456  24.459  0.00  0.00    +0.261 C 
ATOM      8  O   UNL     1      -3.718   0.383  23.648  0.00  0.00    -0.269 OA
BRANCH   6   5
ATOM      5  C   UNL     1      -3.105  -0.741  24.688  0.00  0.00    +0.175 C 
BRANCH   5  28
ATOM     28  C   UNL     1      -2.281  -0.731  24.736  0.00  0.00    +0.281 C 
ATOM     29  N   UNL     1      -1.913  -0.607  25.463  0.00  0.00    -0.086 NA
ATOM     30  O   UNL     1      -1.827  -0.844  24.057  0.00  0.00    -0.270 OA
ENDBRANCH   5  28
BRANCH   5   4
ATOM      4  C   UNL     1      -3.490  -1.387  24.347  0.00  0.00    +0.031 C 
BRANCH   4   2
ATOM      1  C   UNL     1      -3.691  -2.802  24.385  0.00  0.00    +0.000 C 
ATOM      2  C   UNL     1      -3.587  -2.083  24.779  0.00  0.00    +0.002 C 
ATOM      3  C   UNL     1      -3.581  -2.062  25.604  0.00  0.00    +0.000 C 
ENDBRANCH   4   2
ENDBRANCH   5   4
ENDBRANCH   6   5
ENDBRANCH   9   7
TORSDOF 7
ENDMDL
MODEL 3
REMARK VINA RESULT:     -11.7      2.130      5.731
REMARK  Name = 
REMARK  7 active torsions:
REMARK  status: ('A' for Active; 'I' for Inactive)
REMARK    1  A    between atoms: C_2  and  C_4
REMARK    2  A    between atoms: C_4  and  C_5
REMARK    3  A    between atoms: C_5  and  N_6
REMARK    4  A    between atoms: C_5  and  C_28
REMARK    5  A    between atoms: C_7  and  C_9
REMARK    6  A    between atoms: C_11  and  N_12
REMARK    7  A    between atoms: N_15  and  C_16
REMARK                            x       y       z     vdW  Elec       q    Type
REMARK                         _______ _______ _______ _____ _____    ______ ____
ROOT
ATOM      9  C   UNL     1      -1.090  -0.363  24.749  0.00  0.00    +0.033 C 
ATOM     10  C   UNL     1      -0.877   0.346  25.115  0.00  0.00    -0.002 C 
ATOM     11  C   UNL     1      -0.262   0.801  24.805  0.00  0.00    +0.152 C 
ATOM     23  C   UNL     1       0.139   0.548  24.132  0.00  0.00    +0.206 C 
ATOM     24  O   UNL     1       0.755   1.003  23.822  0.00  0.00    -0.218 OA
ATOM     25  C   UNL     1      -0.073  -0.161  23.766  0.00  0.00    +0.189 C 
ATOM     26  O   UNL     1       0.329  -0.414  23.092  0.00  0.00    -0.220 OA
ATOM     27  C   UNL     1      -0.688  -0.616  24.076  0.00  0.00    +0.066 C 
ENDROOT
BRANCH  11  12
ATOM     12  N   UNL     1      -0.049   1.510  25.171  0.00  0.00    -0.181 NA
ATOM     13  C   UNL     1      -0.538   2.171  25.103  0.00  0.00    +0.344 C 
ATOM     14  O   UNL     1      -1.238   2.124  24.670  0.00  0.00    -0.249 OA
ATOM     15  N   UNL     1      -0.325   2.879  25.468  0.00  0.00    -0.161 NA
BRANCH  15  16
ATOM     16  C   UNL     1      -0.814   3.541  25.400  0.00  0.00    +0.075 A 
ATOM     17  C   UNL     1      -0.586   4.174  24.921  0.00  0.00    +0.016 A 
ATOM     18  C   UNL     1      -1.075   4.835  24.854  0.00  0.00    -0.003 A 
ATOM     19  C   UNL     1      -1.789   4.864  25.264  0.00  0.00    -0.022 A 
ATOM     20  C   UNL     1      -2.278   5.525  25.196  0.00  0.00    +0.031 C 
ATOM     21  C   UNL     1      -2.016   4.232  25.742  0.00  0.00    -0.003 A 
ATOM     22  C   UNL     1      -1.528   3.570  25.810  0.00  0.00    +0.016 A 
ENDBRANCH  15  16
ENDBRANCH  11  12
BRANCH   9   7
ATOM      6  N   UNL     1      -2.467  -0.743  24.752  0.00  0.00    -0.194 NA
ATOM      7  C   UNL     1      -1.704  -0.818  25.059  0.00  0.00    +0.261 C 
ATOM      8  O   UNL     1      -1.557  -1.346  25.675  0.00  0.00    -0.269 OA
BRANCH   6   5
ATOM      5  C   UNL     1      -3.082  -1.198  25.062  0.00  0.00    +0.175 C 
BRANCH   5  28
ATOM     28  C   UNL     1      -3.590  -0.876  25.626  0.00  0.00    +0.281 C 
ATOM     29  N   UNL     1      -4.016  -0.191  25.454  0.00  0.00    -0.086 NA
ATOM     30  O   UNL     1      -3.671  -1.239  26.363  0.00  0.00    -0.270 OA
ENDBRANCH   5  28
BRANCH   5   4
ATOM      4  C   UNL     1      -3.188  -1.976  24.806  0.00  0.00    +0.031 C 
BRANCH   4   2
ATOM      1  C   UNL     1      -3.929  -2.927  24.039  0.00  0.00    +0.000 C 
ATOM      2  C   UNL     1      -3.738  -2.143  24.214  0.00  0.00    +0.002 C 
ATOM      3  C   UNL     1      -4.095  -1.527  23.796  0.00  0.00    +0.000 C 
ENDBRANCH   4   2
ENDBRANCH   5   4
ENDBRANCH   6   5
ENDBRANCH   9   7
TORSDOF 7
ENDMDL
MODEL 4
REMARK VINA RESULT:     -11.5      1.632      3.353
REMARK  Name = 
REMARK  7 active torsions:
REMARK  status: ('A' for Active; 'I' for Inactive)
REMARK    1  A    between atoms: C_2  and  C_4
REMARK    2  A    between atoms: C_4  and  C_5
REMARK    3  A    between atoms: C_5  and  N_6
REMARK    4  A    between atoms: C_5  and  C_28
REMARK    5  A    between atoms: C_7  and  C_9
REMARK    6  A    between atoms: C_11  and  N_12
REMARK    7  A    between atoms: N_15  and  C_16
REMARK                            x       y       z     vdW  Elec       q    Type
REMARK                         _______ _______ _______ _____ _____    ______ ____
ROOT
ATOM      9  C   UNL     1      -1.682   2.482  25.010  0.00  0.00    +0.033 C 
ATOM     10  C   UNL     1      -1.699   1.713  25.311  0.00  0.00    -0.002 C 
ATOM     11  C   UNL     1      -1.036   1.227  25.235  0.00  0.00    +0.152 C 
ATOM     23  C   UNL     1      -0.358   1.509  24.861  0.00  0.00    +0.206 C 
ATOM     24  O   UNL     1       0.305   1.023  24.786  0.00  0.00    -0.218 OA
ATOM     25  C   UNL     1      -0.342   2.277  24.561  0.00  0.00    +0.189 C 
ATOM     26  O   UNL     1       0.337   2.560  24.186  0.00  0.00    -0.220 OA
ATOM     27  C   UNL     1      -1.005   2.764  24.636  0.00  0.00    +0.066 C 
ENDROOT
BRANCH  11  12
ATOM     12  N   UNL     1      -1.052   0.458  25.536  0.00  0.00    -0.181 NA
ATOM     13  C   UNL     1      -1.599  -0.086  25.244  0.00  0.00    +0.344 C 
ATOM     14  O   UNL     1      -2.129   0.137  24.654  0.00  0.00    -0.249 OA
ATOM     15  N   UNL     1      -1.615  -0.854  25.544  0.00  0.00    -0.161 NA
BRANCH  15  16
ATOM     16  C   UNL     1      -2.162  -1.399  25.253  0.00  0.00    +0.075 A 
ATOM     17  C   UNL     1      -2.934  -1.408  25.548  0.00  0.00    +0.016 A 
ATOM     18  C   UNL     1      -3.480  -1.952  25.257  0.00  0.00    -0.003 A 
ATOM     19  C   UNL     1      -3.257  -2.488  24.672  0.00  0.00    -0.022 A 
ATOM     20  C   UNL     1      -3.803  -3.033  24.380  0.00  0.00    +0.031 C 
ATOM     21  C   UNL     1      -2.487  -2.480  24.377  0.00  0.00    -0.003 A 
ATOM     22  C   UNL     1      -1.939  -1.935  24.668  0.00  0.00    +0.016 A 
ENDBRANCH  15  16
ENDBRANCH  11  12
BRANCH   9   7
ATOM      6  N   UNL     1      -3.047   2.769  24.698  0.00  0.00    -0.194 NA
ATOM      7  C   UNL     1      -2.345   2.967  25.086  0.00  0.00    +0.261 C 
ATOM      8  O   UNL     1      -2.307   3.649  25.548  0.00  0.00    -0.269 OA
BRANCH   6   5
ATOM      5  C   UNL     1      -3.710   3.255  24.773  0.00  0.00    +0.175 C 
BRANCH   5  28
ATOM     28  C   UNL     1      -3.901   3.788  24.174  0.00  0.00    +0.281 C 
ATOM     29  N   UNL     1      -4.041   3.516  23.409  0.00  0.00    -0.086 NA
ATOM     30  O   UNL     1      -3.952   4.595  24.341  0.00  0.00    -0.270 OA
ENDBRANCH   5  28
BRANCH   5   4
ATOM      4  C   UNL     1      -4.181   3.206  25.449  0.00  0.00    +0.031 C 
BRANCH   4   2
ATOM      1  C   UNL     1      -5.596   3.199  25.651  0.00  0.00    +0.000 C 
ATOM      2  C   UNL     1      -4.905   2.812  25.418  0.00  0.00    +0.002 C 
ATOM      3  C   UNL     1      -4.939   2.030  25.155  0.00  0.00    +0.000 C 
ENDBRANCH   4   2
ENDBRANCH   5   4
ENDBRANCH   6   5
ENDBRANCH   9   7
TORSDOF 7
ENDMDL
MODEL 5
REMARK VINA RESULT:     -11.2      1.902      5.011
REMARK  Name = 
REMARK  7 active torsions:
REMARK  status: ('A' for Active; 'I' for Inactive)
REMARK    1  A    between atoms: C_2  and  C_4
REMARK    2  A    between atoms: C_4  and  C_5
REMARK    3  A    between atoms: C_5  and  N_6
REMARK    4  A    between atoms: C_5  and  C_28
REMARK    5  A    between atoms: C_7  and  C_9
REMARK    6  A    between atoms: C_11  and  N_12
REMARK    7  A    between atoms: N_15  and  C_16
REMARK                            x       y       z     vdW  Elec       q    Type
REMARK                         _______ _______ _______ _____ _____    ______ ____
ROOT
ATOM      9  C   UNL     1      -1.211   0.372  24.703  0.00  0.00    +0.033 C 
ATOM     10  C   UNL     1      -1.795   0.886  24.425  0.00  0.00    -0.002 C 
ATOM     11  C   UNL     1      -1.588   1.637  24.154  0.00  0.00    +0.152 C 
ATOM     23  C   UNL     1      -0.799   1.875  24.161  0.00  0.00    +0.206 C 
ATOM     24  O   UNL     1      -0.592   2.627  23.889  0.00  0.00    -0.218 OA
ATOM     25  C   UNL     1      -0.215   1.362  24.438  0.00  0.00    +0.189 C 
ATOM     26  O   UNL     1       0.574   1.601  24.445  0.00  0.00    -0.220 OA
ATOM     27  C   UNL     1      -0.422   0.610  24.709  0.00  0.00    +0.066 C 
ENDROOT
BRANCH  11  12
ATOM     12  N   UNL     1      -2.172   2.150  23.876  0.00  0.00    -0.181 NA
ATOM     13  C   UNL     1      -2.846   2.291  24.330  0.00  0.00    +0.344 C 
ATOM     14  O   UNL     1      -2.937   1.919  25.060  0.00  0.00    -0.249 OA
ATOM     15  N   UNL     1      -3.429   2.804  24.052  0.00  0.00    -0.161 NA
BRANCH  15  16
ATOM     16  C   UNL     1      -4.105   2.945  24.505  0.00  0.00    +0.075 A 
ATOM     17  C   UNL     1      -4.737   2.414  24.480  0.00  0.00    +0.016 A 
ATOM     18  C   UNL     1      -5.411   2.555  24.934  0.00  0.00    -0.003 A 
ATOM     19  C   UNL     1      -5.454   3.225  25.411  0.00  0.00    -0.022 A 
ATOM     20  C   UNL     1      -6.129   3.366  25.865  0.00  0.00    +0.031 C 
ATOM     21  C   UNL     1      -4.823   3.756  25.437  0.00  0.00    -0.003 A 
ATOM     22  C   UNL     1      -4.148   3.615  24.983  0.00  0.00    +0.016 A 
ENDBRANCH  15  16
ENDBRANCH  11  12
BRANCH   9   7
ATOM      6  N   UNL     1      -1.827  -0.897  24.478  0.00  0.00    -0.194 NA
ATOM      7  C   UNL     1      -1.418  -0.379  24.974  0.00  0.00    +0.261 C 
ATOM      8  O   UNL     1      -1.217  -0.612  25.739  0.00  0.00    -0.269 OA
BRANCH   6   5
ATOM      5  C   UNL     1      -2.034  -1.648  24.749  0.00  0.00    +0.175 C 
BRANCH   5  28
ATOM     28  C   UNL     1      -1.528  -2.287  24.623  0.00  0.00    +0.281 C 
ATOM     29  N   UNL     1      -1.330  -2.510  23.854  0.00  0.00    -0.086 NA
ATOM     30  O   UNL     1      -1.220  -2.702  25.266  0.00  0.00    -0.270 OA
ENDBRANCH   5  28
BRANCH   5   4
ATOM      4  C   UNL     1      -2.749  -1.760  25.147  0.00  0.00    +0.031 C 
BRANCH   4   2
ATOM      1  C   UNL     1      -3.941  -1.410  24.441  0.00  0.00    +0.000 C 
ATOM      2  C   UNL     1      -3.423  -1.985  24.728  0.00  0.00    +0.002 C 
ATOM      3  C   UNL     1      -3.578  -2.785  24.595  0.00  0.00    +0.000 C 
ENDBRANCH   4   2
ENDBRANCH   5   4
ENDBRANCH   6   5
ENDBRANCH   9   7
TORSDOF 7
ENDMDL
