MODEL 1
REMARK VINA RESULT:     -10.0      0.000      0.000
REMARK  Name = 
REMARK  8 active torsions:
REMARK  status: ('A' for Active; 'I' for Inactive)
REMARK    1  A    between atoms: O_2  and  C_3
REMARK    2  A    between atoms: C_4  and  C_9
REMARK    3  A    between atoms: C_11  and  C_16
REMARK    4  A    between atoms: C_23  and  C_24
REMARK    5  A    between atoms: C_24  and  N_25
REMARK    6  A    between atoms: C_26  and  C_28
REMARK    7  A    between atoms: C_28  and  C_29
REMARK    8  A    between atoms: C_29  and  C_30
REMARK                            x       y       z     vdW  Elec       q    Type
REMARK                         _______ _______ _______ _____ _____    ______ ____
ROOT
ATOM     16  C   UNL     1      -0.354  -0.446  24.186  0.00  0.00    +0.056 C 
ATOM     17  C   UNL     1       0.069  -1.023  23.881  0.00  0.00    +0.078 C 
ATOM     18  N   UNL     1       0.186  -0.215  23.758  0.00  0.00    -0.272 NA
ATOM     19  C   UNL     1      -0.550   0.291  24.307  0.00  0.00    +0.072 C 
ATOM     20  C   UNL     1      -0.831   0.848  24.502  0.00  0.00    +0.018 C 
ATOM     21  C   UNL     1      -0.234   0.345  24.060  0.00  0.00    +0.010 C 
ATOM     22  C   UNL     1       0.360   0.781  23.583  0.00  0.00    +0.018 C 
ATOM     23  C   UNL     1       0.800   0.244  23.264  0.00  0.00    +0.079 C 
ENDROOT
BRANCH  16  11
ATOM      9  C   UNL     1      -2.289  -1.208  24.853  0.00  0.00    +0.087 A 
ATOM     10  C   UNL     1      -1.662  -0.997  24.359  0.00  0.00    +0.034 A 
ATOM     11  C   UNL     1      -0.982  -0.658  24.680  0.00  0.00    +0.063 A 
ATOM     12  N   UNL     1      -0.927  -0.530  25.492  0.00  0.00    -0.235 NA
ATOM     13  C   UNL     1      -1.554  -0.741  25.985  0.00  0.00    +0.139 A 
ATOM     14  C   UNL     1      -1.500  -0.614  26.799  0.00  0.00    +0.074 C 
ATOM     15  N   UNL     1      -2.234  -1.081  25.666  0.00  0.00    -0.231 NA
BRANCH   9   4
ATOM      3  C   UNL     1      -3.634  -1.080  24.387  0.00  0.00    +0.140 A 
ATOM      4  C   UNL     1      -2.969  -1.548  24.532  0.00  0.00    +0.052 A 
ATOM      5  C   UNL     1      -2.985  -2.354  24.358  0.00  0.00    +0.005 A 
ATOM      6  C   UNL     1      -3.666  -2.693  24.038  0.00  0.00    +0.000 A 
ATOM      7  C   UNL     1      -4.330  -2.226  23.892  0.00  0.00    +0.003 A 
ATOM      8  C   UNL     1      -4.314  -1.420  24.066  0.00  0.00    +0.037 A 
BRANCH   3   2
ATOM      1  C   UNL     1      -4.290   0.188  24.440  0.00  0.00    +0.252 C 
ATOM      2  O   UNL     1      -3.618  -0.274  24.561  0.00  0.00    -0.471 OA
ENDBRANCH   3   2
ENDBRANCH   9   4
ENDBRANCH  16  11
BRANCH  23  24
ATOM     24  C   UNL     1       1.449   0.142  22.766  0.00  0.00    +0.131 C 
BRANCH  24  25
ATOM     25  N   UNL     1       2.193   0.414  22.996  0.00  0.00    -0.204 NA
ATOM     26  C   UNL     1       2.835   0.343  22.482  0.00  0.00    +0.242 C 
ATOM     27  O   UNL     1       2.732   0.000  21.738  0.00  0.00    -0.273 OA
BRANCH  26  28
ATOM     28  C   UNL     1       3.579   0.615  22.711  0.00  0.00    +0.099 C 
BRANCH  28  29
ATOM     29  C   UNL     1       4.123   0.094  23.048  0.00  0.00    +0.124 C 
BRANCH  29  30
ATOM     30  C   UNL     1       4.885   0.353  23.229  0.00  0.00    +0.365 C 
ATOM     31  O   UNL     1       5.530   0.070  22.801  0.00  0.00    -0.246 OA
ATOM     32  O   UNL     1       5.002   0.896  23.839  0.00  0.00    -0.246 OA
ENDBRANCH  29  30
ENDBRANCH  28  29
ENDBRANCH  26  28
ENDBRANCH  24  25
ENDBRANCH  23  24
TORSDOF 8
ENDMDL
MODEL 2
REMARK VINA RESULT:      -9.8      1.714      2.349
REMARK  Name = 
REMARK  8 active torsions:
REMARK  status: ('A' for Active; 'I' for Inactive)
REMARK    1  A    between atoms: O_2  and  C_3
REMARK    2  A    between atoms: C_4  and  C_9
REMARK    3  A    between atoms: C_11  and  C_16
REMARK    4  A    between atoms: C_23  and  C_24
REMARK    5  A    between atoms: C_24  and  N_25
REMARK    6  A    between atoms: C_26  and  C_28
REMARK    7  A    between atoms: C_28  and  C_29
REMARK    8  A    between atoms: C_29  and  C_30
REMARK                            x       y       z     vdW  Elec       q    Type
REMARK                         _______ _______ _______ _____ _____    ______ ____
ROOT
ATOM     16  C   UNL     1       0.115   0.610  23.938  0.00  0.00    +0.056 C 
ATOM     17  C   UNL     1       0.571   1.233  24.032  0.00  0.00    +0.078 C 
ATOM     18  N   UNL     1       0.737   0.574  23.563  0.00  0.00    -0.272 NA
ATOM     19  C   UNL     1      -0.076  -0.082  23.653  0.00  0.00    +0.072 C 
ATOM     20  C   UNL     1      -0.370  -0.645  23.501  0.00  0.00    +0.018 C 
ATOM     21  C   UNL     1       0.285  -0.033  23.475  0.00  0.00    +0.010 C 
ATOM     22  C   UNL     1       0.975  -0.229  22.970  0.00  0.00    +0.018 C 
ATOM     23  C   UNL     1       1.452   0.365  23.036  0.00  0.00    +0.079 C 
ENDROOT
BRANCH  16  11
ATOM      9  C   UNL     1      -1.928   1.110  24.525  0.00  0.00    +0.087 A 
ATOM     10  C   UNL     1      -1.210   1.117  24.119  0.00  0.00    +0.034 A 
ATOM     11  C   UNL     1      -0.604   0.603  24.344  0.00  0.00    +0.063 A 
ATOM     12  N   UNL     1      -0.717   0.082  24.973  0.00  0.00    -0.235 NA
ATOM     13  C   UNL     1      -1.435   0.075  25.378  0.00  0.00    +0.139 A 
ATOM     14  C   UNL     1      -1.549  -0.446  26.008  0.00  0.00    +0.074 C 
ATOM     15  N   UNL     1      -2.041   0.589  25.154  0.00  0.00    -0.231 NA
BRANCH   9   4
ATOM      3  C   UNL     1      -2.601   2.363  24.662  0.00  0.00    +0.140 A 
ATOM      4  C   UNL     1      -2.533   1.624  24.300  0.00  0.00    +0.052 A 
ATOM      5  C   UNL     1      -3.069   1.399  23.715  0.00  0.00    +0.005 A 
ATOM      6  C   UNL     1      -3.674   1.914  23.491  0.00  0.00    +0.000 A 
ATOM      7  C   UNL     1      -3.742   2.652  23.852  0.00  0.00    +0.003 A 
ATOM      8  C   UNL     1      -3.206   2.877  24.437  0.00  0.00    +0.037 A 
BRANCH   3   2
ATOM      1  C   UNL     1      -2.117   3.336  25.589  0.00  0.00    +0.252 C 
ATOM      2  O   UNL     1      -2.065   2.587  25.247  0.00  0.00    -0.471 OA
ENDBRANCH   3   2
ENDBRANCH   9   4
ENDBRANCH  16  11
BRANCH  23  24
ATOM     24  C   UNL     1       2.183   0.648  22.781  0.00  0.00    +0.131 C 
BRANCH  24  25
ATOM     25  N   UNL     1       2.867   0.208  22.918  0.00  0.00    -0.204 NA
ATOM     26  C   UNL     1       3.608   0.555  22.810  0.00  0.00    +0.242 C 
ATOM     27  O   UNL     1       3.664   1.341  22.564  0.00  0.00    -0.273 OA
BRANCH  26  28
ATOM     28  C   UNL     1       4.292   0.115  22.947  0.00  0.00    +0.099 C 
BRANCH  28  29
ATOM     29  C   UNL     1       4.895   0.426  23.417  0.00  0.00    +0.124 C 
BRANCH  29  30
ATOM     30  C   UNL     1       5.524  -0.054  23.652  0.00  0.00    +0.365 C 
ATOM     31  O   UNL     1       5.523  -0.397  24.402  0.00  0.00    -0.246 OA
ATOM     32  O   UNL     1       6.154  -0.190  23.138  0.00  0.00    -0.246 OA
ENDBRANCH  29  30
ENDBRANCH  28  29
ENDBRANCH  26  28
ENDBRANCH  24  25
ENDBRANCH  23  24
TORSDOF 8
ENDMDL
MODEL 3
REMARK VINA RESULT:      -9.7      2.090      3.076
REMARK  Name = 
REMARK  8 active torsions:
REMARK  status: ('A' for Active; 'I' for Inactive)
REMARK    1  A    between atoms: O_2  and  C_3
REMARK    2  A    between atoms: C_4  and  C_9
REMARK    3  A    between atoms: C_11  and  C_16
REMARK    4  A    between atoms: C_23  and  C_24
REMARK    5  A    between atoms: C_24  and  N_25
REMARK    6  A    between atoms: C_26  and  C_28
REMARK    7  A    between atoms: C_28  and  C_29
REMARK    8  A    between atoms: C_29  and  C_30
REMARK                            x       y       z     vdW  Elec       q    Type
REMARK                         _______ _______ _______ _____ _____    ______ ____
ROOT
ATOM     16  C   UNL     1      -1.395   0.689  24.041  0.00  0.00    +0.056 C 
ATOM     17  C   UNL     1      -1.242   0.911  23.311  0.00  0.00    +0.078 C 
ATOM     18  N   UNL     1      -0.768   0.427  23.782  0.00  0.00    -0.272 NA
ATOM     19  C   UNL     1      -1.255   0.321  24.705  0.00  0.00    +0.072 C 
ATOM     20  C   UNL     1      -1.278   0.076  25.310  0.00  0.00    +0.018 C 
ATOM     21  C   UNL     1      -0.925   0.213  24.497  0.00  0.00    +0.010 C 
ATOM     22  C   UNL     1      -0.155  -0.178  24.340  0.00  0.00    +0.018 C 
ATOM     23  C   UNL     1       0.032   0.017  23.626  0.00  0.00    +0.079 C 
ENDROOT
BRANCH  16  11
ATOM      9  C   UNL     1      -2.869   2.029  24.935  0.00  0.00    +0.087 A 
ATOM     10  C   UNL     1      -2.169   1.756  24.597  0.00  0.00    +0.034 A 
ATOM     11  C   UNL     1      -2.097   0.963  24.380  0.00  0.00    +0.063 A 
ATOM     12  N   UNL     1      -2.725   0.443  24.502  0.00  0.00    -0.235 NA
ATOM     13  C   UNL     1      -3.426   0.716  24.840  0.00  0.00    +0.139 A 
ATOM     14  C   UNL     1      -4.055   0.197  24.963  0.00  0.00    +0.074 C 
ATOM     15  N   UNL     1      -3.498   1.508  25.057  0.00  0.00    -0.231 NA
BRANCH   9   4
ATOM      3  C   UNL     1      -3.342   3.349  24.660  0.00  0.00    +0.140 A 
ATOM      4  C   UNL     1      -2.941   2.822  25.152  0.00  0.00    +0.052 A 
ATOM      5  C   UNL     1      -2.612   3.087  25.860  0.00  0.00    +0.005 A 
ATOM      6  C   UNL     1      -2.684   3.880  26.077  0.00  0.00    +0.000 A 
ATOM      7  C   UNL     1      -3.085   4.407  25.584  0.00  0.00    +0.003 A 
ATOM      8  C   UNL     1      -3.414   4.142  24.876  0.00  0.00    +0.037 A 
BRANCH   3   2
ATOM      1  C   UNL     1      -4.059   3.613  23.452  0.00  0.00    +0.252 C 
ATOM      2  O   UNL     1      -3.671   3.083  23.951  0.00  0.00    -0.471 OA
ENDBRANCH   3   2
ENDBRANCH   9   4
ENDBRANCH  16  11
BRANCH  23  24
ATOM     24  C   UNL     1       0.614  -0.084  23.051  0.00  0.00    +0.131 C 
BRANCH  24  25
ATOM     25  N   UNL     1       1.411  -0.019  23.255  0.00  0.00    -0.204 NA
ATOM     26  C   UNL     1       1.989  -0.037  22.667  0.00  0.00    +0.242 C 
ATOM     27  O   UNL     1       1.772  -0.121  21.876  0.00  0.00    -0.273 OA
BRANCH  26  28
ATOM     28  C   UNL     1       2.786   0.029  22.870  0.00  0.00    +0.099 C 
BRANCH  28  29
ATOM     29  C   UNL     1       3.283   0.525  22.438  0.00  0.00    +0.124 C 
BRANCH  29  30
ATOM     30  C   UNL     1       4.030   0.717  22.730  0.00  0.00    +0.365 C 
ATOM     31  O   UNL     1       4.657   0.189  22.641  0.00  0.00    -0.246 OA
ATOM     32  O   UNL     1       4.151   1.439  23.111  0.00  0.00    -0.246 OA
ENDBRANCH  29  30
ENDBRANCH  28  29
ENDBRANCH  26  28
ENDBRANCH  24  25
ENDBRANCH  23  24
TORSDOF 8
ENDMDL
MODEL 4
REMARK VINA RESULT:      -9.6      2.021      2.724
REMARK  Name = 
REMARK  8 active torsions:
REMARK  status: ('A' for Active; 'I' for Inactive)
REMARK    1  A    between atoms: O_2  and  C_3
REMARK    2  A    between atoms: C_4  and  C_9
REMARK    3  A    between atoms: C_11  and  C_16
REMARK    4  A    between atoms: C_23  and  C_24
REMARK    5  A    between atoms: C_24  and  N_25
REMARK    6  A    between atoms: C_26  and  C_28
REMARK    7  A    between atoms: C_28  and  C_29
REMARK    8  A    between atoms: C_29  and  C_30
REMARK                            x       y       z     vdW  Elec       q    Type
REMARK                         _______ _______ _______ _____ _____    ______ ____
ROOT
ATOM     16  C   UNL     1      -1.010   1.404  24.287  0.00  0.00    +0.056 C 
ATOM     17  C   UNL     1      -0.793   1.635  23.576  0.00  0.00    +0.078 C 
ATOM     18  N   UNL     1      -0.523   0.964  23.974  0.00  0.00    -0.272 NA
ATOM     19  C   UNL     1      -1.007   0.940  24.904  0.00  0.00    +0.072 C 
ATOM     20  C   UNL     1      -1.113   0.655  25.482  0.00  0.00    +0.018 C 
ATOM     21  C   UNL     1      -0.741   0.744  24.671  0.00  0.00    +0.010 C 
ATOM     22  C   UNL     1      -0.167   0.122  24.440  0.00  0.00    +0.018 C 
ATOM     23  C   UNL     1       0.072   0.313  23.740  0.00  0.00    +0.079 C 
ENDROOT
BRANCH  16  11
ATOM      9  C   UNL     1      -2.921   2.208  24.972  0.00  0.00    +0.087 A 
ATOM     10  C   UNL     1      -2.369   1.740  24.576  0.00  0.00    +0.034 A 
ATOM     11  C   UNL     1      -1.562   1.873  24.684  0.00  0.00    +0.063 A 
ATOM     12  N   UNL     1      -1.306   2.473  25.189  0.00  0.00    -0.235 NA
ATOM     13  C   UNL     1      -1.858   2.940  25.585  0.00  0.00    +0.139 A 
ATOM     14  C   UNL     1      -1.603   3.541  26.090  0.00  0.00    +0.074 C 
ATOM     15  N   UNL     1      -2.665   2.809  25.477  0.00  0.00    -0.231 NA
BRANCH   9   4
ATOM      3  C   UNL     1      -4.153   2.538  24.328  0.00  0.00    +0.140 A 
ATOM      4  C   UNL     1      -3.728   2.076  24.864  0.00  0.00    +0.052 A 
ATOM      5  C   UNL     1      -4.109   1.482  25.290  0.00  0.00    +0.005 A 
ATOM      6  C   UNL     1      -4.916   1.349  25.182  0.00  0.00    +0.000 A 
ATOM      7  C   UNL     1      -5.342   1.811  24.646  0.00  0.00    +0.003 A 
ATOM      8  C   UNL     1      -4.960   2.405  24.220  0.00  0.00    +0.037 A 
BRANCH   3   2
ATOM      1  C   UNL     1      -4.195   3.586  23.358  0.00  0.00    +0.252 C 
ATOM      2  O   UNL     1      -3.772   3.132  23.902  0.00  0.00    -0.471 OA
ENDBRANCH   3   2
ENDBRANCH   9   4
ENDBRANCH  16  11
BRANCH  23  24
ATOM     24  C   UNL     1       0.574   0.073  23.132  0.00  0.00    +0.131 C 
BRANCH  24  25
ATOM     25  N   UNL     1       1.391   0.075  23.245  0.00  0.00    -0.204 NA
ATOM     26  C   UNL     1       1.896  -0.061  22.607  0.00  0.00    +0.242 C 
ATOM     27  O   UNL     1       1.584  -0.198  21.856  0.00  0.00    -0.273 OA
BRANCH  26  28
ATOM     28  C   UNL     1       2.713  -0.059  22.720  0.00  0.00    +0.099 C 
BRANCH  28  29
ATOM     29  C   UNL     1       3.174   0.541  22.390  0.00  0.00    +0.124 C 
BRANCH  29  30
ATOM     30  C   UNL     1       3.940   0.673  22.667  0.00  0.00    +0.365 C 
ATOM     31  O   UNL     1       4.086   1.283  23.202  0.00  0.00    -0.246 OA
ATOM     32  O   UNL     1       4.560   0.193  22.409  0.00  0.00    -0.246 OA
ENDBRANCH  29  30
ENDBRANCH  28  29
ENDBRANCH  26  28
ENDBRANCH  24  25
ENDBRANCH  23  24
TORSDOF 8
ENDMDL
MODEL 5
REMARK VINA RESULT:      -9.5      3.052      5.220
REMARK  Name = 
REMARK  8 active torsions:
REMARK  status: ('A' for Active; 'I' for Inactive)
REMARK    1  A    between atoms: O_2  and  C_3
REMARK    2  A    between atoms: C_4  and  C_9
REMARK    3  A    between atoms: C_11  and  C_16
REMARK    4  A    between atoms: C_23  and  C_24
REMARK    5  A    between atoms: C_24  and  N_25
REMARK    6  A    between atoms: C_26  and  C_28
REMARK    7  A    between atoms: C_28  and  C_29
REMARK    8  A    between atoms: C_29  and  C_30
REMARK                            x       y       z     vdW  Elec       q    Type
REMARK                         _______ _______ _______ _____ _____    ______ ____
ROOT
ATOM     16  C   UNL     1      -1.303   1.613  24.898  0.00  0.00    +0.056 C 
ATOM     17  C   UNL     1      -1.560   1.201  24.290  0.00  0.00    +0.078 C 
ATOM     18  N   UNL     1      -1.106   0.914  24.917  0.00  0.00    -0.272 NA
ATOM     19  C   UNL     1      -0.929   1.718  25.565  0.00  0.00    +0.072 C 
ATOM     20  C   UNL     1      -0.664   1.960  26.111  0.00  0.00    +0.018 C 
ATOM     21  C   UNL     1      -0.857   1.324  25.509  0.00  0.00    +0.010 C 
ATOM     22  C   UNL     1      -0.542   0.523  25.680  0.00  0.00    +0.018 C 
ATOM     23  C   UNL     1      -0.774   0.083  25.100  0.00  0.00    +0.079 C 
ENDROOT
BRANCH  16  11
ATOM      9  C   UNL     1      -2.472   3.443  25.129  0.00  0.00    +0.087 A 
ATOM     10  C   UNL     1      -2.274   2.643  25.105  0.00  0.00    +0.034 A 
ATOM     11  C   UNL     1      -1.502   2.415  24.923  0.00  0.00    +0.063 A 
ATOM     12  N   UNL     1      -0.929   2.986  24.765  0.00  0.00    -0.235 NA
ATOM     13  C   UNL     1      -1.127   3.786  24.789  0.00  0.00    +0.139 A 
ATOM     14  C   UNL     1      -0.554   4.359  24.632  0.00  0.00    +0.074 C 
ATOM     15  N   UNL     1      -1.898   4.015  24.971  0.00  0.00    -0.231 NA
BRANCH   9   4
ATOM      3  C   UNL     1      -3.818   3.691  24.719  0.00  0.00    +0.140 A 
ATOM      4  C   UNL     1      -3.244   3.671  25.311  0.00  0.00    +0.052 A 
ATOM      5  C   UNL     1      -3.441   3.879  26.084  0.00  0.00    +0.005 A 
ATOM      6  C   UNL     1      -4.213   4.107  26.266  0.00  0.00    +0.000 A 
ATOM      7  C   UNL     1      -4.787   4.127  25.674  0.00  0.00    +0.003 A 
ATOM      8  C   UNL     1      -4.590   3.919  24.901  0.00  0.00    +0.037 A 
BRANCH   3   2
ATOM      1  C   UNL     1      -4.203   3.472  23.360  0.00  0.00    +0.252 C 
ATOM      2  O   UNL     1      -3.621   3.483  23.945  0.00  0.00    -0.471 OA
ENDBRANCH   3   2
ENDBRANCH   9   4
ENDBRANCH  16  11
BRANCH  23  24
ATOM     24  C   UNL     1      -0.743  -0.688  24.811  0.00  0.00    +0.131 C 
BRANCH  24  25
ATOM     25  N   UNL     1      -1.351  -1.218  24.983  0.00  0.00    -0.204 NA
ATOM     26  C   UNL     1      -1.425  -1.916  24.549  0.00  0.00    +0.242 C 
ATOM     27  O   UNL     1      -0.891  -2.083  23.943  0.00  0.00    -0.273 OA
BRANCH  26  28
ATOM     28  C   UNL     1      -2.033  -2.446  24.722  0.00  0.00    +0.099 C 
BRANCH  28  29
ATOM     29  C   UNL     1      -2.755  -2.389  24.327  0.00  0.00    +0.124 C 
BRANCH  29  30
ATOM     30  C   UNL     1      -3.410  -2.810  24.600  0.00  0.00    +0.365 C 
ATOM     31  O   UNL     1      -3.947  -3.132  24.064  0.00  0.00    -0.246 OA
ATOM     32  O   UNL     1      -3.527  -2.909  25.411  0.00  0.00    -0.246 OA
ENDBRANCH  29  30
ENDBRANCH  28  29
ENDBRANCH  26  28
ENDBRANCH  24  25
ENDBRANCH  23  24
TORSDOF 8
ENDMDL
MODEL 6
REMARK VINA RESULT:      -9.0      3.670      4.753
REMARK  Name = 
REMARK  8 active torsions:
REMARK  status: ('A' for Active; 'I' for Inactive)
REMARK    1  A    between atoms: O_2  and  C_3
REMARK    2  A    between atoms: C_4  and  C_9
REMARK    3  A    between atoms: C_11  and  C_16
REMARK    4  A    between atoms: C_23  and  C_24
REMARK    5  A    between atoms: C_24  and  N_25
REMARK    6  A    between atoms: C_26  and  C_28
REMARK    7  A    between atoms: C_28  and  C_29
REMARK    8  A    between atoms: C_29  and  C_30
REMARK                            x       y       z     vdW  Elec       q    Type
REMARK                         _______ _______ _______ _____ _____    ______ ____
ROOT
ATOM     16  C   UNL     1      -1.647   2.295  25.094  0.00  0.00    +0.056 C 
ATOM     17  C   UNL     1      -1.508   2.987  25.421  0.00  0.00    +0.078 C 
ATOM     18  N   UNL     1      -1.057   2.303  25.518  0.00  0.00    -0.272 NA
ATOM     19  C   UNL     1      -1.510   1.549  24.947  0.00  0.00    +0.072 C 
ATOM     20  C   UNL     1      -1.528   0.933  24.732  0.00  0.00    +0.018 C 
ATOM     21  C   UNL     1      -1.200   1.628  25.195  0.00  0.00    +0.010 C 
ATOM     22  C   UNL     1      -0.473   1.471  25.662  0.00  0.00    +0.018 C 
ATOM     23  C   UNL     1      -0.302   2.133  26.002  0.00  0.00    +0.079 C 
ENDROOT
BRANCH  16  11
ATOM      9  C   UNL     1      -3.718   2.071  24.440  0.00  0.00    +0.087 A 
ATOM     10  C   UNL     1      -3.058   2.130  24.931  0.00  0.00    +0.034 A 
ATOM     11  C   UNL     1      -2.308   2.235  24.603  0.00  0.00    +0.063 A 
ATOM     12  N   UNL     1      -2.219   2.280  23.784  0.00  0.00    -0.235 NA
ATOM     13  C   UNL     1      -2.879   2.220  23.294  0.00  0.00    +0.139 A 
ATOM     14  C   UNL     1      -2.790   2.265  22.475  0.00  0.00    +0.074 C 
ATOM     15  N   UNL     1      -3.629   2.115  23.621  0.00  0.00    -0.231 NA
BRANCH   9   4
ATOM      3  C   UNL     1      -4.909   2.621  25.008  0.00  0.00    +0.140 A 
ATOM      4  C   UNL     1      -4.468   1.966  24.769  0.00  0.00    +0.052 A 
ATOM      5  C   UNL     1      -4.777   1.206  24.857  0.00  0.00    +0.005 A 
ATOM      6  C   UNL     1      -5.527   1.102  25.186  0.00  0.00    +0.000 A 
ATOM      7  C   UNL     1      -5.967   1.757  25.425  0.00  0.00    +0.003 A 
ATOM      8  C   UNL     1      -5.658   2.517  25.336  0.00  0.00    +0.037 A 
BRANCH   3   2
ATOM      1  C   UNL     1      -5.014   4.032  25.211  0.00  0.00    +0.252 C 
ATOM      2  O   UNL     1      -4.600   3.381  24.919  0.00  0.00    -0.471 OA
ENDBRANCH   3   2
ENDBRANCH   9   4
ENDBRANCH  16  11
BRANCH  23  24
ATOM     24  C   UNL     1       0.245   2.486  26.508  0.00  0.00    +0.131 C 
BRANCH  24  25
ATOM     25  N   UNL     1       0.269   2.272  27.304  0.00  0.00    -0.204 NA
ATOM     26  C   UNL     1       0.903   2.509  27.776  0.00  0.00    +0.242 C 
ATOM     27  O   UNL     1       1.513   2.959  27.451  0.00  0.00    -0.273 OA
BRANCH  26  28
ATOM     28  C   UNL     1       0.927   2.295  28.572  0.00  0.00    +0.099 C 
BRANCH  28  29
ATOM     29  C   UNL     1       1.533   2.575  29.057  0.00  0.00    +0.124 C 
BRANCH  29  30
ATOM     30  C   UNL     1       1.541   2.384  29.859  0.00  0.00    +0.365 C 
ATOM     31  O   UNL     1       2.113   1.870  30.156  0.00  0.00    -0.246 OA
ATOM     32  O   UNL     1       0.976   2.708  30.366  0.00  0.00    -0.246 OA
ENDBRANCH  29  30
ENDBRANCH  28  29
ENDBRANCH  26  28
ENDBRANCH  24  25
ENDBRANCH  23  24
TORSDOF 8
ENDMDL
MODEL 7
REMARK VINA RESULT:      -8.7      3.470      5.719
REMARK  Name = 
REMARK  8 active torsions:
REMARK  status: ('A' for Active; 'I' for Inactive)
REMARK    1  A    between atoms: O_2  and  C_3
REMARK    2  A    between atoms: C_4  and  C_9
REMARK    3  A    between atoms: C_11  and  C_16
REMARK    4  A    between atoms: C_23  and  C_24
REMARK    5  A    between atoms: C_24  and  N_25
REMARK    6  A    between atoms: C_26  and  C_28
REMARK    7  A    between atoms: C_28  and  C_29
REMARK    8  A    between atoms: C_29  and  C_30
REMARK                            x       y       z     vdW  Elec       q    Type
REMARK                         _______ _______ _______ _____ _____    ______ ____
ROOT
ATOM     16  C   UNL     1      -3.827   1.215  24.193  0.00  0.00    +0.056 C 
ATOM     17  C   UNL     1      -3.348   0.712  23.843  0.00  0.00    +0.078 C 
ATOM     18  N   UNL     1      -3.995   0.519  24.319  0.00  0.00    -0.272 NA
ATOM     19  C   UNL     1      -4.427   1.421  24.634  0.00  0.00    +0.072 C 
ATOM     20  C   UNL     1      -4.885   1.745  24.969  0.00  0.00    +0.018 C 
ATOM     21  C   UNL     1      -4.460   1.019  24.659  0.00  0.00    +0.010 C 
ATOM     22  C   UNL     1      -4.791   0.244  24.904  0.00  0.00    +0.018 C 
ATOM     23  C   UNL     1      -4.345  -0.283  24.578  0.00  0.00    +0.079 C 
ENDROOT
BRANCH  16  11
ATOM      9  C   UNL     1      -2.997   3.217  24.463  0.00  0.00    +0.087 A 
ATOM     10  C   UNL     1      -3.146   2.413  24.575  0.00  0.00    +0.034 A 
ATOM     11  C   UNL     1      -3.677   2.020  24.081  0.00  0.00    +0.063 A 
ATOM     12  N   UNL     1      -4.058   2.429  23.475  0.00  0.00    -0.235 NA
ATOM     13  C   UNL     1      -3.909   3.232  23.363  0.00  0.00    +0.139 A 
ATOM     14  C   UNL     1      -4.290   3.643  22.758  0.00  0.00    +0.074 C 
ATOM     15  N   UNL     1      -3.378   3.626  23.857  0.00  0.00    -0.231 NA
BRANCH   9   4
ATOM      3  C   UNL     1      -1.656   3.574  24.804  0.00  0.00    +0.140 A 
ATOM      4  C   UNL     1      -2.466   3.610  24.957  0.00  0.00    +0.052 A 
ATOM      5  C   UNL     1      -2.745   4.039  25.604  0.00  0.00    +0.005 A 
ATOM      6  C   UNL     1      -2.214   4.432  26.098  0.00  0.00    +0.000 A 
ATOM      7  C   UNL     1      -1.404   4.396  25.945  0.00  0.00    +0.003 A 
ATOM      8  C   UNL     1      -1.125   3.967  25.298  0.00  0.00    +0.037 A 
BRANCH   3   2
ATOM      1  C   UNL     1      -0.565   3.072  24.030  0.00  0.00    +0.252 C 
ATOM      2  O   UNL     1      -1.377   3.145  24.157  0.00  0.00    -0.471 OA
ENDBRANCH   3   2
ENDBRANCH   9   4
ENDBRANCH  16  11
BRANCH  23  24
ATOM     24  C   UNL     1      -4.241  -1.097  24.504  0.00  0.00    +0.131 C 
BRANCH  24  25
ATOM     25  N   UNL     1      -3.538  -1.449  24.756  0.00  0.00    -0.204 NA
ATOM     26  C   UNL     1      -3.387  -2.240  24.580  0.00  0.00    +0.242 C 
ATOM     27  O   UNL     1      -3.938  -2.681  24.152  0.00  0.00    -0.273 OA
BRANCH  26  28
ATOM     28  C   UNL     1      -2.684  -2.591  24.831  0.00  0.00    +0.099 C 
BRANCH  28  29
ATOM     29  C   UNL     1      -2.012  -2.557  24.355  0.00  0.00    +0.124 C 
BRANCH  29  30
ATOM     30  C   UNL     1      -1.269  -2.447  24.697  0.00  0.00    +0.365 C 
ATOM     31  O   UNL     1      -0.817  -1.786  24.500  0.00  0.00    -0.246 OA
ATOM     32  O   UNL     1      -0.978  -2.999  25.237  0.00  0.00    -0.246 OA
ENDBRANCH  29  30
ENDBRANCH  28  29
ENDBRANCH  26  28
ENDBRANCH  24  25
ENDBRANCH  23  24
TORSDOF 8
ENDMDL
