MODEL 1
REMARK VINA RESULT:      -9.8      0.000      0.000
REMARK  Name = 
REMARK  9 active torsions:
REMARK  status: ('A' for Active; 'I' for Inactive)
REMARK    1  A    between atoms: C_2  and  O_3
REMARK    2  A    between atoms: O_3  and  C_4
REMARK    3  A    between atoms: C_4  and  C_6
REMARK    4  A    between atoms: C_10  and  N_11
REMARK    5  A    between atoms: C_17  and  C_18
REMARK    6  A    between atoms: C_18  and  C_19
REMARK    7  A    between atoms: N_21  and  C_22
REMARK    8  A    between atoms: C_22  and  C_23
REMARK    9  A    between atoms: C_25  and  C_26
REMARK                            x       y       z     vdW  Elec       q    Type
REMARK                         _______ _______ _______ _____ _____    ______ ____
ROOT
ATOM     11  N   UNL     1      -3.661  -0.174  24.004  0.00  0.00    -0.162 NA
ATOM     12  C   UNL     1      -3.881   0.296  24.645  0.00  0.00    +0.327 C 
ATOM     13  O   UNL     1      -4.095  -0.056  25.360  0.00  0.00    -0.250 OA
ATOM     14  N   UNL     1      -3.887   1.117  24.572  0.00  0.00    -0.263 N 
ATOM     15  C   UNL     1      -4.107   1.587  25.213  0.00  0.00    +0.095 C 
ATOM     16  C   UNL     1      -4.113   2.409  25.139  0.00  0.00    +0.022 C 
ATOM     17  C   UNL     1      -3.899   2.761  24.425  0.00  0.00    +0.012 C 
ATOM     25  C   UNL     1      -3.679   2.291  23.783  0.00  0.00    +0.020 C 
ATOM     28  C   UNL     1      -3.673   1.468  23.857  0.00  0.00    +0.095 C 
ENDROOT
BRANCH  11  10
ATOM      6  C   UNL     1      -2.948  -2.210  24.337  0.00  0.00    +0.077 A 
ATOM      7  C   UNL     1      -3.643  -2.639  24.225  0.00  0.00    +0.007 A 
ATOM      8  C   UNL     1      -4.345  -2.247  24.039  0.00  0.00    +0.002 A 
ATOM      9  C   UNL     1      -4.351  -1.425  23.965  0.00  0.00    +0.017 A 
ATOM     10  C   UNL     1      -3.655  -0.996  24.078  0.00  0.00    +0.075 A 
ATOM     29  C   UNL     1      -2.954  -1.388  24.264  0.00  0.00    +0.023 A 
BRANCH   6   4
ATOM      4  C   UNL     1      -2.246  -2.603  24.523  0.00  0.00    +0.341 C 
ATOM      5  O   UNL     1      -2.126  -3.377  24.267  0.00  0.00    -0.245 OA
BRANCH   4   3
ATOM      3  O   UNL     1      -1.664  -2.220  24.966  0.00  0.00    -0.445 OA
BRANCH   3   2
ATOM      1  C   UNL     1      -0.294  -2.092  25.349  0.00  0.00    +0.051 C 
ATOM      2  C   UNL     1      -0.898  -2.524  24.990  0.00  0.00    +0.209 C 
ENDBRANCH   3   2
ENDBRANCH   4   3
ENDBRANCH   6   4
ENDBRANCH  11  10
BRANCH  25  26
ATOM     26  C   UNL     1      -3.464   2.643  23.068  0.00  0.00    +0.002 C 
ATOM     27  C   UNL     1      -3.051   2.208  22.503  0.00  0.00    +0.000 C 
ENDBRANCH  25  26
BRANCH  17  18
ATOM     18  C   UNL     1      -3.905   3.583  24.350  0.00  0.00    +0.087 C 
BRANCH  18  19
ATOM     19  C   UNL     1      -3.520   4.051  24.909  0.00  0.00    +0.242 C 
ATOM     20  O   UNL     1      -3.888   4.221  25.628  0.00  0.00    -0.273 OA
ATOM     21  N   UNL     1      -2.768   4.348  24.751  0.00  0.00    -0.191 NA
BRANCH  21  22
ATOM     22  C   UNL     1      -2.383   4.816  25.311  0.00  0.00    +0.191 C 
BRANCH  22  23
ATOM     23  C   UNL     1      -1.610   5.069  25.176  0.00  0.00    -0.054 C 
ATOM     24  C   UNL     1      -0.835   5.323  25.041  0.00  0.00    -0.012 C 
ENDBRANCH  22  23
ENDBRANCH  21  22
ENDBRANCH  18  19
ENDBRANCH  17  18
TORSDOF 9
ENDMDL
MODEL 2
REMARK VINA RESULT:      -9.3      2.870      5.629
REMARK  Name = 
REMARK  9 active torsions:
REMARK  status: ('A' for Active; 'I' for Inactive)
REMARK    1  A    between atoms: C_2  and  O_3
REMARK    2  A    between atoms: O_3  and  C_4
REMARK    3  A    between atoms: C_4  and  C_6
REMARK    4  A    between atoms: C_10  and  N_11
REMARK    5  A    between atoms: C_17  and  C_18
REMARK    6  A    between atoms: C_18  and  C_19
REMARK    7  A    between atoms: N_21  and  C_22
REMARK    8  A    between atoms: C_22  and  C_23
REMARK    9  A    between atoms: C_25  and  C_26
REMARK                            x       y       z     vdW  Elec       q    Type
REMARK                         _______ _______ _______ _____ _____    ______ ____
ROOT
ATOM     11  N   UNL     1      -2.012   2.187  25.182  0.00  0.00    -0.162 NA
ATOM     12  C   UNL     1      -1.540   2.256  24.510  0.00  0.00    +0.327 C 
ATOM     13  O   UNL     1      -1.565   2.946  24.057  0.00  0.00    -0.250 OA
ATOM     14  N   UNL     1      -1.043   1.636  24.289  0.00  0.00    -0.263 N 
ATOM     15  C   UNL     1      -0.571   1.705  23.616  0.00  0.00    +0.095 C 
ATOM     16  C   UNL     1      -0.074   1.085  23.396  0.00  0.00    +0.022 C 
ATOM     17  C   UNL     1      -0.049   0.395  23.848  0.00  0.00    +0.012 C 
ATOM     25  C   UNL     1      -0.521   0.326  24.521  0.00  0.00    +0.020 C 
ATOM     28  C   UNL     1      -1.019   0.947  24.742  0.00  0.00    +0.095 C 
ENDROOT
BRANCH  11  10
ATOM      6  C   UNL     1      -3.822   3.359  25.520  0.00  0.00    +0.077 A 
ATOM      7  C   UNL     1      -3.504   4.048  25.844  0.00  0.00    +0.007 A 
ATOM      8  C   UNL     1      -2.689   4.117  25.946  0.00  0.00    +0.002 A 
ATOM      9  C   UNL     1      -2.191   3.496  25.726  0.00  0.00    +0.017 A 
ATOM     10  C   UNL     1      -2.510   2.808  25.402  0.00  0.00    +0.075 A 
ATOM     29  C   UNL     1      -3.326   2.739  25.300  0.00  0.00    +0.023 A 
BRANCH   6   4
ATOM      4  C   UNL     1      -4.639   3.290  25.417  0.00  0.00    +0.341 C 
ATOM      5  O   UNL     1      -5.115   3.963  25.441  0.00  0.00    -0.245 OA
BRANCH   4   3
ATOM      3  O   UNL     1      -4.977   2.548  25.291  0.00  0.00    -0.445 OA
BRANCH   3   2
ATOM      1  C   UNL     1      -6.136   1.733  25.108  0.00  0.00    +0.051 C 
ATOM      2  C   UNL     1      -5.798   2.469  25.262  0.00  0.00    +0.209 C 
ENDBRANCH   3   2
ENDBRANCH   4   3
ENDBRANCH   6   4
ENDBRANCH  11  10
BRANCH  25  26
ATOM     26  C   UNL     1      -0.496  -0.364  24.974  0.00  0.00    +0.002 C 
ATOM     27  C   UNL     1      -1.165  -0.610  25.387  0.00  0.00    +0.000 C 
ENDBRANCH  25  26
BRANCH  17  18
ATOM     18  C   UNL     1       0.449  -0.226  23.628  0.00  0.00    +0.087 C 
BRANCH  18  19
ATOM     19  C   UNL     1       0.958  -0.139  22.986  0.00  0.00    +0.242 C 
ATOM     20  O   UNL     1       0.666  -0.196  22.217  0.00  0.00    -0.273 OA
ATOM     21  N   UNL     1       1.760   0.005  23.112  0.00  0.00    -0.191 NA
BRANCH  21  22
ATOM     22  C   UNL     1       2.271   0.092  22.470  0.00  0.00    +0.191 C 
BRANCH  22  23
ATOM     23  C   UNL     1       3.047   0.342  22.590  0.00  0.00    -0.054 C 
ATOM     24  C   UNL     1       3.824   0.593  22.711  0.00  0.00    -0.012 C 
ENDBRANCH  22  23
ENDBRANCH  21  22
ENDBRANCH  18  19
ENDBRANCH  17  18
TORSDOF 9
ENDMDL
MODEL 3
REMARK VINA RESULT:      -9.0      3.400      5.062
REMARK  Name = 
REMARK  9 active torsions:
REMARK  status: ('A' for Active; 'I' for Inactive)
REMARK    1  A    between atoms: C_2  and  O_3
REMARK    2  A    between atoms: O_3  and  C_4
REMARK    3  A    between atoms: C_4  and  C_6
REMARK    4  A    between atoms: C_10  and  N_11
REMARK    5  A    between atoms: C_17  and  C_18
REMARK    6  A    between atoms: C_18  and  C_19
REMARK    7  A    between atoms: N_21  and  C_22
REMARK    8  A    between atoms: C_22  and  C_23
REMARK    9  A    between atoms: C_25  and  C_26
REMARK                            x       y       z     vdW  Elec       q    Type
REMARK                         _______ _______ _______ _____ _____    ______ ____
ROOT
ATOM     11  N   UNL     1      -1.544   0.165  24.828  0.00  0.00    -0.162 NA
ATOM     12  C   UNL     1      -1.027  -0.270  24.357  0.00  0.00    +0.327 C 
ATOM     13  O   UNL     1      -1.202  -1.054  24.167  0.00  0.00    -0.250 OA
ATOM     14  N   UNL     1      -0.333   0.077  24.076  0.00  0.00    -0.263 N 
ATOM     15  C   UNL     1       0.185  -0.359  23.604  0.00  0.00    +0.095 C 
ATOM     16  C   UNL     1       0.878  -0.012  23.324  0.00  0.00    +0.022 C 
ATOM     17  C   UNL     1       1.054   0.772  23.513  0.00  0.00    +0.012 C 
ATOM     25  C   UNL     1       0.536   1.208  23.985  0.00  0.00    +0.020 C 
ATOM     28  C   UNL     1      -0.159   0.860  24.266  0.00  0.00    +0.095 C 
ENDROOT
BRANCH  11  10
ATOM      6  C   UNL     1      -3.665  -0.229  25.163  0.00  0.00    +0.077 A 
ATOM      7  C   UNL     1      -3.625  -0.877  25.672  0.00  0.00    +0.007 A 
ATOM      8  C   UNL     1      -2.891  -1.178  25.900  0.00  0.00    +0.002 A 
ATOM      9  C   UNL     1      -2.197  -0.830  25.618  0.00  0.00    +0.017 A 
ATOM     10  C   UNL     1      -2.238  -0.182  25.109  0.00  0.00    +0.075 A 
ATOM     29  C   UNL     1      -2.972   0.118  24.882  0.00  0.00    +0.023 A 
BRANCH   6   4
ATOM      4  C   UNL     1      -4.399   0.072  24.935  0.00  0.00    +0.341 C 
ATOM      5  O   UNL     1      -4.836  -0.307  24.348  0.00  0.00    -0.245 OA
BRANCH   4   3
ATOM      3  O   UNL     1      -4.696   0.753  25.296  0.00  0.00    -0.445 OA
BRANCH   3   2
ATOM      1  C   UNL     1      -5.622   1.840  25.311  0.00  0.00    +0.051 C 
ATOM      2  C   UNL     1      -5.344   1.143  24.968  0.00  0.00    +0.209 C 
ENDBRANCH   3   2
ENDBRANCH   4   3
ENDBRANCH   6   4
ENDBRANCH  11  10
BRANCH  25  26
ATOM     26  C   UNL     1       0.711   1.992  24.175  0.00  0.00    +0.002 C 
ATOM     27  C   UNL     1       0.147   2.460  24.552  0.00  0.00    +0.000 C 
ENDBRANCH  25  26
BRANCH  17  18
ATOM     18  C   UNL     1       1.747   1.120  23.232  0.00  0.00    +0.087 C 
BRANCH  18  19
ATOM     19  C   UNL     1       2.345   0.650  22.914  0.00  0.00    +0.242 C 
ATOM     20  O   UNL     1       2.160   0.061  22.368  0.00  0.00    -0.273 OA
ATOM     21  N   UNL     1       3.129   0.770  23.141  0.00  0.00    -0.191 NA
BRANCH  21  22
ATOM     22  C   UNL     1       3.728   0.300  22.822  0.00  0.00    +0.191 C 
BRANCH  22  23
ATOM     23  C   UNL     1       4.488   0.331  23.138  0.00  0.00    -0.054 C 
ATOM     24  C   UNL     1       5.250   0.362  23.455  0.00  0.00    -0.012 C 
ENDBRANCH  22  23
ENDBRANCH  21  22
ENDBRANCH  18  19
ENDBRANCH  17  18
TORSDOF 9
ENDMDL
MODEL 4
REMARK VINA RESULT:      -8.8      2.829      3.777
REMARK  Name = 
REMARK  9 active torsions:
REMARK  status: ('A' for Active; 'I' for Inactive)
REMARK    1  A    between atoms: C_2  and  O_3
REMARK    2  A    between atoms: O_3  and  C_4
REMARK    3  A    between atoms: C_4  and  C_6
REMARK    4  A    between atoms: C_10  and  N_11
REMARK    5  A    between atoms: C_17  and  C_18
REMARK    6  A    between atoms: C_18  and  C_19
REMARK    7  A    between atoms: N_21  and  C_22
REMARK    8  A    between atoms: C_22  and  C_23
REMARK    9  A    between atoms: C_25  and  C_26
REMARK                            x       y       z     vdW  Elec       q    Type
REMARK                         _______ _______ _______ _____ _____    ______ ____
ROOT
ATOM     11  N   UNL     1      -0.601   1.093  24.218  0.00  0.00    -0.162 NA
ATOM     12  C   UNL     1      -1.374   1.185  23.948  0.00  0.00    +0.327 C 
ATOM     13  O   UNL     1      -1.694   0.638  23.419  0.00  0.00    -0.250 OA
ATOM     14  N   UNL     1      -1.829   1.823  24.206  0.00  0.00    -0.263 N 
ATOM     15  C   UNL     1      -2.603   1.915  23.936  0.00  0.00    +0.095 C 
ATOM     16  C   UNL     1      -3.056   2.553  24.194  0.00  0.00    +0.022 C 
ATOM     17  C   UNL     1      -2.737   3.100  24.723  0.00  0.00    +0.012 C 
ATOM     25  C   UNL     1      -1.963   3.008  24.993  0.00  0.00    +0.020 C 
ATOM     28  C   UNL     1      -1.508   2.369  24.735  0.00  0.00    +0.095 C 
ENDROOT
BRANCH  11  10
ATOM      6  C   UNL     1       0.933  -0.061  23.178  0.00  0.00    +0.077 A 
ATOM      7  C   UNL     1       0.762  -0.823  23.443  0.00  0.00    +0.007 A 
ATOM      8  C   UNL     1       0.136  -0.947  23.967  0.00  0.00    +0.002 A 
ATOM      9  C   UNL     1      -0.319  -0.308  24.225  0.00  0.00    +0.017 A 
ATOM     10  C   UNL     1      -0.147   0.454  23.960  0.00  0.00    +0.075 A 
ATOM     29  C   UNL     1       0.479   0.577  23.436  0.00  0.00    +0.023 A 
BRANCH   6   4
ATOM      4  C   UNL     1       1.559   0.063  22.654  0.00  0.00    +0.341 C 
ATOM      5  O   UNL     1       1.489  -0.170  21.867  0.00  0.00    -0.245 OA
BRANCH   4   3
ATOM      3  O   UNL     1       2.254   0.420  22.920  0.00  0.00    -0.445 OA
BRANCH   3   2
ATOM      1  C   UNL     1       3.629   0.751  22.718  0.00  0.00    +0.051 C 
ATOM      2  C   UNL     1       2.931   0.403  22.449  0.00  0.00    +0.209 C 
ENDBRANCH   3   2
ENDBRANCH   4   3
ENDBRANCH   6   4
ENDBRANCH  11  10
BRANCH  25  26
ATOM     26  C   UNL     1      -1.643   3.555  25.523  0.00  0.00    +0.002 C 
ATOM     27  C   UNL     1      -0.872   3.826  25.419  0.00  0.00    +0.000 C 
ENDBRANCH  25  26
BRANCH  17  18
ATOM     18  C   UNL     1      -3.190   3.739  24.982  0.00  0.00    +0.087 C 
BRANCH  18  19
ATOM     19  C   UNL     1      -4.011   3.722  24.903  0.00  0.00    +0.242 C 
ATOM     20  O   UNL     1      -4.364   3.989  24.207  0.00  0.00    -0.273 OA
ATOM     21  N   UNL     1      -4.478   3.437  25.520  0.00  0.00    -0.191 NA
BRANCH  21  22
ATOM     22  C   UNL     1      -5.300   3.420  25.442  0.00  0.00    +0.191 C 
BRANCH  22  23
ATOM     23  C   UNL     1      -5.740   2.848  25.840  0.00  0.00    -0.054 C 
ATOM     24  C   UNL     1      -6.181   2.275  26.238  0.00  0.00    -0.012 C 
ENDBRANCH  22  23
ENDBRANCH  21  22
ENDBRANCH  18  19
ENDBRANCH  17  18
TORSDOF 9
ENDMDL
MODEL 5
REMARK VINA RESULT:      -8.4      1.949      6.033
REMARK  Name = 
REMARK  9 active torsions:
REMARK  status: ('A' for Active; 'I' for Inactive)
REMARK    1  A    between atoms: C_2  and  O_3
REMARK    2  A    between atoms: O_3  and  C_4
REMARK    3  A    between atoms: C_4  and  C_6
REMARK    4  A    between atoms: C_10  and  N_11
REMARK    5  A    between atoms: C_17  and  C_18
REMARK    6  A    between atoms: C_18  and  C_19
REMARK    7  A    between atoms: N_21  and  C_22
REMARK    8  A    between atoms: C_22  and  C_23
REMARK    9  A    between atoms: C_25  and  C_26
REMARK                            x       y       z     vdW  Elec       q    Type
REMARK                         _______ _______ _______ _____ _____    ______ ____
ROOT
ATOM     11  N   UNL     1      -1.049   2.426  24.733  0.00  0.00    -0.162 NA
ATOM     12  C   UNL     1      -1.173   1.823  25.281  0.00  0.00    +0.327 C 
ATOM     13  O   UNL     1      -1.487   1.998  26.024  0.00  0.00    -0.250 OA
ATOM     14  N   UNL     1      -0.984   1.044  25.087  0.00  0.00    -0.263 N 
ATOM     15  C   UNL     1      -1.108   0.440  25.636  0.00  0.00    +0.095 C 
ATOM     16  C   UNL     1      -0.919  -0.339  25.441  0.00  0.00    +0.022 C 
ATOM     17  C   UNL     1      -0.605  -0.515  24.699  0.00  0.00    +0.012 C 
ATOM     25  C   UNL     1      -0.480   0.089  24.151  0.00  0.00    +0.020 C 
ATOM     28  C   UNL     1      -0.670   0.869  24.345  0.00  0.00    +0.095 C 
ENDROOT
BRANCH  11  10
ATOM      6  C   UNL     1      -2.185   4.171  25.388  0.00  0.00    +0.077 A 
ATOM      7  C   UNL     1      -1.617   4.764  25.316  0.00  0.00    +0.007 A 
ATOM      8  C   UNL     1      -0.858   4.578  25.050  0.00  0.00    +0.002 A 
ATOM      9  C   UNL     1      -0.669   3.798  24.855  0.00  0.00    +0.017 A 
ATOM     10  C   UNL     1      -1.238   3.206  24.928  0.00  0.00    +0.075 A 
ATOM     29  C   UNL     1      -1.997   3.392  25.194  0.00  0.00    +0.023 A 
BRANCH   6   4
ATOM      4  C   UNL     1      -2.945   4.357  25.654  0.00  0.00    +0.341 C 
ATOM      5  O   UNL     1      -3.043   4.792  26.347  0.00  0.00    -0.245 OA
BRANCH   4   3
ATOM      3  O   UNL     1      -3.605   4.107  25.226  0.00  0.00    -0.445 OA
BRANCH   3   2
ATOM      1  C   UNL     1      -4.966   3.674  25.230  0.00  0.00    +0.051 C 
ATOM      2  C   UNL     1      -4.345   4.083  25.588  0.00  0.00    +0.209 C 
ENDBRANCH   3   2
ENDBRANCH   4   3
ENDBRANCH   6   4
ENDBRANCH  11  10
BRANCH  25  26
ATOM     26  C   UNL     1      -0.166  -0.086  23.408  0.00  0.00    +0.002 C 
ATOM     27  C   UNL     1       0.483   0.335  23.125  0.00  0.00    +0.000 C 
ENDBRANCH  25  26
BRANCH  17  18
ATOM     18  C   UNL     1      -0.415  -1.294  24.504  0.00  0.00    +0.087 C 
BRANCH  18  19
ATOM     19  C   UNL     1      -0.878  -1.915  24.787  0.00  0.00    +0.242 C 
ATOM     20  O   UNL     1      -0.647  -2.326  25.463  0.00  0.00    -0.273 OA
ATOM     21  N   UNL     1      -1.571  -2.124  24.394  0.00  0.00    -0.191 NA
BRANCH  21  22
ATOM     22  C   UNL     1      -2.035  -2.746  24.676  0.00  0.00    +0.191 C 
BRANCH  22  23
ATOM     23  C   UNL     1      -2.833  -2.790  24.476  0.00  0.00    -0.054 C 
ATOM     24  C   UNL     1      -3.633  -2.834  24.275  0.00  0.00    -0.012 C 
ENDBRANCH  22  23
ENDBRANCH  21  22
ENDBRANCH  18  19
ENDBRANCH  17  18
TORSDOF 9
ENDMDL
MODEL 6
REMARK VINA RESULT:      -8.2      3.722      5.284
REMARK  Name = 
REMARK  9 active torsions:
REMARK  status: ('A' for Active; 'I' for Inactive)
REMARK    1  A    between atoms: C_2  and  O_3
REMARK    2  A    between atoms: O_3  and  C_4
REMARK    3  A    between atoms: C_4  and  C_6
REMARK    4  A    between atoms: C_10  and  N_11
REMARK    5  A    between atoms: C_17  and  C_18
REMARK    6  A    between atoms: C_18  and  C_19
REMARK    7  A    between atoms: N_21  and  C_22
REMARK    8  A    between atoms: C_22  and  C_23
REMARK    9  A    between atoms: C_25  and  C_26
REMARK                            x       y       z     vdW  Elec       q    Type
REMARK                         _______ _______ _______ _____ _____    ______ ____
ROOT
ATOM     11  N   UNL     1       0.785  -0.190  23.361  0.00  0.00    -0.162 NA
ATOM     12  C   UNL     1       0.152   0.332  23.284  0.00  0.00    +0.327 C 
ATOM     13  O   UNL     1       0.176   0.930  22.715  0.00  0.00    -0.250 OA
ATOM     14  N   UNL     1      -0.506   0.257  23.775  0.00  0.00    -0.263 N 
ATOM     15  C   UNL     1      -1.140   0.779  23.699  0.00  0.00    +0.095 C 
ATOM     16  C   UNL     1      -1.798   0.704  24.190  0.00  0.00    +0.022 C 
ATOM     17  C   UNL     1      -1.823   0.106  24.758  0.00  0.00    +0.012 C 
ATOM     25  C   UNL     1      -1.189  -0.416  24.835  0.00  0.00    +0.020 C 
ATOM     28  C   UNL     1      -0.530  -0.341  24.343  0.00  0.00    +0.095 C 
ENDROOT
BRANCH  11  10
ATOM      6  C   UNL     1       2.798   0.294  22.668  0.00  0.00    +0.077 A 
ATOM      7  C   UNL     1       2.761   0.036  21.885  0.00  0.00    +0.007 A 
ATOM      8  C   UNL     1       2.064  -0.297  21.594  0.00  0.00    +0.002 A 
ATOM      9  C   UNL     1       1.406  -0.372  22.086  0.00  0.00    +0.017 A 
ATOM     10  C   UNL     1       1.444  -0.114  22.869  0.00  0.00    +0.075 A 
ATOM     29  C   UNL     1       2.141   0.219  23.160  0.00  0.00    +0.023 A 
BRANCH   6   4
ATOM      4  C   UNL     1       3.496   0.627  22.960  0.00  0.00    +0.341 C 
ATOM      5  O   UNL     1       3.546   1.442  23.076  0.00  0.00    -0.245 OA
BRANCH   4   3
ATOM      3  O   UNL     1       4.142   0.144  23.134  0.00  0.00    -0.445 OA
BRANCH   3   2
ATOM      1  C   UNL     1       5.468   0.004  23.644  0.00  0.00    +0.051 C 
ATOM      2  C   UNL     1       4.859   0.482  23.362  0.00  0.00    +0.209 C 
ENDBRANCH   3   2
ENDBRANCH   4   3
ENDBRANCH   6   4
ENDBRANCH  11  10
BRANCH  25  26
ATOM     26  C   UNL     1      -1.213  -1.014  25.404  0.00  0.00    +0.002 C 
ATOM     27  C   UNL     1      -0.616  -1.582  25.431  0.00  0.00    +0.000 C 
ENDBRANCH  25  26
BRANCH  17  18
ATOM     18  C   UNL     1      -2.481   0.030  25.251  0.00  0.00    +0.087 C 
BRANCH  18  19
ATOM     19  C   UNL     1      -3.240   0.128  24.943  0.00  0.00    +0.242 C 
ATOM     20  O   UNL     1      -3.505  -0.363  24.336  0.00  0.00    -0.273 OA
ATOM     21  N   UNL     1      -3.733   0.716  25.243  0.00  0.00    -0.191 NA
BRANCH  21  22
ATOM     22  C   UNL     1      -4.493   0.814  24.936  0.00  0.00    +0.191 C 
BRANCH  22  23
ATOM     23  C   UNL     1      -4.984   1.407  25.231  0.00  0.00    -0.054 C 
ATOM     24  C   UNL     1      -5.476   2.000  25.528  0.00  0.00    -0.012 C 
ENDBRANCH  22  23
ENDBRANCH  21  22
ENDBRANCH  18  19
ENDBRANCH  17  18
TORSDOF 9
ENDMDL
