MODEL 1
REMARK VINA RESULT:     -14.8      0.000      0.000
REMARK  Name = 
REMARK  4 active torsions:
REMARK  status: ('A' for Active; 'I' for Inactive)
REMARK    1  A    between atoms: O_2  and  C_3
REMARK    2  A    between atoms: C_4  and  C_9
REMARK    3  A    between atoms: N_11  and  C_12
REMARK    4  A    between atoms: N_18  and  C_20
REMARK                            x       y       z     vdW  Elec       q    Type
REMARK                         _______ _______ _______ _____ _____    ______ ____
ROOT
ATOM     12  C   UNL     1      -3.740   1.068  24.739  0.00  0.00    +0.086 A 
ATOM     13  C   UNL     1      -4.298   1.635  24.958  0.00  0.00    +0.056 A 
ATOM     14  C   UNL     1      -5.195   1.721  25.139  0.00  0.00    +0.056 C 
ATOM     15  C   UNL     1      -5.789   1.348  25.169  0.00  0.00    +0.011 C 
ATOM     16  C   UNL     1      -5.556   2.119  25.288  0.00  0.00    +0.039 C 
ATOM     17  C   UNL     1      -5.472   3.086  25.475  0.00  0.00    +0.074 C 
ATOM     18  N   UNL     1      -4.653   3.183  25.346  0.00  0.00    -0.273 NA
ATOM     19  C   UNL     1      -5.131   2.656  25.323  0.00  0.00    +0.078 C 
ATOM     29  C   UNL     1      -4.617   2.039  25.101  0.00  0.00    +0.110 C 
ATOM     30  N   UNL     1      -4.065   2.417  25.080  0.00  0.00    -0.298 N 
ATOM     31  C   UNL     1      -3.275   2.633  24.981  0.00  0.00    +0.261 A 
ATOM     32  O   UNL     1      -2.630   3.146  24.971  0.00  0.00    -0.267 OA
ATOM     33  C   UNL     1      -2.718   2.066  24.761  0.00  0.00    +0.062 A 
ATOM     34  C   UNL     1      -2.950   1.284  24.640  0.00  0.00    +0.023 A 
ENDROOT
BRANCH  18  20
ATOM     20  C   UNL     1      -3.922   3.563  25.293  0.00  0.00    +0.061 C 
ATOM     21  C   UNL     1      -3.680   3.894  24.577  0.00  0.00    +0.038 C 
ATOM     22  C   UNL     1      -2.949   4.273  24.524  0.00  0.00    +0.095 C 
ATOM     23  N   UNL     1      -2.460   4.321  25.187  0.00  0.00    -0.279 N 
ATOM     24  C   UNL     1      -2.702   3.990  25.902  0.00  0.00    +0.095 C 
ATOM     25  C   UNL     1      -3.432   3.611  25.956  0.00  0.00    +0.038 C 
ATOM     26  C   UNL     1      -1.730   4.700  25.132  0.00  0.00    +0.226 C 
ATOM     27  C   UNL     1      -1.488   5.032  24.417  0.00  0.00    +0.095 C 
ATOM     28  O   UNL     1      -1.240   4.748  25.795  0.00  0.00    -0.275 OA
ENDBRANCH  18  20
BRANCH  12  11
ATOM      9  C   UNL     1      -3.404  -0.305  24.529  0.00  0.00    +0.272 C 
ATOM     10  O   UNL     1      -2.602  -0.113  24.562  0.00  0.00    -0.268 OA
ATOM     11  N   UNL     1      -3.973   0.286  24.618  0.00  0.00    -0.174 NA
BRANCH   9   4
ATOM      3  C   UNL     1      -3.497  -1.654  24.990  0.00  0.00    +0.143 A 
ATOM      4  C   UNL     1      -3.636  -1.087  24.408  0.00  0.00    +0.089 A 
ATOM      5  C   UNL     1      -4.009  -1.302  23.704  0.00  0.00    +0.008 A 
ATOM      6  C   UNL     1      -4.241  -2.085  23.583  0.00  0.00    +0.000 A 
ATOM      7  C   UNL     1      -4.102  -2.652  24.165  0.00  0.00    +0.003 A 
ATOM      8  C   UNL     1      -3.729  -2.436  24.869  0.00  0.00    +0.037 A 
BRANCH   3   2
ATOM      1  C   UNL     1      -3.065  -1.981  26.312  0.00  0.00    +0.252 C 
ATOM      2  O   UNL     1      -3.124  -1.439  25.694  0.00  0.00    -0.471 OA
ENDBRANCH   3   2
ENDBRANCH   9   4
ENDBRANCH  12  11
TORSDOF 4
ENDMDL
MODEL 2
REMARK VINA RESULT:     -13.7      1.073      4.719
REMARK  Name = 
REMARK  4 active torsions:
REMARK  status: ('A' for Active; 'I' for Inactive)
REMARK    1  A    between atoms: O_2  and  C_3
REMARK    2  A    between atoms: C_4  and  C_9
REMARK    3  A    between atoms: N_11  and  C_12
REMARK    4  A    between atoms: N_18  and  C_20
REMARK                            x       y       z     vdW  Elec       q    Type
REMARK                         _______ _______ _______ _____ _____    ______ ____
ROOT
ATOM     12  C   UNL     1      -2.858   1.925  24.796  0.00  0.00    +0.086 A 
ATOM     13  C   UNL     1      -3.667   1.762  24.798  0.00  0.00    +0.056 A 
ATOM     14  C   UNL     1      -4.481   2.188  24.783  0.00  0.00    +0.056 C 
ATOM     15  C   UNL     1      -4.766   2.829  24.762  0.00  0.00    +0.011 C 
ATOM     16  C   UNL     1      -5.023   2.056  24.785  0.00  0.00    +0.039 C 
ATOM     17  C   UNL     1      -5.521   1.203  24.810  0.00  0.00    +0.074 C 
ATOM     18  N   UNL     1      -4.881   0.667  24.829  0.00  0.00    -0.273 NA
ATOM     19  C   UNL     1      -4.977   1.373  24.807  0.00  0.00    +0.078 C 
ATOM     29  C   UNL     1      -4.177   1.602  24.802  0.00  0.00    +0.110 C 
ATOM     30  N   UNL     1      -3.930   0.980  24.822  0.00  0.00    -0.298 N 
ATOM     31  C   UNL     1      -3.384   0.362  24.843  0.00  0.00    +0.261 A 
ATOM     32  O   UNL     1      -3.138  -0.425  24.868  0.00  0.00    -0.267 OA
ATOM     33  C   UNL     1      -2.576   0.525  24.840  0.00  0.00    +0.062 A 
ATOM     34  C   UNL     1      -2.313   1.307  24.817  0.00  0.00    +0.023 A 
ENDROOT
BRANCH  18  20
ATOM     20  C   UNL     1      -4.482  -0.055  24.853  0.00  0.00    +0.061 C 
ATOM     21  C   UNL     1      -4.322  -0.461  24.153  0.00  0.00    +0.038 C 
ATOM     22  C   UNL     1      -3.924  -1.183  24.176  0.00  0.00    +0.095 C 
ATOM     23  N   UNL     1      -3.685  -1.499  24.901  0.00  0.00    -0.279 N 
ATOM     24  C   UNL     1      -3.846  -1.093  25.600  0.00  0.00    +0.095 C 
ATOM     25  C   UNL     1      -4.244  -0.371  25.577  0.00  0.00    +0.038 C 
ATOM     26  C   UNL     1      -3.287  -2.221  24.924  0.00  0.00    +0.226 C 
ATOM     27  C   UNL     1      -3.127  -2.627  24.224  0.00  0.00    +0.095 C 
ATOM     28  O   UNL     1      -3.048  -2.537  25.648  0.00  0.00    -0.275 OA
ENDBRANCH  18  20
BRANCH  12  11
ATOM      9  C   UNL     1      -1.874   2.910  25.117  0.00  0.00    +0.272 C 
ATOM     10  O   UNL     1      -1.416   2.331  25.486  0.00  0.00    -0.268 OA
ATOM     11  N   UNL     1      -2.595   2.707  24.772  0.00  0.00    -0.174 NA
BRANCH   9   4
ATOM      3  C   UNL     1      -0.919   3.882  24.688  0.00  0.00    +0.143 A 
ATOM      4  C   UNL     1      -1.611   3.692  25.094  0.00  0.00    +0.089 A 
ATOM      5  C   UNL     1      -2.041   4.283  25.476  0.00  0.00    +0.008 A 
ATOM      6  C   UNL     1      -1.778   5.065  25.453  0.00  0.00    +0.000 A 
ATOM      7  C   UNL     1      -1.085   5.255  25.047  0.00  0.00    +0.003 A 
ATOM      8  C   UNL     1      -0.656   4.663  24.664  0.00  0.00    +0.037 A 
BRANCH   3   2
ATOM      1  C   UNL     1       0.195   3.483  23.887  0.00  0.00    +0.252 C 
ATOM      2  O   UNL     1      -0.489   3.291  24.306  0.00  0.00    -0.471 OA
ENDBRANCH   3   2
ENDBRANCH   9   4
ENDBRANCH  12  11
TORSDOF 4
ENDMDL
MODEL 3
REMARK VINA RESULT:     -12.4      1.692      2.769
REMARK  Name = 
REMARK  4 active torsions:
REMARK  status: ('A' for Active; 'I' for Inactive)
REMARK    1  A    between atoms: O_2  and  C_3
REMARK    2  A    between atoms: C_4  and  C_9
REMARK    3  A    between atoms: N_11  and  C_12
REMARK    4  A    between atoms: N_18  and  C_20
REMARK                            x       y       z     vdW  Elec       q    Type
REMARK                         _______ _______ _______ _____ _____    ______ ____
ROOT
ATOM     12  C   UNL     1      -2.248   0.702  24.435  0.00  0.00    +0.086 A 
ATOM     13  C   UNL     1      -1.438   0.852  24.402  0.00  0.00    +0.056 A 
ATOM     14  C   UNL     1      -0.639   0.425  24.243  0.00  0.00    +0.056 C 
ATOM     15  C   UNL     1      -0.374  -0.205  24.083  0.00  0.00    +0.011 C 
ATOM     16  C   UNL     1      -0.096   0.547  24.226  0.00  0.00    +0.039 C 
ATOM     17  C   UNL     1       0.427   1.374  24.366  0.00  0.00    +0.074 C 
ATOM     18  N   UNL     1      -0.195   1.906  24.534  0.00  0.00    -0.273 NA
ATOM     19  C   UNL     1      -0.120   1.216  24.376  0.00  0.00    +0.078 C 
ATOM     29  C   UNL     1      -0.925   1.001  24.394  0.00  0.00    +0.110 C 
ATOM     30  N   UNL     1      -1.152   1.612  24.547  0.00  0.00    -0.298 N 
ATOM     31  C   UNL     1      -1.677   2.223  24.725  0.00  0.00    +0.261 A 
ATOM     32  O   UNL     1      -1.899   2.995  24.913  0.00  0.00    -0.267 OA
ATOM     33  C   UNL     1      -2.487   2.074  24.758  0.00  0.00    +0.062 A 
ATOM     34  C   UNL     1      -2.773   1.314  24.613  0.00  0.00    +0.023 A 
ENDROOT
BRANCH  18  20
ATOM     20  C   UNL     1      -0.570   2.617  24.722  0.00  0.00    +0.061 C 
ATOM     21  C   UNL     1      -0.763   3.151  24.124  0.00  0.00    +0.038 C 
ATOM     22  C   UNL     1      -1.138   3.862  24.312  0.00  0.00    +0.095 C 
ATOM     23  N   UNL     1      -1.320   4.038  25.098  0.00  0.00    -0.279 N 
ATOM     24  C   UNL     1      -1.128   3.502  25.694  0.00  0.00    +0.095 C 
ATOM     25  C   UNL     1      -0.753   2.792  25.508  0.00  0.00    +0.038 C 
ATOM     26  C   UNL     1      -1.695   4.748  25.284  0.00  0.00    +0.226 C 
ATOM     27  C   UNL     1      -1.888   5.283  24.688  0.00  0.00    +0.095 C 
ATOM     28  O   UNL     1      -1.878   4.923  26.070  0.00  0.00    -0.275 OA
ENDBRANCH  18  20
BRANCH  12  11
ATOM      9  C   UNL     1      -3.266  -0.288  24.593  0.00  0.00    +0.272 C 
ATOM     10  O   UNL     1      -3.713   0.243  25.040  0.00  0.00    -0.268 OA
ATOM     11  N   UNL     1      -2.534  -0.058  24.291  0.00  0.00    -0.174 NA
BRANCH   9   4
ATOM      3  C   UNL     1      -3.507  -1.625  25.036  0.00  0.00    +0.143 A 
ATOM      4  C   UNL     1      -3.552  -1.048  24.448  0.00  0.00    +0.089 A 
ATOM      5  C   UNL     1      -3.883  -1.232  23.715  0.00  0.00    +0.008 A 
ATOM      6  C   UNL     1      -4.168  -1.992  23.570  0.00  0.00    +0.000 A 
ATOM      7  C   UNL     1      -4.123  -2.569  24.158  0.00  0.00    +0.003 A 
ATOM      8  C   UNL     1      -3.792  -2.385  24.892  0.00  0.00    +0.037 A 
BRANCH   3   2
ATOM      1  C   UNL     1      -3.116  -2.022  26.352  0.00  0.00    +0.252 C 
ATOM      2  O   UNL     1      -3.176  -1.441  25.769  0.00  0.00    -0.471 OA
ENDBRANCH   3   2
ENDBRANCH   9   4
ENDBRANCH  12  11
TORSDOF 4
ENDMDL
MODEL 4
REMARK VINA RESULT:     -12.2      1.331      2.221
REMARK  Name = 
REMARK  4 active torsions:
REMARK  status: ('A' for Active; 'I' for Inactive)
REMARK    1  A    between atoms: O_2  and  C_3
REMARK    2  A    between atoms: C_4  and  C_9
REMARK    3  A    between atoms: N_11  and  C_12
REMARK    4  A    between atoms: N_18  and  C_20
REMARK                            x       y       z     vdW  Elec       q    Type
REMARK                         _______ _______ _______ _____ _____    ______ ____
ROOT
ATOM     12  C   UNL     1      -3.773   0.468  24.275  0.00  0.00    +0.086 A 
ATOM     13  C   UNL     1      -3.386   1.061  23.851  0.00  0.00    +0.056 A 
ATOM     14  C   UNL     1      -2.782   1.171  23.167  0.00  0.00    +0.056 C 
ATOM     15  C   UNL     1      -2.392   0.805  22.713  0.00  0.00    +0.011 C 
ATOM     16  C   UNL     1      -2.532   1.587  22.893  0.00  0.00    +0.039 C 
ATOM     17  C   UNL     1      -2.566   2.572  22.959  0.00  0.00    +0.074 C 
ATOM     18  N   UNL     1      -3.114   2.651  23.585  0.00  0.00    -0.273 NA
ATOM     19  C   UNL     1      -2.805   2.124  23.219  0.00  0.00    +0.078 C 
ATOM     29  C   UNL     1      -3.163   1.482  23.608  0.00  0.00    +0.110 C 
ATOM     30  N   UNL     1      -3.525   1.854  24.030  0.00  0.00    -0.298 N 
ATOM     31  C   UNL     1      -4.051   2.055  24.634  0.00  0.00    +0.261 A 
ATOM     32  O   UNL     1      -4.473   2.563  25.127  0.00  0.00    -0.267 OA
ATOM     33  C   UNL     1      -4.438   1.462  25.057  0.00  0.00    +0.062 A 
ATOM     34  C   UNL     1      -4.299   0.669  24.878  0.00  0.00    +0.023 A 
ENDROOT
BRANCH  18  20
ATOM     20  C   UNL     1      -3.597   3.020  24.143  0.00  0.00    +0.061 C 
ATOM     21  C   UNL     1      -4.374   3.218  23.951  0.00  0.00    +0.038 C 
ATOM     22  C   UNL     1      -4.856   3.587  24.510  0.00  0.00    +0.095 C 
ATOM     23  N   UNL     1      -4.561   3.759  25.261  0.00  0.00    -0.279 N 
ATOM     24  C   UNL     1      -3.784   3.561  25.453  0.00  0.00    +0.095 C 
ATOM     25  C   UNL     1      -3.301   3.192  24.895  0.00  0.00    +0.038 C 
ATOM     26  C   UNL     1      -5.043   4.128  25.819  0.00  0.00    +0.226 C 
ATOM     27  C   UNL     1      -5.820   4.326  25.627  0.00  0.00    +0.095 C 
ATOM     28  O   UNL     1      -4.747   4.299  26.570  0.00  0.00    -0.275 OA
ENDBRANCH  18  20
BRANCH  12  11
ATOM      9  C   UNL     1      -3.721  -0.901  24.679  0.00  0.00    +0.272 C 
ATOM     10  O   UNL     1      -3.946  -0.684  25.442  0.00  0.00    -0.268 OA
ATOM     11  N   UNL     1      -3.634  -0.325  24.095  0.00  0.00    -0.174 NA
BRANCH   9   4
ATOM      3  C   UNL     1      -2.876  -2.053  24.731  0.00  0.00    +0.143 A 
ATOM      4  C   UNL     1      -3.582  -1.695  24.499  0.00  0.00    +0.089 A 
ATOM      5  C   UNL     1      -4.149  -2.130  24.087  0.00  0.00    +0.008 A 
ATOM      6  C   UNL     1      -4.010  -2.923  23.908  0.00  0.00    +0.000 A 
ATOM      7  C   UNL     1      -3.304  -3.281  24.140  0.00  0.00    +0.003 A 
ATOM      8  C   UNL     1      -2.737  -2.845  24.552  0.00  0.00    +0.037 A 
BRANCH   3   2
ATOM      1  C   UNL     1      -1.542  -1.910  25.223  0.00  0.00    +0.252 C 
ATOM      2  O   UNL     1      -2.309  -1.618  25.142  0.00  0.00    -0.471 OA
ENDBRANCH   3   2
ENDBRANCH   9   4
ENDBRANCH  12  11
TORSDOF 4
ENDMDL
MODEL 5
REMARK VINA RESULT:     -11.7      2.164      4.465
REMARK  Name = 
REMARK  4 active torsions:
REMARK  status: ('A' for Active; 'I' for Inactive)
REMARK    1  A    between atoms: O_2  and  C_3
REMARK    2  A    between atoms: C_4  and  C_9
REMARK    3  A    between atoms: N_11  and  C_12
REMARK    4  A    between atoms: N_18  and  C_20
REMARK                            x       y       z     vdW  Elec       q    Type
REMARK                         _______ _______ _______ _____ _____    ______ ____
ROOT
ATOM     12  C   UNL     1      -2.955   0.715  24.748  0.00  0.00    +0.086 A 
ATOM     13  C   UNL     1      -2.727  -0.041  24.987  0.00  0.00    +0.056 A 
ATOM     14  C   UNL     1      -3.029  -0.754  25.481  0.00  0.00    +0.056 C 
ATOM     15  C   UNL     1      -3.578  -0.965  25.865  0.00  0.00    +0.011 C 
ATOM     16  C   UNL     1      -2.856  -1.262  25.632  0.00  0.00    +0.039 C 
ATOM     17  C   UNL     1      -2.038  -1.789  25.457  0.00  0.00    +0.074 C 
ATOM     18  N   UNL     1      -1.620  -1.244  24.982  0.00  0.00    -0.273 NA
ATOM     19  C   UNL     1      -2.245  -1.275  25.321  0.00  0.00    +0.078 C 
ATOM     29  C   UNL     1      -2.532  -0.522  25.114  0.00  0.00    +0.110 C 
ATOM     30  N   UNL     1      -1.997  -0.345  24.753  0.00  0.00    -0.298 N 
ATOM     31  C   UNL     1      -1.495   0.107  24.279  0.00  0.00    +0.261 A 
ATOM     32  O   UNL     1      -0.811   0.270  23.847  0.00  0.00    -0.267 OA
ATOM     33  C   UNL     1      -1.723   0.862  24.040  0.00  0.00    +0.062 A 
ATOM     34  C   UNL     1      -2.453   1.166  24.274  0.00  0.00    +0.023 A 
ENDROOT
BRANCH  18  20
ATOM     20  C   UNL     1      -1.009  -0.935  24.520  0.00  0.00    +0.061 C 
ATOM     21  C   UNL     1      -0.423  -0.470  24.868  0.00  0.00    +0.038 C 
ATOM     22  C   UNL     1       0.187  -0.162  24.406  0.00  0.00    +0.095 C 
ATOM     23  N   UNL     1       0.211  -0.319  23.596  0.00  0.00    -0.279 N 
ATOM     24  C   UNL     1      -0.375  -0.784  23.249  0.00  0.00    +0.095 C 
ATOM     25  C   UNL     1      -0.985  -1.092  23.710  0.00  0.00    +0.038 C 
ATOM     26  C   UNL     1       0.821  -0.011  23.134  0.00  0.00    +0.226 C 
ATOM     27  C   UNL     1       1.407   0.454  23.481  0.00  0.00    +0.095 C 
ATOM     28  O   UNL     1       0.845  -0.168  22.324  0.00  0.00    -0.275 OA
ENDBRANCH  18  20
BRANCH  12  11
ATOM      9  C   UNL     1      -3.928   1.761  24.715  0.00  0.00    +0.272 C 
ATOM     10  O   UNL     1      -3.440   2.198  24.214  0.00  0.00    -0.268 OA
ATOM     11  N   UNL     1      -3.686   1.019  24.982  0.00  0.00    -0.174 NA
BRANCH   9   4
ATOM      3  C   UNL     1      -4.693   2.761  25.391  0.00  0.00    +0.143 A 
ATOM      4  C   UNL     1      -4.658   2.065  24.950  0.00  0.00    +0.089 A 
ATOM      5  C   UNL     1      -5.354   1.674  24.742  0.00  0.00    +0.008 A 
ATOM      6  C   UNL     1      -6.084   1.978  24.977  0.00  0.00    +0.000 A 
ATOM      7  C   UNL     1      -6.119   2.674  25.419  0.00  0.00    +0.003 A 
ATOM      8  C   UNL     1      -5.422   3.065  25.626  0.00  0.00    +0.037 A 
BRANCH   3   2
ATOM      1  C   UNL     1      -4.032   3.862  26.019  0.00  0.00    +0.252 C 
ATOM      2  O   UNL     1      -3.997   3.153  25.599  0.00  0.00    -0.471 OA
ENDBRANCH   3   2
ENDBRANCH   9   4
ENDBRANCH  12  11
TORSDOF 4
ENDMDL
MODEL 6
REMARK VINA RESULT:     -11.5      1.932      5.563
REMARK  Name = 
REMARK  4 active torsions:
REMARK  status: ('A' for Active; 'I' for Inactive)
REMARK    1  A    between atoms: O_2  and  C_3
REMARK    2  A    between atoms: C_4  and  C_9
REMARK    3  A    between atoms: N_11  and  C_12
REMARK    4  A    between atoms: N_18  and  C_20
REMARK                            x       y       z     vdW  Elec       q    Type
REMARK                         _______ _______ _______ _____ _____    ______ ____
ROOT
ATOM     12  C   UNL     1      -1.716   1.257  24.730  0.00  0.00    +0.086 A 
ATOM     13  C   UNL     1      -1.130   0.733  24.480  0.00  0.00    +0.056 A 
ATOM     14  C   UNL     1      -0.264   0.725  24.173  0.00  0.00    +0.056 C 
ATOM     15  C   UNL     1       0.269   1.155  24.019  0.00  0.00    +0.011 C 
ATOM     16  C   UNL     1       0.118   0.354  24.008  0.00  0.00    +0.039 C 
ATOM     17  C   UNL     1       0.128  -0.630  23.924  0.00  0.00    +0.074 C 
ATOM     18  N   UNL     1      -0.647  -0.801  24.184  0.00  0.00    -0.273 NA
ATOM     19  C   UNL     1      -0.239  -0.225  24.087  0.00  0.00    +0.078 C 
ATOM     29  C   UNL     1      -0.787   0.353  24.328  0.00  0.00    +0.110 C 
ATOM     30  N   UNL     1      -1.280  -0.078  24.467  0.00  0.00    -0.298 N 
ATOM     31  C   UNL     1      -2.016  -0.366  24.704  0.00  0.00    +0.261 A 
ATOM     32  O   UNL     1      -2.586  -0.941  24.858  0.00  0.00    -0.267 OA
ATOM     33  C   UNL     1      -2.602   0.158  24.953  0.00  0.00    +0.062 A 
ATOM     34  C   UNL     1      -2.453   0.969  24.967  0.00  0.00    +0.023 A 
ENDROOT
BRANCH  18  20
ATOM     20  C   UNL     1      -1.311  -1.249  24.383  0.00  0.00    +0.061 C 
ATOM     21  C   UNL     1      -1.877  -1.424  23.809  0.00  0.00    +0.038 C 
ATOM     22  C   UNL     1      -2.541  -1.872  24.007  0.00  0.00    +0.095 C 
ATOM     23  N   UNL     1      -2.639  -2.144  24.780  0.00  0.00    -0.279 N 
ATOM     24  C   UNL     1      -2.073  -1.969  25.353  0.00  0.00    +0.095 C 
ATOM     25  C   UNL     1      -1.410  -1.521  25.156  0.00  0.00    +0.038 C 
ATOM     26  C   UNL     1      -3.303  -2.592  24.978  0.00  0.00    +0.226 C 
ATOM     27  C   UNL     1      -3.869  -2.767  24.404  0.00  0.00    +0.095 C 
ATOM     28  O   UNL     1      -3.401  -2.864  25.751  0.00  0.00    -0.275 OA
ENDBRANCH  18  20
BRANCH  12  11
ATOM      9  C   UNL     1      -2.089   2.578  25.127  0.00  0.00    +0.272 C 
ATOM     10  O   UNL     1      -2.761   2.276  25.498  0.00  0.00    -0.268 OA
ATOM     11  N   UNL     1      -1.567   2.068  24.743  0.00  0.00    -0.174 NA
BRANCH   9   4
ATOM      3  C   UNL     1      -2.507   3.918  24.860  0.00  0.00    +0.143 A 
ATOM      4  C   UNL     1      -1.939   3.389  25.140  0.00  0.00    +0.089 A 
ATOM      5  C   UNL     1      -1.222   3.672  25.434  0.00  0.00    +0.008 A 
ATOM      6  C   UNL     1      -1.072   4.483  25.447  0.00  0.00    +0.000 A 
ATOM      7  C   UNL     1      -1.639   5.012  25.166  0.00  0.00    +0.003 A 
ATOM      8  C   UNL     1      -2.357   4.729  24.873  0.00  0.00    +0.037 A 
BRANCH   3   2
ATOM      1  C   UNL     1      -3.801   4.165  24.308  0.00  0.00    +0.252 C 
ATOM      2  O   UNL     1      -3.224   3.636  24.566  0.00  0.00    -0.471 OA
ENDBRANCH   3   2
ENDBRANCH   9   4
ENDBRANCH  12  11
TORSDOF 4
ENDMDL
MODEL 7
REMARK VINA RESULT:     -11.5      2.025      3.366
REMARK  Name = 
REMARK  4 active torsions:
REMARK  status: ('A' for Active; 'I' for Inactive)
REMARK    1  A    between atoms: O_2  and  C_3
REMARK    2  A    between atoms: C_4  and  C_9
REMARK    3  A    between atoms: N_11  and  C_12
REMARK    4  A    between atoms: N_18  and  C_20
REMARK                            x       y       z     vdW  Elec       q    Type
REMARK                         _______ _______ _______ _____ _____    ______ ____
ROOT
ATOM     12  C   UNL     1      -1.671   1.961  24.626  0.00  0.00    +0.086 A 
ATOM     13  C   UNL     1      -1.606   2.763  24.807  0.00  0.00    +0.056 A 
ATOM     14  C   UNL     1      -0.984   3.439  24.844  0.00  0.00    +0.056 C 
ATOM     15  C   UNL     1      -0.302   3.565  24.736  0.00  0.00    +0.011 C 
ATOM     16  C   UNL     1      -0.963   3.981  24.971  0.00  0.00    +0.039 C 
ATOM     17  C   UNL     1      -1.632   4.644  25.267  0.00  0.00    +0.074 C 
ATOM     18  N   UNL     1      -2.311   4.158  25.288  0.00  0.00    -0.273 NA
ATOM     19  C   UNL     1      -1.620   4.091  25.131  0.00  0.00    +0.078 C 
ATOM     29  C   UNL     1      -1.619   3.282  24.935  0.00  0.00    +0.110 C 
ATOM     30  N   UNL     1      -2.273   3.187  25.045  0.00  0.00    -0.298 N 
ATOM     31  C   UNL     1      -3.004   2.809  25.103  0.00  0.00    +0.261 A 
ATOM     32  O   UNL     1      -3.812   2.752  25.253  0.00  0.00    -0.267 OA
ATOM     33  C   UNL     1      -3.068   2.007  24.922  0.00  0.00    +0.062 A 
ATOM     34  C   UNL     1      -2.402   1.583  24.684  0.00  0.00    +0.023 A 
ENDROOT
BRANCH  18  20
ATOM     20  C   UNL     1      -3.101   3.942  25.396  0.00  0.00    +0.061 C 
ATOM     21  C   UNL     1      -3.629   3.980  24.764  0.00  0.00    +0.038 C 
ATOM     22  C   UNL     1      -4.418   3.764  24.872  0.00  0.00    +0.095 C 
ATOM     23  N   UNL     1      -4.679   3.511  25.614  0.00  0.00    -0.279 N 
ATOM     24  C   UNL     1      -4.150   3.474  26.245  0.00  0.00    +0.095 C 
ATOM     25  C   UNL     1      -3.361   3.689  26.138  0.00  0.00    +0.038 C 
ATOM     26  C   UNL     1      -5.467   3.295  25.721  0.00  0.00    +0.226 C 
ATOM     27  C   UNL     1      -5.996   3.332  25.090  0.00  0.00    +0.095 C 
ATOM     28  O   UNL     1      -5.728   3.043  26.463  0.00  0.00    -0.275 OA
ENDBRANCH  18  20
BRANCH  12  11
ATOM      9  C   UNL     1      -1.086   0.771  24.094  0.00  0.00    +0.272 C 
ATOM     10  O   UNL     1      -1.835   0.429  24.038  0.00  0.00    -0.268 OA
ATOM     11  N   UNL     1      -1.004   1.537  24.388  0.00  0.00    -0.174 NA
BRANCH   9   4
ATOM      3  C   UNL     1      -0.226  -0.362  24.231  0.00  0.00    +0.143 A 
ATOM      4  C   UNL     1      -0.420   0.347  23.856  0.00  0.00    +0.089 A 
ATOM      5  C   UNL     1       0.053   0.631  23.243  0.00  0.00    +0.008 A 
ATOM      6  C   UNL     1       0.719   0.207  23.005  0.00  0.00    +0.000 A 
ATOM      7  C   UNL     1       0.913  -0.502  23.380  0.00  0.00    +0.003 A 
ATOM      8  C   UNL     1       0.440  -0.786  23.993  0.00  0.00    +0.037 A 
BRANCH   3   2
ATOM      1  C   UNL     1      -0.522  -1.369  25.200  0.00  0.00    +0.252 C 
ATOM      2  O   UNL     1      -0.699  -0.647  24.844  0.00  0.00    -0.471 OA
ENDBRANCH   3   2
ENDBRANCH   9   4
ENDBRANCH  12  11
TORSDOF 4
ENDMDL
