MODEL 1
REMARK VINA RESULT:     -10.2      0.000      0.000
REMARK  Name = 
REMARK  7 active torsions:
REMARK  status: ('A' for Active; 'I' for Inactive)
REMARK    1  A    between atoms: O_2  and  C_3
REMARK    2  A    between atoms: C_3  and  C_4
REMARK    3  A    between atoms: C_4  and  O_5
REMARK    4  A    between atoms: O_5  and  C_6
REMARK    5  A    between atoms: C_8  and  C_12
REMARK    6  A    between atoms: C_15  and  C_17
REMARK    7  A    between atoms: N_21  and  C_22
REMARK                            x       y       z     vdW  Elec       q    Type
REMARK                         _______ _______ _______ _____ _____    ______ ____
ROOT
ATOM     12  C   UNL     1      -3.934   0.976  24.349  0.00  0.00    +0.221 A 
ATOM     13  N   UNL     1      -3.514   0.899  23.643  0.00  0.00    -0.054 NA
ATOM     14  O   UNL     1      -3.356   0.099  23.525  0.00  0.00    -0.336 OA
ATOM     15  C   UNL     1      -3.679  -0.320  24.159  0.00  0.00    +0.251 A 
ATOM     16  N   UNL     1      -4.036   0.222  24.667  0.00  0.00    -0.188 NA
ENDROOT
BRANCH  12   8
ATOM      6  C   UNL     1      -3.942   2.917  25.347  0.00  0.00    +0.142 A 
ATOM      7  C   UNL     1      -3.671   2.211  25.018  0.00  0.00    +0.059 A 
ATOM      8  C   UNL     1      -4.205   1.682  24.678  0.00  0.00    +0.123 A 
ATOM      9  N   UNL     1      -5.011   1.861  24.667  0.00  0.00    -0.240 NA
ATOM     10  C   UNL     1      -5.282   2.567  24.996  0.00  0.00    +0.102 A 
ATOM     11  C   UNL     1      -4.747   3.095  25.336  0.00  0.00    +0.058 A 
BRANCH   6   5
ATOM      5  O   UNL     1      -3.407   3.445  25.687  0.00  0.00    -0.473 OA
BRANCH   5   4
ATOM      4  C   UNL     1      -2.915   3.901  25.206  0.00  0.00    +0.237 C 
BRANCH   4   3
ATOM      3  C   UNL     1      -2.265   4.290  25.531  0.00  0.00    +0.189 C 
BRANCH   3   2
ATOM      1  C   UNL     1      -1.114   4.995  25.061  0.00  0.00    +0.174 C 
ATOM      2  O   UNL     1      -1.934   4.937  25.142  0.00  0.00    -0.347 OA
ENDBRANCH   3   2
ENDBRANCH   4   3
ENDBRANCH   5   4
ENDBRANCH   6   5
ENDBRANCH  12   8
BRANCH  15  17
ATOM     17  C   UNL     1      -3.650  -1.138  24.264  0.00  0.00    +0.138 C 
ATOM     18  C   UNL     1      -4.238  -1.676  24.054  0.00  0.00    +0.027 C 
ATOM     19  C   UNL     1      -3.977  -2.432  24.258  0.00  0.00    +0.019 C 
ATOM     20  C   UNL     1      -3.227  -2.360  24.595  0.00  0.00    +0.072 C 
ATOM     21  N   UNL     1      -3.024  -1.561  24.599  0.00  0.00    -0.268 NA
BRANCH  21  22
ATOM     22  C   UNL     1      -2.321  -1.239  24.887  0.00  0.00    +0.063 C 
ATOM     23  C   UNL     1      -2.265  -1.016  25.679  0.00  0.00    +0.048 C 
ATOM     24  C   UNL     1      -1.562  -0.694  25.968  0.00  0.00    +0.144 C 
ATOM     25  O   UNL     1      -0.916  -0.596  25.464  0.00  0.00    -0.354 OA
ATOM     26  C   UNL     1      -0.973  -0.819  24.672  0.00  0.00    +0.144 C 
ATOM     27  C   UNL     1      -1.676  -1.141  24.383  0.00  0.00    +0.048 C 
ENDBRANCH  21  22
ENDBRANCH  15  17
TORSDOF 7
ENDMDL
MODEL 2
REMARK VINA RESULT:      -9.6      1.790      4.586
REMARK  Name = 
REMARK  7 active torsions:
REMARK  status: ('A' for Active; 'I' for Inactive)
REMARK    1  A    between atoms: O_2  and  C_3
REMARK    2  A    between atoms: C_3  and  C_4
REMARK    3  A    between atoms: C_4  and  O_5
REMARK    4  A    between atoms: O_5  and  C_6
REMARK    5  A    between atoms: C_8  and  C_12
REMARK    6  A    between atoms: C_15  and  C_17
REMARK    7  A    between atoms: N_21  and  C_22
REMARK                            x       y       z     vdW  Elec       q    Type
REMARK                         _______ _______ _______ _____ _____    ______ ____
ROOT
ATOM     12  C   UNL     1      -3.346   2.412  24.471  0.00  0.00    +0.221 A 
ATOM     13  N   UNL     1      -3.000   2.472  23.725  0.00  0.00    -0.054 NA
ATOM     14  O   UNL     1      -2.420   3.056  23.759  0.00  0.00    -0.336 OA
ATOM     15  C   UNL     1      -2.408   3.359  24.528  0.00  0.00    +0.251 A 
ATOM     16  N   UNL     1      -2.980   2.960  24.966  0.00  0.00    -0.188 NA
ENDROOT
BRANCH  12   8
ATOM      6  C   UNL     1      -4.391   0.583  25.048  0.00  0.00    +0.142 A 
ATOM      7  C   UNL     1      -3.785   1.101  24.834  0.00  0.00    +0.059 A 
ATOM      8  C   UNL     1      -3.953   1.894  24.684  0.00  0.00    +0.123 A 
ATOM      9  N   UNL     1      -4.728   2.170  24.747  0.00  0.00    -0.240 NA
ATOM     10  C   UNL     1      -5.335   1.653  24.960  0.00  0.00    +0.102 A 
ATOM     11  C   UNL     1      -5.165   0.859  25.110  0.00  0.00    +0.058 A 
BRANCH   6   5
ATOM      5  O   UNL     1      -4.222  -0.210  25.198  0.00  0.00    -0.473 OA
BRANCH   5   4
ATOM      4  C   UNL     1      -4.183  -0.748  24.574  0.00  0.00    +0.237 C 
BRANCH   4   3
ATOM      3  C   UNL     1      -3.935  -1.523  24.711  0.00  0.00    +0.189 C 
BRANCH   3   2
ATOM      1  C   UNL     1      -3.669  -2.838  24.220  0.00  0.00    +0.174 C 
ATOM      2  O   UNL     1      -4.002  -2.090  24.116  0.00  0.00    -0.347 OA
ENDBRANCH   3   2
ENDBRANCH   4   3
ENDBRANCH   5   4
ENDBRANCH   6   5
ENDBRANCH  12   8
BRANCH  15  17
ATOM     17  C   UNL     1      -1.910   3.955  24.805  0.00  0.00    +0.138 C 
ATOM     18  C   UNL     1      -2.099   4.754  24.870  0.00  0.00    +0.027 C 
ATOM     19  C   UNL     1      -1.440   5.149  25.172  0.00  0.00    +0.019 C 
ATOM     20  C   UNL     1      -0.844   4.592  25.294  0.00  0.00    +0.072 C 
ATOM     21  N   UNL     1      -1.133   3.854  25.068  0.00  0.00    -0.268 NA
BRANCH  21  22
ATOM     22  C   UNL     1      -0.721   3.140  25.098  0.00  0.00    +0.063 C 
ATOM     23  C   UNL     1      -0.320   2.868  24.429  0.00  0.00    +0.048 C 
ATOM     24  C   UNL     1       0.093   2.154  24.459  0.00  0.00    +0.144 C 
ATOM     25  O   UNL     1       0.104   1.712  25.156  0.00  0.00    -0.354 OA
ATOM     26  C   UNL     1      -0.297   1.984  25.823  0.00  0.00    +0.144 C 
ATOM     27  C   UNL     1      -0.709   2.699  25.794  0.00  0.00    +0.048 C 
ENDBRANCH  21  22
ENDBRANCH  15  17
TORSDOF 7
ENDMDL
MODEL 3
REMARK VINA RESULT:      -9.4      1.438      4.397
REMARK  Name = 
REMARK  7 active torsions:
REMARK  status: ('A' for Active; 'I' for Inactive)
REMARK    1  A    between atoms: O_2  and  C_3
REMARK    2  A    between atoms: C_3  and  C_4
REMARK    3  A    between atoms: C_4  and  O_5
REMARK    4  A    between atoms: O_5  and  C_6
REMARK    5  A    between atoms: C_8  and  C_12
REMARK    6  A    between atoms: C_15  and  C_17
REMARK    7  A    between atoms: N_21  and  C_22
REMARK                            x       y       z     vdW  Elec       q    Type
REMARK                         _______ _______ _______ _____ _____    ______ ____
ROOT
ATOM     12  C   UNL     1      -3.028   0.591  24.434  0.00  0.00    +0.221 A 
ATOM     13  N   UNL     1      -3.280   0.851  23.693  0.00  0.00    -0.054 NA
ATOM     14  O   UNL     1      -3.946   1.324  23.801  0.00  0.00    -0.336 OA
ATOM     15  C   UNL     1      -4.107   1.356  24.610  0.00  0.00    +0.251 A 
ATOM     16  N   UNL     1      -3.540   0.903  25.000  0.00  0.00    -0.188 NA
ENDROOT
BRANCH  12   8
ATOM      6  C   UNL     1      -0.972  -0.139  24.515  0.00  0.00    +0.142 A 
ATOM      7  C   UNL     1      -1.621   0.348  24.366  0.00  0.00    +0.059 A 
ATOM      8  C   UNL     1      -2.379   0.104  24.583  0.00  0.00    +0.123 A 
ATOM      9  N   UNL     1      -2.487  -0.628  24.949  0.00  0.00    -0.240 NA
ATOM     10  C   UNL     1      -1.838  -1.115  25.098  0.00  0.00    +0.102 A 
ATOM     11  C   UNL     1      -1.081  -0.870  24.880  0.00  0.00    +0.058 A 
BRANCH   6   5
ATOM      5  O   UNL     1      -0.215   0.106  24.298  0.00  0.00    -0.473 OA
BRANCH   5   4
ATOM      4  C   UNL     1       0.143  -0.210  23.624  0.00  0.00    +0.237 C 
BRANCH   4   3
ATOM      3  C   UNL     1       0.872   0.079  23.370  0.00  0.00    +0.189 C 
BRANCH   3   2
ATOM      1  C   UNL     1       1.997  -0.005  22.493  0.00  0.00    +0.174 C 
ATOM      2  O   UNL     1       1.236  -0.245  22.705  0.00  0.00    -0.347 OA
ENDBRANCH   3   2
ENDBRANCH   4   3
ENDBRANCH   5   4
ENDBRANCH   6   5
ENDBRANCH  12   8
BRANCH  15  17
ATOM     17  C   UNL     1      -4.727   1.770  24.964  0.00  0.00    +0.138 C 
ATOM     18  C   UNL     1      -5.460   1.458  25.175  0.00  0.00    +0.027 C 
ATOM     19  C   UNL     1      -5.908   2.065  25.510  0.00  0.00    +0.019 C 
ATOM     20  C   UNL     1      -5.451   2.751  25.506  0.00  0.00    +0.072 C 
ATOM     21  N   UNL     1      -4.721   2.570  25.169  0.00  0.00    -0.268 NA
BRANCH  21  22
ATOM     22  C   UNL     1      -4.094   3.094  25.055  0.00  0.00    +0.063 C 
ATOM     23  C   UNL     1      -3.553   3.226  25.665  0.00  0.00    +0.048 C 
ATOM     24  C   UNL     1      -2.926   3.751  25.552  0.00  0.00    +0.144 C 
ATOM     25  O   UNL     1      -2.840   4.142  24.830  0.00  0.00    -0.354 OA
ATOM     26  C   UNL     1      -3.381   4.010  24.222  0.00  0.00    +0.144 C 
ATOM     27  C   UNL     1      -4.008   3.485  24.335  0.00  0.00    +0.048 C 
ENDBRANCH  21  22
ENDBRANCH  15  17
TORSDOF 7
ENDMDL
MODEL 4
REMARK VINA RESULT:      -9.3      1.697      5.247
REMARK  Name = 
REMARK  7 active torsions:
REMARK  status: ('A' for Active; 'I' for Inactive)
REMARK    1  A    between atoms: O_2  and  C_3
REMARK    2  A    between atoms: C_3  and  C_4
REMARK    3  A    between atoms: C_4  and  O_5
REMARK    4  A    between atoms: O_5  and  C_6
REMARK    5  A    between atoms: C_8  and  C_12
REMARK    6  A    between atoms: C_15  and  C_17
REMARK    7  A    between atoms: N_21  and  C_22
REMARK                            x       y       z     vdW  Elec       q    Type
REMARK                         _______ _______ _______ _____ _____    ______ ____
ROOT
ATOM     12  C   UNL     1      -1.344   1.313  24.340  0.00  0.00    +0.221 A 
ATOM     13  N   UNL     1      -1.467   1.616  23.583  0.00  0.00    -0.054 NA
ATOM     14  O   UNL     1      -1.587   2.429  23.649  0.00  0.00    -0.336 OA
ATOM     15  C   UNL     1      -1.537   2.629  24.449  0.00  0.00    +0.251 A 
ATOM     16  N   UNL     1      -1.387   1.939  24.875  0.00  0.00    -0.188 NA
ENDROOT
BRANCH  12   8
ATOM      6  C   UNL     1      -1.684  -0.754  24.956  0.00  0.00    +0.142 A 
ATOM      7  C   UNL     1      -1.825   0.037  24.767  0.00  0.00    +0.059 A 
ATOM      8  C   UNL     1      -1.203   0.522  24.529  0.00  0.00    +0.123 A 
ATOM      9  N   UNL     1      -0.437   0.216  24.479  0.00  0.00    -0.240 NA
ATOM     10  C   UNL     1      -0.296  -0.574  24.667  0.00  0.00    +0.102 A 
ATOM     11  C   UNL     1      -0.920  -1.059  24.906  0.00  0.00    +0.058 A 
BRANCH   6   5
ATOM      5  O   UNL     1      -2.308  -1.238  25.195  0.00  0.00    -0.473 OA
BRANCH   5   4
ATOM      4  C   UNL     1      -2.647  -1.767  24.659  0.00  0.00    +0.237 C 
BRANCH   4   3
ATOM      3  C   UNL     1      -3.359  -2.141  24.843  0.00  0.00    +0.189 C 
BRANCH   3   2
ATOM      1  C   UNL     1      -4.315  -2.611  23.891  0.00  0.00    +0.174 C 
ATOM      2  O   UNL     1      -3.647  -2.742  24.357  0.00  0.00    -0.347 OA
ENDBRANCH   3   2
ENDBRANCH   4   3
ENDBRANCH   5   4
ENDBRANCH   6   5
ENDBRANCH  12   8
BRANCH  15  17
ATOM     17  C   UNL     1      -1.623   3.386  24.765  0.00  0.00    +0.138 C 
ATOM     18  C   UNL     1      -1.010   3.895  24.978  0.00  0.00    +0.027 C 
ATOM     19  C   UNL     1      -1.347   4.591  25.268  0.00  0.00    +0.019 C 
ATOM     20  C   UNL     1      -2.167   4.511  25.234  0.00  0.00    +0.072 C 
ATOM     21  N   UNL     1      -2.338   3.767  24.924  0.00  0.00    -0.268 NA
BRANCH  21  22
ATOM     22  C   UNL     1      -3.091   3.456  24.793  0.00  0.00    +0.063 C 
ATOM     23  C   UNL     1      -3.496   3.085  25.410  0.00  0.00    +0.048 C 
ATOM     24  C   UNL     1      -4.249   2.774  25.281  0.00  0.00    +0.144 C 
ATOM     25  O   UNL     1      -4.598   2.834  24.535  0.00  0.00    -0.354 OA
ATOM     26  C   UNL     1      -4.193   3.204  23.919  0.00  0.00    +0.144 C 
ATOM     27  C   UNL     1      -3.440   3.515  24.049  0.00  0.00    +0.048 C 
ENDBRANCH  21  22
ENDBRANCH  15  17
TORSDOF 7
ENDMDL
MODEL 5
REMARK VINA RESULT:      -9.2      1.685      3.060
REMARK  Name = 
REMARK  7 active torsions:
REMARK  status: ('A' for Active; 'I' for Inactive)
REMARK    1  A    between atoms: O_2  and  C_3
REMARK    2  A    between atoms: C_3  and  C_4
REMARK    3  A    between atoms: C_4  and  O_5
REMARK    4  A    between atoms: O_5  and  C_6
REMARK    5  A    between atoms: C_8  and  C_12
REMARK    6  A    between atoms: C_15  and  C_17
REMARK    7  A    between atoms: N_21  and  C_22
REMARK                            x       y       z     vdW  Elec       q    Type
REMARK                         _______ _______ _______ _____ _____    ______ ____
ROOT
ATOM     12  C   UNL     1      -1.135  -0.062  24.984  0.00  0.00    +0.221 A 
ATOM     13  N   UNL     1      -1.261  -0.279  25.770  0.00  0.00    -0.054 NA
ATOM     14  O   UNL     1      -1.831  -0.874  25.782  0.00  0.00    -0.336 OA
ATOM     15  C   UNL     1      -2.058  -1.026  25.003  0.00  0.00    +0.251 A 
ATOM     16  N   UNL     1      -1.628  -0.524  24.510  0.00  0.00    -0.188 NA
ENDROOT
BRANCH  12   8
ATOM      6  C   UNL     1      -0.087   1.843  24.793  0.00  0.00    +0.142 A 
ATOM      7  C   UNL     1      -0.614   1.266  25.059  0.00  0.00    +0.059 A 
ATOM      8  C   UNL     1      -0.609   0.515  24.718  0.00  0.00    +0.123 A 
ATOM      9  N   UNL     1      -0.077   0.341  24.111  0.00  0.00    -0.240 NA
ATOM     10  C   UNL     1       0.449   0.918  23.846  0.00  0.00    +0.102 A 
ATOM     11  C   UNL     1       0.443   1.669  24.187  0.00  0.00    +0.058 A 
BRANCH   6   5
ATOM      5  O   UNL     1      -0.093   2.594  25.135  0.00  0.00    -0.473 OA
BRANCH   5   4
ATOM      4  C   UNL     1      -0.572   3.187  24.819  0.00  0.00    +0.237 C 
BRANCH   4   3
ATOM      3  C   UNL     1      -0.687   3.891  25.234  0.00  0.00    +0.189 C 
BRANCH   3   2
ATOM      1  C   UNL     1      -1.476   5.079  25.159  0.00  0.00    +0.174 C 
ATOM      2  O   UNL     1      -0.910   4.576  24.832  0.00  0.00    -0.347 OA
ENDBRANCH   3   2
ENDBRANCH   4   3
ENDBRANCH   5   4
ENDBRANCH   6   5
ENDBRANCH  12   8
BRANCH  15  17
ATOM     17  C   UNL     1      -2.617  -1.582  24.761  0.00  0.00    +0.138 C 
ATOM     18  C   UNL     1      -2.477  -2.384  24.626  0.00  0.00    +0.027 C 
ATOM     19  C   UNL     1      -3.189  -2.730  24.393  0.00  0.00    +0.019 C 
ATOM     20  C   UNL     1      -3.768  -2.143  24.385  0.00  0.00    +0.072 C 
ATOM     21  N   UNL     1      -3.416  -1.434  24.612  0.00  0.00    -0.268 NA
BRANCH  21  22
ATOM     22  C   UNL     1      -3.793  -0.703  24.679  0.00  0.00    +0.063 C 
ATOM     23  C   UNL     1      -4.112  -0.470  25.403  0.00  0.00    +0.048 C 
ATOM     24  C   UNL     1      -4.490   0.261  25.471  0.00  0.00    +0.144 C 
ATOM     25  O   UNL     1      -4.547   0.758  24.815  0.00  0.00    -0.354 OA
ATOM     26  C   UNL     1      -4.227   0.525  24.092  0.00  0.00    +0.144 C 
ATOM     27  C   UNL     1      -3.850  -0.206  24.024  0.00  0.00    +0.048 C 
ENDBRANCH  21  22
ENDBRANCH  15  17
TORSDOF 7
ENDMDL
MODEL 6
REMARK VINA RESULT:      -8.9      2.135      3.916
REMARK  Name = 
REMARK  7 active torsions:
REMARK  status: ('A' for Active; 'I' for Inactive)
REMARK    1  A    between atoms: O_2  and  C_3
REMARK    2  A    between atoms: C_3  and  C_4
REMARK    3  A    between atoms: C_4  and  O_5
REMARK    4  A    between atoms: O_5  and  C_6
REMARK    5  A    between atoms: C_8  and  C_12
REMARK    6  A    between atoms: C_15  and  C_17
REMARK    7  A    between atoms: N_21  and  C_22
REMARK                            x       y       z     vdW  Elec       q    Type
REMARK                         _______ _______ _______ _____ _____    ______ ____
ROOT
ATOM     12  C   UNL     1      -2.213   1.594  23.996  0.00  0.00    +0.221 A 
ATOM     13  N   UNL     1      -2.593   1.477  23.273  0.00  0.00    -0.054 NA
ATOM     14  O   UNL     1      -3.401   1.400  23.418  0.00  0.00    -0.336 OA
ATOM     15  C   UNL     1      -3.521   1.470  24.232  0.00  0.00    +0.251 A 
ATOM     16  N   UNL     1      -2.787   1.590  24.588  0.00  0.00    -0.188 NA
ENDROOT
BRANCH  12   8
ATOM      6  C   UNL     1      -0.069   1.187  24.045  0.00  0.00    +0.142 A 
ATOM      7  C   UNL     1      -0.880   1.083  23.934  0.00  0.00    +0.059 A 
ATOM      8  C   UNL     1      -1.403   1.698  24.107  0.00  0.00    +0.123 A 
ATOM      9  N   UNL     1      -1.113   2.417  24.391  0.00  0.00    -0.240 NA
ATOM     10  C   UNL     1      -0.302   2.521  24.502  0.00  0.00    +0.102 A 
ATOM     11  C   UNL     1       0.219   1.905  24.329  0.00  0.00    +0.058 A 
BRANCH   6   5
ATOM      5  O   UNL     1       0.452   0.571  23.872  0.00  0.00    -0.473 OA
BRANCH   5   4
ATOM      4  C   UNL     1       0.968   0.637  23.232  0.00  0.00    +0.237 C 
BRANCH   4   3
ATOM      3  C   UNL     1       1.492   0.023  23.059  0.00  0.00    +0.189 C 
BRANCH   3   2
ATOM      1  C   UNL     1       2.741   0.025  22.365  0.00  0.00    +0.174 C 
ATOM      2  O   UNL     1       1.916   0.029  22.351  0.00  0.00    -0.347 OA
ENDBRANCH   3   2
ENDBRANCH   4   3
ENDBRANCH   5   4
ENDBRANCH   6   5
ENDBRANCH  12   8
BRANCH  15  17
ATOM     17  C   UNL     1      -4.248   1.427  24.619  0.00  0.00    +0.138 C 
ATOM     18  C   UNL     1      -4.741   2.063  24.798  0.00  0.00    +0.027 C 
ATOM     19  C   UNL     1      -5.408   1.767  25.185  0.00  0.00    +0.019 C 
ATOM     20  C   UNL     1      -5.326   0.949  25.245  0.00  0.00    +0.072 C 
ATOM     21  N   UNL     1      -4.610   0.737  24.895  0.00  0.00    -0.268 NA
BRANCH  21  22
ATOM     22  C   UNL     1      -4.307  -0.027  24.832  0.00  0.00    +0.063 C 
ATOM     23  C   UNL     1      -3.868  -0.348  25.454  0.00  0.00    +0.048 C 
ATOM     24  C   UNL     1      -3.564  -1.113  25.391  0.00  0.00    +0.144 C 
ATOM     25  O   UNL     1      -3.699  -1.557  24.708  0.00  0.00    -0.354 OA
ATOM     26  C   UNL     1      -4.137  -1.235  24.088  0.00  0.00    +0.144 C 
ATOM     27  C   UNL     1      -4.441  -0.470  24.150  0.00  0.00    +0.048 C 
ENDBRANCH  21  22
ENDBRANCH  15  17
TORSDOF 7
ENDMDL
MODEL 7
REMARK VINA RESULT:      -8.9      1.467      2.723
REMARK  Name = 
REMARK  7 active torsions:
REMARK  status: ('A' for Active; 'I' for Inactive)
REMARK    1  A    between atoms: O_2  and  C_3
REMARK    2  A    between atoms: C_3  and  C_4
REMARK    3  A    between atoms: C_4  and  O_5
REMARK    4  A    between atoms: O_5  and  C_6
REMARK    5  A    between atoms: C_8  and  C_12
REMARK    6  A    between atoms: C_15  and  C_17
REMARK    7  A    between atoms: N_21  and  C_22
REMARK                            x       y       z     vdW  Elec       q    Type
REMARK                         _______ _______ _______ _____ _____    ______ ____
ROOT
ATOM     12  C   UNL     1      -1.719   1.697  24.659  0.00  0.00    +0.221 A 
ATOM     13  N   UNL     1      -1.691   1.487  23.862  0.00  0.00    -0.054 NA
ATOM     14  O   UNL     1      -1.532   0.680  23.816  0.00  0.00    -0.336 OA
ATOM     15  C   UNL     1      -1.461   0.390  24.586  0.00  0.00    +0.251 A 
ATOM     16  N   UNL     1      -1.577   1.019  25.106  0.00  0.00    -0.188 NA
ENDROOT
BRANCH  12   8
ATOM      6  C   UNL     1      -2.774   3.515  25.248  0.00  0.00    +0.142 A 
ATOM      7  C   UNL     1      -2.629   2.759  24.950  0.00  0.00    +0.059 A 
ATOM      8  C   UNL     1      -1.864   2.453  24.957  0.00  0.00    +0.123 A 
ATOM      9  N   UNL     1      -1.242   2.903  25.261  0.00  0.00    -0.240 NA
ATOM     10  C   UNL     1      -1.387   3.658  25.559  0.00  0.00    +0.102 A 
ATOM     11  C   UNL     1      -2.153   3.964  25.552  0.00  0.00    +0.058 A 
BRANCH   6   5
ATOM      5  O   UNL     1      -3.541   3.821  25.241  0.00  0.00    -0.473 OA
BRANCH   5   4
ATOM      4  C   UNL     1      -4.136   3.450  25.676  0.00  0.00    +0.237 C 
BRANCH   4   3
ATOM      3  C   UNL     1      -4.928   3.604  25.506  0.00  0.00    +0.189 C 
BRANCH   3   2
ATOM      1  C   UNL     1      -6.028   2.730  25.769  0.00  0.00    +0.174 C 
ATOM      2  O   UNL     1      -5.520   3.333  26.013  0.00  0.00    -0.347 OA
ENDBRANCH   3   2
ENDBRANCH   4   3
ENDBRANCH   5   4
ENDBRANCH   6   5
ENDBRANCH  12   8
BRANCH  15  17
ATOM     17  C   UNL     1      -1.303  -0.392  24.797  0.00  0.00    +0.138 C 
ATOM     18  C   UNL     1      -0.556  -0.719  24.923  0.00  0.00    +0.027 C 
ATOM     19  C   UNL     1      -0.657  -1.514  25.122  0.00  0.00    +0.019 C 
ATOM     20  C   UNL     1      -1.465  -1.677  25.118  0.00  0.00    +0.072 C 
ATOM     21  N   UNL     1      -1.865  -0.985  24.917  0.00  0.00    -0.268 NA
BRANCH  21  22
ATOM     22  C   UNL     1      -2.682  -0.898  24.848  0.00  0.00    +0.063 C 
ATOM     23  C   UNL     1      -3.133  -0.708  25.513  0.00  0.00    +0.048 C 
ATOM     24  C   UNL     1      -3.951  -0.621  25.445  0.00  0.00    +0.144 C 
ATOM     25  O   UNL     1      -4.318  -0.724  24.712  0.00  0.00    -0.354 OA
ATOM     26  C   UNL     1      -3.866  -0.914  24.049  0.00  0.00    +0.144 C 
ATOM     27  C   UNL     1      -3.048  -1.001  24.117  0.00  0.00    +0.048 C 
ENDBRANCH  21  22
ENDBRANCH  15  17
TORSDOF 7
ENDMDL
