MODEL 1
REMARK VINA RESULT:     -13.0      0.000      0.000
REMARK  Name = 
REMARK  4 active torsions:
REMARK  status: ('A' for Active; 'I' for Inactive)
REMARK    1  A    between atoms: C_5  and  C_6
REMARK    2  A    between atoms: C_6  and  N_7
REMARK    3  A    between atoms: C_12  and  C_13
REMARK    4  A    between atoms: C_15  and  C_18
REMARK                            x       y       z     vdW  Elec       q    Type
REMARK                         _______ _______ _______ _____ _____    ______ ____
ROOT
ATOM      7  N   UNL     1      -4.645   1.247  24.981  0.00  0.00    -0.260 NA
ATOM      8  C   UNL     1      -5.248   0.787  25.304  0.00  0.00    +0.105 C 
ATOM      9  C   UNL     1      -5.902   1.149  25.654  0.00  0.00    +0.160 C 
ATOM     10  O   UNL     1      -5.952   1.972  25.680  0.00  0.00    -0.350 OA
ATOM     11  C   UNL     1      -5.349   2.433  25.356  0.00  0.00    +0.166 C 
ATOM     12  C   UNL     1      -4.696   2.070  25.007  0.00  0.00    +0.147 C 
ENDROOT
BRANCH  12  13
ATOM     13  C   UNL     1      -4.092   2.532  24.682  0.00  0.00    +0.156 A 
ATOM     14  N   UNL     1      -3.462   2.865  25.096  0.00  0.00    -0.228 NA
ATOM     15  C   UNL     1      -2.994   3.279  24.557  0.00  0.00    +0.104 A 
ATOM     16  C   UNL     1      -3.336   3.202  23.811  0.00  0.00    +0.119 A 
ATOM     17  N   UNL     1      -4.015   2.739  23.888  0.00  0.00    -0.226 NA
BRANCH  15  18
ATOM     18  C   UNL     1      -2.305   3.698  24.734  0.00  0.00    +0.047 A 
ATOM     19  C   UNL     1      -2.355   4.451  25.066  0.00  0.00    +0.006 A 
ATOM     20  C   UNL     1      -1.666   4.870  25.242  0.00  0.00    +0.030 A 
ATOM     21  C   UNL     1      -0.929   4.535  25.088  0.00  0.00    +0.142 A 
ATOM     22  F   UNL     1      -0.239   4.953  25.265  0.00  0.00    -0.204 F 
ATOM     23  C   UNL     1      -0.879   3.780  24.756  0.00  0.00    +0.059 A 
ATOM     24  C   UNL     1      -1.568   3.362  24.580  0.00  0.00    +0.144 A 
ATOM     25  F   UNL     1      -1.519   2.608  24.248  0.00  0.00    -0.204 F 
ENDBRANCH  15  18
ENDBRANCH  12  13
BRANCH   7   6
ATOM      6  C   UNL     1      -3.991   0.884  24.631  0.00  0.00    +0.100 C 
BRANCH   6   5
ATOM      1  C   UNL     1      -3.663  -2.396  24.751  0.00  0.00    +0.031 C 
ATOM      2  C   UNL     1      -3.745  -1.576  24.721  0.00  0.00    -0.022 A 
ATOM      3  C   UNL     1      -4.106  -1.221  24.069  0.00  0.00    -0.005 A 
ATOM      4  C   UNL     1      -4.188  -0.401  24.040  0.00  0.00    -0.003 A 
ATOM      5  C   UNL     1      -3.909   0.064  24.661  0.00  0.00    -0.006 A 
ATOM     26  C   UNL     1      -3.548  -0.290  25.312  0.00  0.00    -0.003 A 
ATOM     27  C   UNL     1      -3.465  -1.111  25.343  0.00  0.00    -0.005 A 
ENDBRANCH   6   5
ENDBRANCH   7   6
TORSDOF 4
ENDMDL
MODEL 2
REMARK VINA RESULT:     -13.0      1.911      4.719
REMARK  Name = 
REMARK  4 active torsions:
REMARK  status: ('A' for Active; 'I' for Inactive)
REMARK    1  A    between atoms: C_5  and  C_6
REMARK    2  A    between atoms: C_6  and  N_7
REMARK    3  A    between atoms: C_12  and  C_13
REMARK    4  A    between atoms: C_15  and  C_18
REMARK                            x       y       z     vdW  Elec       q    Type
REMARK                         _______ _______ _______ _____ _____    ______ ____
ROOT
ATOM      7  N   UNL     1      -4.150   2.516  25.143  0.00  0.00    -0.260 NA
ATOM      8  C   UNL     1      -4.476   3.214  25.438  0.00  0.00    +0.105 C 
ATOM      9  C   UNL     1      -5.291   3.274  25.552  0.00  0.00    +0.160 C 
ATOM     10  O   UNL     1      -5.780   2.634  25.372  0.00  0.00    -0.350 OA
ATOM     11  C   UNL     1      -5.455   1.936  25.076  0.00  0.00    +0.166 C 
ATOM     12  C   UNL     1      -4.640   1.877  24.962  0.00  0.00    +0.147 C 
ENDROOT
BRANCH  12  13
ATOM     13  C   UNL     1      -4.315   1.178  24.667  0.00  0.00    +0.156 A 
ATOM     14  N   UNL     1      -4.295   0.451  25.054  0.00  0.00    -0.228 NA
ATOM     15  C   UNL     1      -3.920  -0.092  24.559  0.00  0.00    +0.104 A 
ATOM     16  C   UNL     1      -3.708   0.300  23.865  0.00  0.00    +0.119 A 
ATOM     17  N   UNL     1      -3.952   1.086  23.932  0.00  0.00    -0.226 NA
BRANCH  15  18
ATOM     18  C   UNL     1      -3.782  -0.888  24.728  0.00  0.00    +0.047 A 
ATOM     19  C   UNL     1      -3.366  -1.098  25.408  0.00  0.00    +0.006 A 
ATOM     20  C   UNL     1      -3.227  -1.894  25.577  0.00  0.00    +0.030 A 
ATOM     21  C   UNL     1      -3.504  -2.478  25.066  0.00  0.00    +0.142 A 
ATOM     22  F   UNL     1      -3.366  -3.274  25.235  0.00  0.00    -0.204 F 
ATOM     23  C   UNL     1      -3.920  -2.268  24.385  0.00  0.00    +0.059 A 
ATOM     24  C   UNL     1      -4.059  -1.472  24.216  0.00  0.00    +0.144 A 
ATOM     25  F   UNL     1      -4.475  -1.261  23.536  0.00  0.00    -0.204 F 
ENDBRANCH  15  18
ENDBRANCH  12  13
BRANCH   7   6
ATOM      6  C   UNL     1      -3.335   2.458  25.028  0.00  0.00    +0.100 C 
BRANCH   6   5
ATOM      1  C   UNL     1      -1.433   5.142  25.283  0.00  0.00    +0.031 C 
ATOM      2  C   UNL     1      -1.909   4.471  25.219  0.00  0.00    -0.022 A 
ATOM      3  C   UNL     1      -1.983   3.955  25.859  0.00  0.00    -0.005 A 
ATOM      4  C   UNL     1      -2.458   3.284  25.795  0.00  0.00    -0.003 A 
ATOM      5  C   UNL     1      -2.860   3.128  25.092  0.00  0.00    -0.006 A 
ATOM     26  C   UNL     1      -2.786   3.643  24.452  0.00  0.00    -0.003 A 
ATOM     27  C   UNL     1      -2.311   4.315  24.515  0.00  0.00    -0.005 A 
ENDBRANCH   6   5
ENDBRANCH   7   6
TORSDOF 4
ENDMDL
MODEL 3
REMARK VINA RESULT:     -12.4      2.877      5.532
REMARK  Name = 
REMARK  4 active torsions:
REMARK  status: ('A' for Active; 'I' for Inactive)
REMARK    1  A    between atoms: C_5  and  C_6
REMARK    2  A    between atoms: C_6  and  N_7
REMARK    3  A    between atoms: C_12  and  C_13
REMARK    4  A    between atoms: C_15  and  C_18
REMARK                            x       y       z     vdW  Elec       q    Type
REMARK                         _______ _______ _______ _____ _____    ______ ____
ROOT
ATOM      7  N   UNL     1      -0.746   1.360  24.704  0.00  0.00    -0.260 NA
ATOM      8  C   UNL     1      -0.167   1.891  24.453  0.00  0.00    +0.105 C 
ATOM      9  C   UNL     1       0.496   1.616  24.045  0.00  0.00    +0.160 C 
ATOM     10  O   UNL     1       0.579   0.810  23.889  0.00  0.00    -0.350 OA
ATOM     11  C   UNL     1       0.000   0.279  24.141  0.00  0.00    +0.166 C 
ATOM     12  C   UNL     1      -0.662   0.554  24.548  0.00  0.00    +0.147 C 
ENDROOT
BRANCH  12  13
ATOM     13  C   UNL     1      -1.242   0.022  24.800  0.00  0.00    +0.156 A 
ATOM     14  N   UNL     1      -1.805  -0.342  24.321  0.00  0.00    -0.228 NA
ATOM     15  C   UNL     1      -2.271  -0.827  24.799  0.00  0.00    +0.104 A 
ATOM     16  C   UNL     1      -1.994  -0.762  25.574  0.00  0.00    +0.119 A 
ATOM     17  N   UNL     1      -1.358  -0.237  25.574  0.00  0.00    -0.226 NA
BRANCH  15  18
ATOM     18  C   UNL     1      -2.902  -1.296  24.548  0.00  0.00    +0.047 A 
ATOM     19  C   UNL     1      -3.623  -0.945  24.354  0.00  0.00    +0.006 A 
ATOM     20  C   UNL     1      -4.254  -1.413  24.103  0.00  0.00    +0.030 A 
ATOM     21  C   UNL     1      -4.165  -2.230  24.044  0.00  0.00    +0.142 A 
ATOM     22  F   UNL     1      -4.796  -2.698  23.793  0.00  0.00    -0.204 F 
ATOM     23  C   UNL     1      -3.443  -2.581  24.238  0.00  0.00    +0.059 A 
ATOM     24  C   UNL     1      -2.811  -2.113  24.490  0.00  0.00    +0.144 A 
ATOM     25  F   UNL     1      -2.090  -2.463  24.683  0.00  0.00    -0.204 F 
ENDBRANCH  15  18
ENDBRANCH  12  13
BRANCH   7   6
ATOM      6  C   UNL     1      -1.409   1.635  25.112  0.00  0.00    +0.100 C 
BRANCH   6   5
ATOM      1  C   UNL     1      -1.954   4.878  25.380  0.00  0.00    +0.031 C 
ATOM      2  C   UNL     1      -1.818   4.067  25.313  0.00  0.00    -0.022 A 
ATOM      3  C   UNL     1      -1.345   3.681  25.869  0.00  0.00    -0.005 A 
ATOM      4  C   UNL     1      -1.209   2.870  25.801  0.00  0.00    -0.003 A 
ATOM      5  C   UNL     1      -1.545   2.445  25.179  0.00  0.00    -0.006 A 
ATOM     26  C   UNL     1      -2.017   2.831  24.624  0.00  0.00    -0.003 A 
ATOM     27  C   UNL     1      -2.153   3.642  24.690  0.00  0.00    -0.005 A 
ENDBRANCH   6   5
ENDBRANCH   7   6
TORSDOF 4
ENDMDL
MODEL 4
REMARK VINA RESULT:     -12.3      2.324      3.129
REMARK  Name = 
REMARK  4 active torsions:
REMARK  status: ('A' for Active; 'I' for Inactive)
REMARK    1  A    between atoms: C_5  and  C_6
REMARK    2  A    between atoms: C_6  and  N_7
REMARK    3  A    between atoms: C_12  and  C_13
REMARK    4  A    between atoms: C_15  and  C_18
REMARK                            x       y       z     vdW  Elec       q    Type
REMARK                         _______ _______ _______ _____ _____    ______ ____
ROOT
ATOM      7  N   UNL     1      -1.078   0.235  24.582  0.00  0.00    -0.260 NA
ATOM      8  C   UNL     1      -0.960  -0.462  24.156  0.00  0.00    +0.105 C 
ATOM      9  C   UNL     1      -0.243  -0.592  23.766  0.00  0.00    +0.160 C 
ATOM     10  O   UNL     1       0.354  -0.024  23.803  0.00  0.00    -0.350 OA
ATOM     11  C   UNL     1       0.236   0.672  24.229  0.00  0.00    +0.166 C 
ATOM     12  C   UNL     1      -0.479   0.802  24.618  0.00  0.00    +0.147 C 
ENDROOT
BRANCH  12  13
ATOM     13  C   UNL     1      -0.597   1.499  25.045  0.00  0.00    +0.156 A 
ATOM     14  N   UNL     1      -0.836   2.223  24.732  0.00  0.00    -0.228 NA
ATOM     15  C   UNL     1      -0.883   2.765  25.353  0.00  0.00    +0.104 A 
ATOM     16  C   UNL     1      -0.673   2.375  26.049  0.00  0.00    +0.119 A 
ATOM     17  N   UNL     1      -0.496   1.592  25.858  0.00  0.00    -0.226 NA
BRANCH  15  18
ATOM     18  C   UNL     1      -1.102   3.559  25.289  0.00  0.00    +0.047 A 
ATOM     19  C   UNL     1      -0.578   4.105  24.962  0.00  0.00    +0.006 A 
ATOM     20  C   UNL     1      -0.797   4.898  24.898  0.00  0.00    +0.030 A 
ATOM     21  C   UNL     1      -1.539   5.144  25.160  0.00  0.00    +0.142 A 
ATOM     22  F   UNL     1      -1.758   5.937  25.096  0.00  0.00    -0.204 F 
ATOM     23  C   UNL     1      -2.063   4.597  25.487  0.00  0.00    +0.059 A 
ATOM     24  C   UNL     1      -1.844   3.803  25.551  0.00  0.00    +0.144 A 
ATOM     25  F   UNL     1      -2.368   3.256  25.878  0.00  0.00    -0.204 F 
ENDBRANCH  15  18
ENDBRANCH  12  13
BRANCH   7   6
ATOM      6  C   UNL     1      -1.794   0.363  24.971  0.00  0.00    +0.100 C 
BRANCH   6   5
ATOM      1  C   UNL     1      -4.450  -1.427  24.180  0.00  0.00    +0.031 C 
ATOM      2  C   UNL     1      -3.786  -0.979  24.378  0.00  0.00    -0.022 A 
ATOM      3  C   UNL     1      -3.625  -0.278  23.973  0.00  0.00    -0.005 A 
ATOM      4  C   UNL     1      -2.961   0.169  24.171  0.00  0.00    -0.003 A 
ATOM      5  C   UNL     1      -2.457  -0.084  24.774  0.00  0.00    -0.006 A 
ATOM     26  C   UNL     1      -2.618  -0.784  25.178  0.00  0.00    -0.003 A 
ATOM     27  C   UNL     1      -3.282  -1.232  24.981  0.00  0.00    -0.005 A 
ENDBRANCH   6   5
ENDBRANCH   7   6
TORSDOF 4
ENDMDL
MODEL 5
REMARK VINA RESULT:     -12.2      2.010      3.026
REMARK  Name = 
REMARK  4 active torsions:
REMARK  status: ('A' for Active; 'I' for Inactive)
REMARK    1  A    between atoms: C_5  and  C_6
REMARK    2  A    between atoms: C_6  and  N_7
REMARK    3  A    between atoms: C_12  and  C_13
REMARK    4  A    between atoms: C_15  and  C_18
REMARK                            x       y       z     vdW  Elec       q    Type
REMARK                         _______ _______ _______ _____ _____    ______ ____
ROOT
ATOM      7  N   UNL     1      -2.173   0.146  24.523  0.00  0.00    -0.260 NA
ATOM      8  C   UNL     1      -1.561  -0.389  24.662  0.00  0.00    +0.105 C 
ATOM      9  C   UNL     1      -0.776  -0.134  24.638  0.00  0.00    +0.160 C 
ATOM     10  O   UNL     1      -0.605   0.656  24.474  0.00  0.00    -0.350 OA
ATOM     11  C   UNL     1      -1.217   1.191  24.335  0.00  0.00    +0.166 C 
ATOM     12  C   UNL     1      -2.001   0.936  24.359  0.00  0.00    +0.147 C 
ENDROOT
BRANCH  12  13
ATOM     13  C   UNL     1      -2.614   1.472  24.220  0.00  0.00    +0.156 A 
ATOM     14  N   UNL     1      -3.093   1.818  24.794  0.00  0.00    -0.228 NA
ATOM     15  C   UNL     1      -3.630   2.315  24.411  0.00  0.00    +0.104 A 
ATOM     16  C   UNL     1      -3.481   2.275  23.600  0.00  0.00    +0.119 A 
ATOM     17  N   UNL     1      -2.852   1.753  23.482  0.00  0.00    -0.226 NA
BRANCH  15  18
ATOM     18  C   UNL     1      -4.213   2.772  24.775  0.00  0.00    +0.047 A 
ATOM     19  C   UNL     1      -4.955   2.446  24.927  0.00  0.00    +0.006 A 
ATOM     20  C   UNL     1      -5.539   2.903  25.291  0.00  0.00    +0.030 A 
ATOM     21  C   UNL     1      -5.379   3.684  25.501  0.00  0.00    +0.142 A 
ATOM     22  F   UNL     1      -5.963   4.141  25.865  0.00  0.00    -0.204 F 
ATOM     23  C   UNL     1      -4.637   4.010  25.349  0.00  0.00    +0.059 A 
ATOM     24  C   UNL     1      -4.053   3.553  24.985  0.00  0.00    +0.144 A 
ATOM     25  F   UNL     1      -3.311   3.878  24.832  0.00  0.00    -0.204 F 
ENDBRANCH  15  18
ENDBRANCH  12  13
BRANCH   7   6
ATOM      6  C   UNL     1      -2.957  -0.110  24.547  0.00  0.00    +0.100 C 
BRANCH   6   5
ATOM      1  C   UNL     1      -3.639  -3.315  24.933  0.00  0.00    +0.031 C 
ATOM      2  C   UNL     1      -3.468  -2.514  24.837  0.00  0.00    -0.022 A 
ATOM      3  C   UNL     1      -3.426  -2.189  24.079  0.00  0.00    -0.005 A 
ATOM      4  C   UNL     1      -3.256  -1.388  23.983  0.00  0.00    -0.003 A 
ATOM      5  C   UNL     1      -3.128  -0.911  24.644  0.00  0.00    -0.006 A 
ATOM     26  C   UNL     1      -3.170  -1.235  25.400  0.00  0.00    -0.003 A 
ATOM     27  C   UNL     1      -3.340  -2.036  25.498  0.00  0.00    -0.005 A 
ENDBRANCH   6   5
ENDBRANCH   7   6
TORSDOF 4
ENDMDL
