MODEL 1
REMARK VINA RESULT:     -14.8      0.000      0.000
REMARK  Name = 
REMARK  4 active torsions:
REMARK  status: ('A' for Active; 'I' for Inactive)
REMARK    1  A    between atoms: C_2  and  C_26
REMARK    2  A    between atoms: C_9  and  N_10
REMARK    3  A    between atoms: C_11  and  C_13
REMARK    4  A    between atoms: C_26  and  C_28
REMARK                            x       y       z     vdW  Elec       q    Type
REMARK                         _______ _______ _______ _____ _____    ______ ____
ROOT
ATOM      1  C   UNL     1      -4.292   0.162  24.675  0.00  0.00    +0.052 C 
ATOM      2  C   UNL     1      -5.016   0.365  25.016  0.00  0.00    -0.001 C 
ATOM      3  C   UNL     1      -5.168   1.149  25.223  0.00  0.00    -0.000 C 
ATOM      4  C   UNL     1      -4.598   1.729  25.089  0.00  0.00    -0.001 C 
ATOM      5  C   UNL     1      -5.321   1.932  25.430  0.00  0.00    -0.000 C 
ATOM      6  C   UNL     1      -4.751   2.513  25.296  0.00  0.00    +0.002 C 
ATOM      7  C   UNL     1      -4.181   3.094  25.161  0.00  0.00    +0.022 C 
ATOM      8  C   UNL     1      -3.457   2.891  24.820  0.00  0.00    +0.095 C 
ATOM     19  C   UNL     1      -3.304   2.107  24.613  0.00  0.00    +0.019 C 
ATOM     20  C   UNL     1      -2.581   1.904  24.272  0.00  0.00    +0.002 C 
ATOM     21  C   UNL     1      -3.874   1.526  24.747  0.00  0.00    +0.045 C 
ATOM     22  C   UNL     1      -3.722   0.742  24.540  0.00  0.00    +0.145 C 
ATOM     23  O   UNL     1      -2.999   0.539  24.199  0.00  0.00    -0.224 OA
ENDROOT
BRANCH   8   9
ATOM      9  N   UNL     1      -2.887   3.472  24.685  0.00  0.00    -0.203 NA
ATOM     10  C   UNL     1      -2.617   3.938  25.310  0.00  0.00    +0.265 C 
ATOM     11  O   UNL     1      -2.917   3.822  26.071  0.00  0.00    -0.268 OA
BRANCH  10  12
ATOM     12  C   UNL     1      -2.047   4.519  25.176  0.00  0.00    +0.057 A 
ATOM     13  C   UNL     1      -2.269   5.311  25.124  0.00  0.00    +0.005 A 
ATOM     14  C   UNL     1      -1.699   5.892  24.989  0.00  0.00    +0.002 A 
ATOM     15  C   UNL     1      -0.906   5.681  24.907  0.00  0.00    +0.030 A 
ATOM     16  C   UNL     1      -0.683   4.887  24.959  0.00  0.00    +0.140 A 
ATOM     17  F   UNL     1       0.109   4.676  24.877  0.00  0.00    -0.204 F 
ATOM     18  C   UNL     1      -1.254   4.307  25.093  0.00  0.00    +0.034 A 
ENDBRANCH  10  12
ENDBRANCH   8   9
BRANCH   1  24
ATOM     24  C   UNL     1      -4.139  -0.622  24.468  0.00  0.00    +0.075 C 
ATOM     25  C   UNL     1      -4.244  -0.872  23.689  0.00  0.00    +0.009 C 
BRANCH  24  26
ATOM     26  C   UNL     1      -3.882  -1.157  25.041  0.00  0.00    +0.225 C 
ATOM     27  O   UNL     1      -3.798  -0.913  25.826  0.00  0.00    -0.275 OA
ATOM     28  N   UNL     1      -3.710  -1.937  24.831  0.00  0.00    -0.280 N 
ATOM     29  C   UNL     1      -3.449  -2.530  25.341  0.00  0.00    +0.093 C 
ATOM     30  C   UNL     1      -3.346  -3.219  24.900  0.00  0.00    +0.023 C 
ATOM     31  C   UNL     1      -3.543  -3.051  24.116  0.00  0.00    +0.023 C 
ATOM     32  C   UNL     1      -3.768  -2.258  24.074  0.00  0.00    +0.093 C 
ENDBRANCH  24  26
ENDBRANCH   1  24
TORSDOF 4
ENDMDL
MODEL 2
REMARK VINA RESULT:     -14.6      1.768      5.645
REMARK  Name = 
REMARK  4 active torsions:
REMARK  status: ('A' for Active; 'I' for Inactive)
REMARK    1  A    between atoms: C_2  and  C_26
REMARK    2  A    between atoms: C_9  and  N_10
REMARK    3  A    between atoms: C_11  and  C_13
REMARK    4  A    between atoms: C_26  and  C_28
REMARK                            x       y       z     vdW  Elec       q    Type
REMARK                         _______ _______ _______ _____ _____    ______ ____
ROOT
ATOM      1  C   UNL     1      -2.765   3.185  25.475  0.00  0.00    +0.052 C 
ATOM      2  C   UNL     1      -3.519   3.518  25.416  0.00  0.00    -0.001 C 
ATOM      3  C   UNL     1      -4.152   3.060  25.153  0.00  0.00    -0.000 C 
ATOM      4  C   UNL     1      -4.032   2.270  24.949  0.00  0.00    -0.001 C 
ATOM      5  C   UNL     1      -4.784   2.602  24.889  0.00  0.00    -0.000 C 
ATOM      6  C   UNL     1      -4.666   1.811  24.685  0.00  0.00    +0.002 C 
ATOM      7  C   UNL     1      -4.546   1.021  24.481  0.00  0.00    +0.022 C 
ATOM      8  C   UNL     1      -3.793   0.689  24.540  0.00  0.00    +0.095 C 
ATOM     19  C   UNL     1      -3.160   1.147  24.804  0.00  0.00    +0.019 C 
ATOM     20  C   UNL     1      -2.407   0.815  24.863  0.00  0.00    +0.002 C 
ATOM     21  C   UNL     1      -3.279   1.938  25.008  0.00  0.00    +0.045 C 
ATOM     22  C   UNL     1      -2.646   2.396  25.271  0.00  0.00    +0.145 C 
ATOM     23  O   UNL     1      -1.893   2.064  25.331  0.00  0.00    -0.224 OA
ENDROOT
BRANCH   8   9
ATOM      9  N   UNL     1      -3.674  -0.102  24.336  0.00  0.00    -0.203 NA
ATOM     10  C   UNL     1      -4.108  -0.695  24.710  0.00  0.00    +0.265 C 
ATOM     11  O   UNL     1      -4.662  -0.497  25.289  0.00  0.00    -0.268 OA
BRANCH  10  12
ATOM     12  C   UNL     1      -3.989  -1.485  24.505  0.00  0.00    +0.057 A 
ATOM     13  C   UNL     1      -4.295  -1.780  23.799  0.00  0.00    +0.005 A 
ATOM     14  C   UNL     1      -4.177  -2.570  23.594  0.00  0.00    +0.002 A 
ATOM     15  C   UNL     1      -3.751  -3.066  24.098  0.00  0.00    +0.030 A 
ATOM     16  C   UNL     1      -3.444  -2.772  24.805  0.00  0.00    +0.140 A 
ATOM     17  F   UNL     1      -3.018  -3.267  25.308  0.00  0.00    -0.204 F 
ATOM     18  C   UNL     1      -3.563  -1.981  25.008  0.00  0.00    +0.034 A 
ENDBRANCH  10  12
ENDBRANCH   8   9
BRANCH   1  24
ATOM     24  C   UNL     1      -2.132   3.644  25.739  0.00  0.00    +0.075 C 
ATOM     25  C   UNL     1      -1.504   3.291  26.141  0.00  0.00    +0.009 C 
BRANCH  24  26
ATOM     26  C   UNL     1      -2.127   4.458  25.600  0.00  0.00    +0.225 C 
ATOM     27  O   UNL     1      -2.749   4.927  25.874  0.00  0.00    -0.275 OA
ATOM     28  N   UNL     1      -1.500   4.803  25.189  0.00  0.00    -0.280 N 
ATOM     29  C   UNL     1      -1.420   5.603  25.010  0.00  0.00    +0.093 C 
ATOM     30  C   UNL     1      -0.714   5.703  24.594  0.00  0.00    +0.023 C 
ATOM     31  C   UNL     1      -0.358   4.962  24.517  0.00  0.00    +0.023 C 
ATOM     32  C   UNL     1      -0.844   4.406  24.884  0.00  0.00    +0.093 C 
ENDBRANCH  24  26
ENDBRANCH   1  24
TORSDOF 4
ENDMDL
MODEL 3
REMARK VINA RESULT:     -13.3      1.740      2.601
REMARK  Name = 
REMARK  4 active torsions:
REMARK  status: ('A' for Active; 'I' for Inactive)
REMARK    1  A    between atoms: C_2  and  C_26
REMARK    2  A    between atoms: C_9  and  N_10
REMARK    3  A    between atoms: C_11  and  C_13
REMARK    4  A    between atoms: C_26  and  C_28
REMARK                            x       y       z     vdW  Elec       q    Type
REMARK                         _______ _______ _______ _____ _____    ______ ____
ROOT
ATOM      1  C   UNL     1      -2.066  -0.917  25.044  0.00  0.00    +0.052 C 
ATOM      2  C   UNL     1      -1.307  -1.194  24.869  0.00  0.00    -0.001 C 
ATOM      3  C   UNL     1      -0.707  -0.661  24.684  0.00  0.00    -0.000 C 
ATOM      4  C   UNL     1      -0.862   0.149  24.673  0.00  0.00    -0.001 C 
ATOM      5  C   UNL     1      -0.106  -0.127  24.498  0.00  0.00    -0.000 C 
ATOM      6  C   UNL     1      -0.261   0.683  24.487  0.00  0.00    +0.002 C 
ATOM      7  C   UNL     1      -0.417   1.493  24.477  0.00  0.00    +0.022 C 
ATOM      8  C   UNL     1      -1.175   1.769  24.652  0.00  0.00    +0.095 C 
ATOM     19  C   UNL     1      -1.776   1.236  24.837  0.00  0.00    +0.019 C 
ATOM     20  C   UNL     1      -2.533   1.513  25.012  0.00  0.00    +0.002 C 
ATOM     21  C   UNL     1      -1.621   0.426  24.848  0.00  0.00    +0.045 C 
ATOM     22  C   UNL     1      -2.221  -0.107  25.034  0.00  0.00    +0.145 C 
ATOM     23  O   UNL     1      -2.979   0.169  25.209  0.00  0.00    -0.224 OA
ENDROOT
BRANCH   8   9
ATOM      9  N   UNL     1      -1.331   2.580  24.641  0.00  0.00    -0.203 NA
ATOM     10  C   UNL     1      -0.842   3.100  25.053  0.00  0.00    +0.265 C 
ATOM     11  O   UNL     1      -0.196   2.809  25.478  0.00  0.00    -0.268 OA
BRANCH  10  12
ATOM     12  C   UNL     1      -0.997   3.910  25.043  0.00  0.00    +0.057 A 
ATOM     13  C   UNL     1      -0.503   4.420  24.624  0.00  0.00    +0.005 A 
ATOM     14  C   UNL     1      -0.658   5.230  24.613  0.00  0.00    +0.002 A 
ATOM     15  C   UNL     1      -1.309   5.530  25.022  0.00  0.00    +0.030 A 
ATOM     16  C   UNL     1      -1.805   5.020  25.441  0.00  0.00    +0.140 A 
ATOM     17  F   UNL     1      -2.455   5.320  25.849  0.00  0.00    -0.204 F 
ATOM     18  C   UNL     1      -1.648   4.210  25.451  0.00  0.00    +0.034 A 
ENDBRANCH  10  12
ENDBRANCH   8   9
BRANCH   1  24
ATOM     24  C   UNL     1      -2.667  -1.451  25.230  0.00  0.00    +0.075 C 
ATOM     25  C   UNL     1      -3.213  -1.270  25.822  0.00  0.00    +0.009 C 
BRANCH  24  26
ATOM     26  C   UNL     1      -2.721  -2.167  24.824  0.00  0.00    +0.225 C 
ATOM     27  O   UNL     1      -2.105  -2.715  24.867  0.00  0.00    -0.275 OA
ATOM     28  N   UNL     1      -3.392  -2.336  24.373  0.00  0.00    -0.280 N 
ATOM     29  C   UNL     1      -3.524  -3.025  23.940  0.00  0.00    +0.093 C 
ATOM     30  C   UNL     1      -4.262  -2.960  23.576  0.00  0.00    +0.023 C 
ATOM     31  C   UNL     1      -4.586  -2.230  23.786  0.00  0.00    +0.023 C 
ATOM     32  C   UNL     1      -4.048  -1.845  24.278  0.00  0.00    +0.093 C 
ENDBRANCH  24  26
ENDBRANCH   1  24
TORSDOF 4
ENDMDL
MODEL 4
REMARK VINA RESULT:     -12.1      2.362      6.184
REMARK  Name = 
REMARK  4 active torsions:
REMARK  status: ('A' for Active; 'I' for Inactive)
REMARK    1  A    between atoms: C_2  and  C_26
REMARK    2  A    between atoms: C_9  and  N_10
REMARK    3  A    between atoms: C_11  and  C_13
REMARK    4  A    between atoms: C_26  and  C_28
REMARK                            x       y       z     vdW  Elec       q    Type
REMARK                         _______ _______ _______ _____ _____    ______ ____
ROOT
ATOM      1  C   UNL     1      -0.664   2.415  25.131  0.00  0.00    +0.052 C 
ATOM      2  C   UNL     1       0.062   2.208  24.796  0.00  0.00    -0.001 C 
ATOM      3  C   UNL     1       0.158   1.468  24.445  0.00  0.00    -0.000 C 
ATOM      4  C   UNL     1      -0.471   0.935  24.429  0.00  0.00    -0.001 C 
ATOM      5  C   UNL     1       0.253   0.728  24.095  0.00  0.00    -0.000 C 
ATOM      6  C   UNL     1      -0.376   0.194  24.078  0.00  0.00    +0.002 C 
ATOM      7  C   UNL     1      -1.005  -0.339  24.062  0.00  0.00    +0.022 C 
ATOM      8  C   UNL     1      -1.731  -0.131  24.397  0.00  0.00    +0.095 C 
ATOM     19  C   UNL     1      -1.826   0.609  24.747  0.00  0.00    +0.019 C 
ATOM     20  C   UNL     1      -2.551   0.816  25.082  0.00  0.00    +0.002 C 
ATOM     21  C   UNL     1      -1.197   1.142  24.764  0.00  0.00    +0.045 C 
ATOM     22  C   UNL     1      -1.292   1.882  25.115  0.00  0.00    +0.145 C 
ATOM     23  O   UNL     1      -2.017   2.090  25.449  0.00  0.00    -0.224 OA
ENDROOT
BRANCH   8   9
ATOM      9  N   UNL     1      -2.360  -0.665  24.380  0.00  0.00    -0.203 NA
ATOM     10  C   UNL     1      -2.216  -1.474  24.443  0.00  0.00    +0.265 C 
ATOM     11  O   UNL     1      -1.442  -1.752  24.522  0.00  0.00    -0.268 OA
BRANCH  10  12
ATOM     12  C   UNL     1      -2.845  -2.008  24.426  0.00  0.00    +0.057 A 
ATOM     13  C   UNL     1      -2.827  -2.683  24.899  0.00  0.00    +0.005 A 
ATOM     14  C   UNL     1      -3.456  -3.217  24.883  0.00  0.00    +0.002 A 
ATOM     15  C   UNL     1      -4.104  -3.075  24.392  0.00  0.00    +0.030 A 
ATOM     16  C   UNL     1      -4.123  -2.399  23.918  0.00  0.00    +0.140 A 
ATOM     17  F   UNL     1      -4.770  -2.257  23.427  0.00  0.00    -0.204 F 
ATOM     18  C   UNL     1      -3.493  -1.866  23.935  0.00  0.00    +0.034 A 
ENDBRANCH  10  12
ENDBRANCH   8   9
BRANCH   1  24
ATOM     24  C   UNL     1      -0.759   3.156  25.482  0.00  0.00    +0.075 C 
ATOM     25  C   UNL     1      -1.019   3.214  26.263  0.00  0.00    +0.009 C 
BRANCH  24  26
ATOM     26  C   UNL     1      -0.593   3.840  25.051  0.00  0.00    +0.225 C 
ATOM     27  O   UNL     1       0.079   3.873  24.572  0.00  0.00    -0.275 OA
ATOM     28  N   UNL     1      -1.098   4.491  25.100  0.00  0.00    -0.280 N 
ATOM     29  C   UNL     1      -1.004   5.208  24.703  0.00  0.00    +0.093 C 
ATOM     30  C   UNL     1      -1.633   5.699  24.912  0.00  0.00    +0.023 C 
ATOM     31  C   UNL     1      -2.116   5.285  25.437  0.00  0.00    +0.023 C 
ATOM     32  C   UNL     1      -1.785   4.538  25.553  0.00  0.00    +0.093 C 
ENDBRANCH  24  26
ENDBRANCH   1  24
TORSDOF 4
ENDMDL
MODEL 5
REMARK VINA RESULT:     -11.8      2.823      4.477
REMARK  Name = 
REMARK  4 active torsions:
REMARK  status: ('A' for Active; 'I' for Inactive)
REMARK    1  A    between atoms: C_2  and  C_26
REMARK    2  A    between atoms: C_9  and  N_10
REMARK    3  A    between atoms: C_11  and  C_13
REMARK    4  A    between atoms: C_26  and  C_28
REMARK                            x       y       z     vdW  Elec       q    Type
REMARK                         _______ _______ _______ _____ _____    ______ ____
ROOT
ATOM      1  C   UNL     1      -3.278   3.391  24.894  0.00  0.00    +0.052 C 
ATOM      2  C   UNL     1      -2.945   3.834  25.507  0.00  0.00    -0.001 C 
ATOM      3  C   UNL     1      -2.134   3.795  25.649  0.00  0.00    -0.000 C 
ATOM      4  C   UNL     1      -1.655   3.314  25.180  0.00  0.00    -0.001 C 
ATOM      5  C   UNL     1      -1.323   3.756  25.791  0.00  0.00    -0.000 C 
ATOM      6  C   UNL     1      -0.843   3.275  25.322  0.00  0.00    +0.002 C 
ATOM      7  C   UNL     1      -0.365   2.794  24.854  0.00  0.00    +0.022 C 
ATOM      8  C   UNL     1      -0.698   2.352  24.241  0.00  0.00    +0.095 C 
ATOM     19  C   UNL     1      -1.509   2.391  24.099  0.00  0.00    +0.019 C 
ATOM     20  C   UNL     1      -1.842   1.949  23.487  0.00  0.00    +0.002 C 
ATOM     21  C   UNL     1      -1.989   2.872  24.568  0.00  0.00    +0.045 C 
ATOM     22  C   UNL     1      -2.800   2.911  24.425  0.00  0.00    +0.145 C 
ATOM     23  O   UNL     1      -3.133   2.469  23.813  0.00  0.00    -0.224 OA
ENDROOT
BRANCH   8   9
ATOM      9  N   UNL     1      -0.219   1.871  23.772  0.00  0.00    -0.203 NA
ATOM     10  C   UNL     1       0.324   1.360  24.124  0.00  0.00    +0.265 C 
ATOM     11  O   UNL     1       0.388   1.330  24.947  0.00  0.00    -0.268 OA
BRANCH  10  12
ATOM     12  C   UNL     1       0.804   0.879  23.655  0.00  0.00    +0.057 A 
ATOM     13  C   UNL     1       0.511   0.168  23.359  0.00  0.00    +0.005 A 
ATOM     14  C   UNL     1       0.990  -0.313  22.890  0.00  0.00    +0.002 A 
ATOM     15  C   UNL     1       1.763  -0.081  22.718  0.00  0.00    +0.030 A 
ATOM     16  C   UNL     1       2.057   0.631  23.014  0.00  0.00    +0.140 A 
ATOM     17  F   UNL     1       2.828   0.863  22.842  0.00  0.00    -0.204 F 
ATOM     18  C   UNL     1       1.576   1.111  23.483  0.00  0.00    +0.034 A 
ENDBRANCH  10  12
ENDBRANCH   8   9
BRANCH   1  24
ATOM     24  C   UNL     1      -4.090   3.431  24.752  0.00  0.00    +0.075 C 
ATOM     25  C   UNL     1      -4.372   3.510  23.980  0.00  0.00    +0.009 C 
BRANCH  24  26
ATOM     26  C   UNL     1      -4.621   3.390  25.382  0.00  0.00    +0.225 C 
ATOM     27  O   UNL     1      -4.565   3.929  26.005  0.00  0.00    -0.275 OA
ATOM     28  N   UNL     1      -5.209   2.811  25.390  0.00  0.00    -0.280 N 
ATOM     29  C   UNL     1      -5.776   2.703  25.979  0.00  0.00    +0.093 C 
ATOM     30  C   UNL     1      -6.250   2.063  25.764  0.00  0.00    +0.023 C 
ATOM     31  C   UNL     1      -5.975   1.776  25.041  0.00  0.00    +0.023 C 
ATOM     32  C   UNL     1      -5.332   2.238  24.810  0.00  0.00    +0.093 C 
ENDBRANCH  24  26
ENDBRANCH   1  24
TORSDOF 4
ENDMDL
