MODEL 1
REMARK VINA RESULT:     -13.3      0.000      0.000
REMARK  Name = 
REMARK  5 active torsions:
REMARK  status: ('A' for Active; 'I' for Inactive)
REMARK    1  A    between atoms: C_2  and  C_4
REMARK    2  A    between atoms: C_4  and  C_5
REMARK    3  A    between atoms: C_7  and  C_19
REMARK    4  A    between atoms: N_21  and  C_22
REMARK    5  A    between atoms: C_22  and  C_23
REMARK                            x       y       z     vdW  Elec       q    Type
REMARK                         _______ _______ _______ _____ _____    ______ ____
ROOT
ATOM      5  C   UNL     1      -4.141   2.648  25.037  0.00  0.00    +0.095 C 
ATOM      6  N   UNL     1      -4.074   1.958  24.591  0.00  0.00    -0.207 NA
ATOM      7  C   UNL     1      -3.392   1.603  24.291  0.00  0.00    +0.155 C 
ATOM      8  C   UNL     1      -2.609   1.851  24.365  0.00  0.00    +0.055 C 
ATOM      9  C   UNL     1      -2.313   2.515  24.755  0.00  0.00    -0.002 A 
ATOM     10  C   UNL     1      -1.511   2.704  24.788  0.00  0.00    +0.072 A 
ATOM     11  N   UNL     1      -1.431   3.401  25.223  0.00  0.00    -0.324 N 
ATOM     12  C   UNL     1      -0.723   3.788  25.393  0.00  0.00    +0.130 C 
ATOM     13  C   UNL     1      -2.184   3.643  25.458  0.00  0.00    +0.059 A 
ATOM     14  C   UNL     1      -2.729   3.095  25.169  0.00  0.00    +0.011 A 
ATOM     15  C   UNL     1      -3.543   3.154  25.294  0.00  0.00    -0.005 A 
ATOM     16  C   UNL     1      -3.793   3.843  25.760  0.00  0.00    -0.003 A 
ATOM     17  C   UNL     1      -3.248   4.391  26.049  0.00  0.00    +0.001 A 
ATOM     18  C   UNL     1      -2.443   4.290  25.898  0.00  0.00    +0.017 A 
ENDROOT
BRANCH   7  19
ATOM     19  C   UNL     1      -3.509   0.908  23.862  0.00  0.00    +0.258 C 
ATOM     20  O   UNL     1      -3.617   0.941  23.045  0.00  0.00    -0.272 OA
ATOM     21  N   UNL     1      -3.518   0.180  24.251  0.00  0.00    -0.199 NA
BRANCH  21  22
ATOM     22  C   UNL     1      -3.636  -0.515  23.822  0.00  0.00    +0.142 C 
BRANCH  22  23
ATOM     23  C   UNL     1      -3.617  -1.245  24.207  0.00  0.00    -0.000 A 
ATOM     24  C   UNL     1      -3.223  -1.321  24.928  0.00  0.00    -0.000 A 
ATOM     25  C   UNL     1      -3.204  -2.051  25.313  0.00  0.00    +0.029 A 
ATOM     26  C   UNL     1      -3.579  -2.704  24.976  0.00  0.00    +0.140 A 
ATOM     27  F   UNL     1      -3.561  -3.434  25.361  0.00  0.00    -0.204 F 
ATOM     28  C   UNL     1      -3.973  -2.627  24.255  0.00  0.00    +0.029 A 
ATOM     29  C   UNL     1      -3.992  -1.898  23.870  0.00  0.00    -0.000 A 
ENDBRANCH  22  23
ENDBRANCH  21  22
ENDBRANCH   7  19
BRANCH   5   4
ATOM      4  C   UNL     1      -4.908   2.860  25.255  0.00  0.00    +0.022 C 
BRANCH   4   2
ATOM      1  C   UNL     1      -5.515   1.842  26.054  0.00  0.00    +0.000 C 
ATOM      2  C   UNL     1      -5.484   2.277  25.354  0.00  0.00    +0.002 C 
ATOM      3  C   UNL     1      -6.030   2.131  24.752  0.00  0.00    +0.000 C 
ENDBRANCH   4   2
ENDBRANCH   5   4
TORSDOF 5
ENDMDL
MODEL 2
REMARK VINA RESULT:     -13.2      0.757      2.290
REMARK  Name = 
REMARK  5 active torsions:
REMARK  status: ('A' for Active; 'I' for Inactive)
REMARK    1  A    between atoms: C_2  and  C_4
REMARK    2  A    between atoms: C_4  and  C_5
REMARK    3  A    between atoms: C_7  and  C_19
REMARK    4  A    between atoms: N_21  and  C_22
REMARK    5  A    between atoms: C_22  and  C_23
REMARK                            x       y       z     vdW  Elec       q    Type
REMARK                         _______ _______ _______ _____ _____    ______ ____
ROOT
ATOM      5  C   UNL     1      -2.248   2.499  24.908  0.00  0.00    +0.095 C 
ATOM      6  N   UNL     1      -2.456   1.842  24.454  0.00  0.00    -0.207 NA
ATOM      7  C   UNL     1      -3.209   1.584  24.237  0.00  0.00    +0.155 C 
ATOM      8  C   UNL     1      -3.940   1.919  24.422  0.00  0.00    +0.055 C 
ATOM      9  C   UNL     1      -4.099   2.595  24.868  0.00  0.00    -0.002 A 
ATOM     10  C   UNL     1      -4.861   2.875  25.013  0.00  0.00    +0.072 A 
ATOM     11  N   UNL     1      -4.798   3.556  25.475  0.00  0.00    -0.324 N 
ATOM     12  C   UNL     1      -5.426   4.016  25.749  0.00  0.00    +0.130 C 
ATOM     13  C   UNL     1      -3.998   3.697  25.615  0.00  0.00    +0.059 A 
ATOM     14  C   UNL     1      -3.565   3.103  25.240  0.00  0.00    +0.011 A 
ATOM     15  C   UNL     1      -2.741   3.059  25.257  0.00  0.00    -0.005 A 
ATOM     16  C   UNL     1      -2.350   3.692  25.706  0.00  0.00    -0.003 A 
ATOM     17  C   UNL     1      -2.782   4.286  26.081  0.00  0.00    +0.001 A 
ATOM     18  C   UNL     1      -3.606   4.288  26.036  0.00  0.00    +0.017 A 
ENDROOT
BRANCH   7  19
ATOM     19  C   UNL     1      -3.234   0.901  23.775  0.00  0.00    +0.258 C 
ATOM     20  O   UNL     1      -3.144   0.952  22.957  0.00  0.00    -0.272 OA
ATOM     21  N   UNL     1      -3.350   0.166  24.133  0.00  0.00    -0.199 NA
BRANCH  21  22
ATOM     22  C   UNL     1      -3.375  -0.517  23.672  0.00  0.00    +0.142 C 
BRANCH  22  23
ATOM     23  C   UNL     1      -3.439  -1.257  24.033  0.00  0.00    -0.000 A 
ATOM     24  C   UNL     1      -2.857  -1.508  24.562  0.00  0.00    -0.000 A 
ATOM     25  C   UNL     1      -2.921  -2.248  24.924  0.00  0.00    +0.029 A 
ATOM     26  C   UNL     1      -3.565  -2.735  24.756  0.00  0.00    +0.140 A 
ATOM     27  F   UNL     1      -3.629  -3.473  25.117  0.00  0.00    -0.204 F 
ATOM     28  C   UNL     1      -4.146  -2.482  24.227  0.00  0.00    +0.029 A 
ATOM     29  C   UNL     1      -4.083  -1.744  23.866  0.00  0.00    -0.000 A 
ENDBRANCH  22  23
ENDBRANCH  21  22
ENDBRANCH   7  19
BRANCH   5   4
ATOM      4  C   UNL     1      -1.439   2.609  25.027  0.00  0.00    +0.022 C 
BRANCH   4   2
ATOM      1  C   UNL     1      -0.879   1.461  25.668  0.00  0.00    +0.000 C 
ATOM      2  C   UNL     1      -0.928   1.960  25.014  0.00  0.00    +0.002 C 
ATOM      3  C   UNL     1      -0.468   1.812  24.345  0.00  0.00    +0.000 C 
ENDBRANCH   4   2
ENDBRANCH   5   4
TORSDOF 5
ENDMDL
MODEL 3
REMARK VINA RESULT:     -12.3      1.996      4.969
REMARK  Name = 
REMARK  5 active torsions:
REMARK  status: ('A' for Active; 'I' for Inactive)
REMARK    1  A    between atoms: C_2  and  C_4
REMARK    2  A    between atoms: C_4  and  C_5
REMARK    3  A    between atoms: C_7  and  C_19
REMARK    4  A    between atoms: N_21  and  C_22
REMARK    5  A    between atoms: C_22  and  C_23
REMARK                            x       y       z     vdW  Elec       q    Type
REMARK                         _______ _______ _______ _____ _____    ______ ____
ROOT
ATOM      5  C   UNL     1      -1.515  -0.066  24.504  0.00  0.00    +0.095 C 
ATOM      6  N   UNL     1      -2.029   0.519  24.230  0.00  0.00    -0.207 NA
ATOM      7  C   UNL     1      -2.823   0.448  24.017  0.00  0.00    +0.155 C 
ATOM      8  C   UNL     1      -3.299  -0.225  24.027  0.00  0.00    +0.055 C 
ATOM      9  C   UNL     1      -3.100  -0.994  24.251  0.00  0.00    -0.002 A 
ATOM     10  C   UNL     1      -3.631  -1.624  24.236  0.00  0.00    +0.072 A 
ATOM     11  N   UNL     1      -3.235  -2.299  24.496  0.00  0.00    -0.324 N 
ATOM     12  C   UNL     1      -3.557  -3.055  24.568  0.00  0.00    +0.130 C 
ATOM     13  C   UNL     1      -2.458  -2.086  24.673  0.00  0.00    +0.059 A 
ATOM     14  C   UNL     1      -2.374  -1.279  24.521  0.00  0.00    +0.011 A 
ATOM     15  C   UNL     1      -1.669  -0.865  24.634  0.00  0.00    -0.005 A 
ATOM     16  C   UNL     1      -1.006  -1.343  24.928  0.00  0.00    -0.003 A 
ATOM     17  C   UNL     1      -1.089  -2.150  25.079  0.00  0.00    +0.001 A 
ATOM     18  C   UNL     1      -1.815  -2.521  24.952  0.00  0.00    +0.017 A 
ENDROOT
BRANCH   7  19
ATOM     19  C   UNL     1      -3.188   1.142  23.762  0.00  0.00    +0.258 C 
ATOM     20  O   UNL     1      -3.078   1.405  22.988  0.00  0.00    -0.272 OA
ATOM     21  N   UNL     1      -3.664   1.573  24.281  0.00  0.00    -0.199 NA
BRANCH  21  22
ATOM     22  C   UNL     1      -4.029   2.267  24.025  0.00  0.00    +0.142 C 
BRANCH  22  23
ATOM     23  C   UNL     1      -4.489   2.708  24.550  0.00  0.00    -0.000 A 
ATOM     24  C   UNL     1      -4.223   3.444  24.813  0.00  0.00    -0.000 A 
ATOM     25  C   UNL     1      -4.682   3.885  25.338  0.00  0.00    +0.029 A 
ATOM     26  C   UNL     1      -5.407   3.591  25.599  0.00  0.00    +0.140 A 
ATOM     27  F   UNL     1      -5.866   4.032  26.124  0.00  0.00    -0.204 F 
ATOM     28  C   UNL     1      -5.673   2.855  25.336  0.00  0.00    +0.029 A 
ATOM     29  C   UNL     1      -5.214   2.414  24.812  0.00  0.00    -0.000 A 
ENDBRANCH  22  23
ENDBRANCH  21  22
ENDBRANCH   7  19
BRANCH   5   4
ATOM      4  C   UNL     1      -0.747   0.183  24.670  0.00  0.00    +0.022 C 
BRANCH   4   2
ATOM      1  C   UNL     1      -0.801   1.212  25.661  0.00  0.00    +0.000 C 
ATOM      2  C   UNL     1      -0.607   0.964  24.899  0.00  0.00    +0.002 C 
ATOM      3  C   UNL     1      -0.271   1.496  24.364  0.00  0.00    +0.000 C 
ENDBRANCH   4   2
ENDBRANCH   5   4
TORSDOF 5
ENDMDL
MODEL 4
REMARK VINA RESULT:     -11.9      2.154      4.768
REMARK  Name = 
REMARK  5 active torsions:
REMARK  status: ('A' for Active; 'I' for Inactive)
REMARK    1  A    between atoms: C_2  and  C_4
REMARK    2  A    between atoms: C_4  and  C_5
REMARK    3  A    between atoms: C_7  and  C_19
REMARK    4  A    between atoms: N_21  and  C_22
REMARK    5  A    between atoms: C_22  and  C_23
REMARK                            x       y       z     vdW  Elec       q    Type
REMARK                         _______ _______ _______ _____ _____    ______ ____
ROOT
ATOM      5  C   UNL     1      -3.576   0.094  24.504  0.00  0.00    +0.095 C 
ATOM      6  N   UNL     1      -3.169   0.739  24.189  0.00  0.00    -0.207 NA
ATOM      7  C   UNL     1      -2.360   0.814  24.042  0.00  0.00    +0.155 C 
ATOM      8  C   UNL     1      -1.760   0.265  24.176  0.00  0.00    +0.055 C 
ATOM      9  C   UNL     1      -1.819  -0.496  24.488  0.00  0.00    -0.002 A 
ATOM     10  C   UNL     1      -1.172  -0.996  24.595  0.00  0.00    +0.072 A 
ATOM     11  N   UNL     1      -1.446  -1.705  24.918  0.00  0.00    -0.324 N 
ATOM     12  C   UNL     1      -0.985  -2.360  25.113  0.00  0.00    +0.130 C 
ATOM     13  C   UNL     1      -2.263  -1.643  25.010  0.00  0.00    +0.059 A 
ATOM     14  C   UNL     1      -2.494  -0.896  24.745  0.00  0.00    +0.011 A 
ATOM     15  C   UNL     1      -3.276  -0.632  24.752  0.00  0.00    -0.005 A 
ATOM     16  C   UNL     1      -3.853  -1.203  25.062  0.00  0.00    -0.003 A 
ATOM     17  C   UNL     1      -3.623  -1.950  25.327  0.00  0.00    +0.001 A 
ATOM     18  C   UNL     1      -2.827  -2.169  25.301  0.00  0.00    +0.017 A 
ENDROOT
BRANCH   7  19
ATOM     19  C   UNL     1      -2.121   1.535  23.720  0.00  0.00    +0.258 C 
ATOM     20  O   UNL     1      -2.083   1.629  22.902  0.00  0.00    -0.272 OA
ATOM     21  N   UNL     1      -1.919   2.163  24.217  0.00  0.00    -0.199 NA
BRANCH  21  22
ATOM     22  C   UNL     1      -1.680   2.883  23.895  0.00  0.00    +0.142 C 
BRANCH  22  23
ATOM     23  C   UNL     1      -1.649   3.557  24.371  0.00  0.00    -0.000 A 
ATOM     24  C   UNL     1      -0.921   3.897  24.558  0.00  0.00    -0.000 A 
ATOM     25  C   UNL     1      -0.890   4.571  25.033  0.00  0.00    +0.029 A 
ATOM     26  C   UNL     1      -1.588   4.905  25.321  0.00  0.00    +0.140 A 
ATOM     27  F   UNL     1      -1.557   5.578  25.796  0.00  0.00    -0.204 F 
ATOM     28  C   UNL     1      -2.316   4.564  25.134  0.00  0.00    +0.029 A 
ATOM     29  C   UNL     1      -2.347   3.891  24.659  0.00  0.00    -0.000 A 
ENDBRANCH  22  23
ENDBRANCH  21  22
ENDBRANCH   7  19
BRANCH   5   4
ATOM      4  C   UNL     1      -4.391   0.191  24.582  0.00  0.00    +0.022 C 
BRANCH   4   2
ATOM      1  C   UNL     1      -4.653   1.157  25.603  0.00  0.00    +0.000 C 
ATOM      2  C   UNL     1      -4.700   0.921  24.814  0.00  0.00    +0.002 C 
ATOM      3  C   UNL     1      -5.055   1.414  24.256  0.00  0.00    +0.000 C 
ENDBRANCH   4   2
ENDBRANCH   5   4
TORSDOF 5
ENDMDL
MODEL 5
REMARK VINA RESULT:     -11.5      2.308      4.392
REMARK  Name = 
REMARK  5 active torsions:
REMARK  status: ('A' for Active; 'I' for Inactive)
REMARK    1  A    between atoms: C_2  and  C_4
REMARK    2  A    between atoms: C_4  and  C_5
REMARK    3  A    between atoms: C_7  and  C_19
REMARK    4  A    between atoms: N_21  and  C_22
REMARK    5  A    between atoms: C_22  and  C_23
REMARK                            x       y       z     vdW  Elec       q    Type
REMARK                         _______ _______ _______ _____ _____    ______ ____
ROOT
ATOM      5  C   UNL     1      -2.403  -0.511  24.678  0.00  0.00    +0.095 C 
ATOM      6  N   UNL     1      -2.822   0.124  24.358  0.00  0.00    -0.207 NA
ATOM      7  C   UNL     1      -2.536   0.754  23.907  0.00  0.00    +0.155 C 
ATOM      8  C   UNL     1      -1.761   0.904  23.667  0.00  0.00    +0.055 C 
ATOM      9  C   UNL     1      -1.081   0.462  23.817  0.00  0.00    -0.002 A 
ATOM     10  C   UNL     1      -0.332   0.673  23.543  0.00  0.00    +0.072 A 
ATOM     11  N   UNL     1       0.205   0.102  23.801  0.00  0.00    -0.324 N 
ATOM     12  C   UNL     1       1.016   0.095  23.652  0.00  0.00    +0.130 C 
ATOM     13  C   UNL     1      -0.213  -0.463  24.235  0.00  0.00    +0.059 A 
ATOM     14  C   UNL     1      -1.007  -0.240  24.245  0.00  0.00    +0.011 A 
ATOM     15  C   UNL     1      -1.597  -0.672  24.628  0.00  0.00    -0.005 A 
ATOM     16  C   UNL     1      -1.321  -1.392  25.029  0.00  0.00    -0.003 A 
ATOM     17  C   UNL     1      -0.527  -1.615  25.020  0.00  0.00    +0.001 A 
ATOM     18  C   UNL     1       0.028  -1.150  24.622  0.00  0.00    +0.017 A 
ENDROOT
BRANCH   7  19
ATOM     19  C   UNL     1      -3.100   1.306  23.666  0.00  0.00    +0.258 C 
ATOM     20  O   UNL     1      -3.316   1.353  22.872  0.00  0.00    -0.272 OA
ATOM     21  N   UNL     1      -3.446   1.811  24.220  0.00  0.00    -0.199 NA
BRANCH  21  22
ATOM     22  C   UNL     1      -4.009   2.362  23.979  0.00  0.00    +0.142 C 
BRANCH  22  23
ATOM     23  C   UNL     1      -4.477   2.746  24.541  0.00  0.00    -0.000 A 
ATOM     24  C   UNL     1      -5.192   2.411  24.779  0.00  0.00    -0.000 A 
ATOM     25  C   UNL     1      -5.660   2.794  25.341  0.00  0.00    +0.029 A 
ATOM     26  C   UNL     1      -5.413   3.512  25.663  0.00  0.00    +0.140 A 
ATOM     27  F   UNL     1      -5.881   3.895  26.224  0.00  0.00    -0.204 F 
ATOM     28  C   UNL     1      -4.697   3.847  25.424  0.00  0.00    +0.029 A 
ATOM     29  C   UNL     1      -4.229   3.464  24.863  0.00  0.00    -0.000 A 
ENDBRANCH  22  23
ENDBRANCH  21  22
ENDBRANCH   7  19
BRANCH   5   4
ATOM      4  C   UNL     1      -2.852  -1.055  25.106  0.00  0.00    +0.022 C 
BRANCH   4   2
ATOM      1  C   UNL     1      -4.257  -0.899  25.317  0.00  0.00    +0.000 C 
ATOM      2  C   UNL     1      -3.631  -1.214  24.882  0.00  0.00    +0.002 C 
ATOM      3  C   UNL     1      -3.782  -1.687  24.222  0.00  0.00    +0.000 C 
ENDBRANCH   4   2
ENDBRANCH   5   4
TORSDOF 5
ENDMDL
