MODEL 1
REMARK VINA RESULT:     -18.2      0.000      0.000
REMARK  Name = 
REMARK  2 active torsions:
REMARK  status: ('A' for Active; 'I' for Inactive)
REMARK    1  A    between atoms: C_2  and  C_26
REMARK    2  A    between atoms: C_12  and  C_13
REMARK                            x       y       z     vdW  Elec       q    Type
REMARK                         _______ _______ _______ _____ _____    ______ ____
ROOT
ATOM      1  O   UNL     1      -1.912   1.990  23.686  0.00  0.00    -0.269 OA
ATOM      2  C   UNL     1      -2.691   1.823  24.070  0.00  0.00    +0.255 C 
ATOM      3  N   UNL     1      -3.136   2.515  24.286  0.00  0.00    -0.275 N 
ATOM      4  C   UNL     1      -3.188   3.349  24.309  0.00  0.00    +0.096 C 
ATOM      5  C   UNL     1      -4.071   3.448  24.742  0.00  0.00    +0.043 C 
ATOM      6  C   UNL     1      -4.767   3.696  25.084  0.00  0.00    +0.011 C 
ATOM      7  C   UNL     1      -4.452   3.088  24.931  0.00  0.00    +0.058 C 
ATOM      8  C   UNL     1      -3.598   3.009  24.512  0.00  0.00    +0.100 C 
ATOM      9  C   UNL     1      -4.572   2.179  24.993  0.00  0.00    +0.041 A 
ATOM     10  C   UNL     1      -5.117   1.621  25.263  0.00  0.00    +0.013 A 
ATOM     11  C   UNL     1      -4.955   0.816  25.187  0.00  0.00    +0.006 A 
ATOM     12  C   UNL     1      -4.248   0.568  24.840  0.00  0.00    +0.062 A 
ATOM     22  C   UNL     1      -3.703   1.126  24.570  0.00  0.00    +0.261 A 
ATOM     23  O   UNL     1      -2.781   1.081  24.117  0.00  0.00    -0.267 OA
ATOM     24  N   UNL     1      -3.865   1.931  24.647  0.00  0.00    -0.299 N 
ATOM     25  C   UNL     1      -4.187   2.497  24.803  0.00  0.00    +0.110 C 
ENDROOT
BRANCH  12  13
ATOM     13  C   UNL     1      -4.087  -0.237  24.764  0.00  0.00    +0.034 A 
ATOM     14  C   UNL     1      -4.321  -0.721  24.138  0.00  0.00    +0.007 A 
ATOM     15  C   UNL     1      -4.043  -1.483  24.286  0.00  0.00    +0.006 A 
ATOM     16  C   UNL     1      -3.636  -1.470  25.005  0.00  0.00    +0.029 A 
ATOM     17  S   UNL     1      -3.664  -0.700  25.300  0.00  0.00    -0.087 S 
ATOM     18  C   UNL     1      -3.294  -2.162  25.297  0.00  0.00    +0.006 A 
ATOM     19  C   UNL     1      -3.358  -2.866  24.871  0.00  0.00    +0.001 A 
ATOM     20  C   UNL     1      -3.764  -2.878  24.154  0.00  0.00    +0.000 A 
ATOM     21  C   UNL     1      -4.106  -2.187  23.861  0.00  0.00    +0.001 A 
ENDBRANCH  12  13
BRANCH   2  26
ATOM     26  C   UNL     1      -3.245   1.091  24.345  0.00  0.00    +0.083 A 
ATOM     27  C   UNL     1      -3.741   0.712  23.806  0.00  0.00    +0.012 A 
ATOM     28  C   UNL     1      -4.142   0.112  24.207  0.00  0.00    +0.008 A 
ATOM     29  C   UNL     1      -3.893   0.121  24.993  0.00  0.00    +0.036 A 
ATOM     30  S   UNL     1      -3.338   0.726  25.078  0.00  0.00    -0.082 S 
ENDBRANCH   2  26
TORSDOF 2
ENDMDL
MODEL 2
REMARK VINA RESULT:     -17.5      1.274      3.915
REMARK  Name = 
REMARK  2 active torsions:
REMARK  status: ('A' for Active; 'I' for Inactive)
REMARK    1  A    between atoms: C_2  and  C_26
REMARK    2  A    between atoms: C_12  and  C_13
REMARK                            x       y       z     vdW  Elec       q    Type
REMARK                         _______ _______ _______ _____ _____    ______ ____
ROOT
ATOM      1  O   UNL     1      -1.288  -0.608  25.570  0.00  0.00    -0.269 OA
ATOM      2  C   UNL     1      -2.084  -0.690  25.195  0.00  0.00    +0.255 C 
ATOM      3  N   UNL     1      -2.306  -1.489  25.002  0.00  0.00    -0.275 N 
ATOM      4  C   UNL     1      -2.108  -2.301  25.000  0.00  0.00    +0.096 C 
ATOM      5  C   UNL     1      -2.925  -2.669  24.584  0.00  0.00    +0.043 C 
ATOM      6  C   UNL     1      -3.520  -3.122  24.260  0.00  0.00    +0.011 C 
ATOM      7  C   UNL     1      -3.398  -2.443  24.393  0.00  0.00    +0.058 C 
ATOM      8  C   UNL     1      -2.603  -2.103  24.796  0.00  0.00    +0.100 C 
ATOM      9  C   UNL     1      -3.783  -1.613  24.311  0.00  0.00    +0.041 A 
ATOM     10  C   UNL     1      -4.471  -1.250  24.037  0.00  0.00    +0.013 A 
ATOM     11  C   UNL     1      -4.555  -0.431  24.092  0.00  0.00    +0.006 A 
ATOM     12  C   UNL     1      -3.950   0.025  24.421  0.00  0.00    +0.062 A 
ATOM     22  C   UNL     1      -3.262  -0.338  24.695  0.00  0.00    +0.261 A 
ATOM     23  O   UNL     1      -2.391  -0.009  25.132  0.00  0.00    -0.267 OA
ATOM     24  N   UNL     1      -3.179  -1.157  24.640  0.00  0.00    -0.299 N 
ATOM     25  C   UNL     1      -3.319  -1.797  24.503  0.00  0.00    +0.110 C 
ENDROOT
BRANCH  12  13
ATOM     13  C   UNL     1      -4.035   0.843  24.476  0.00  0.00    +0.034 A 
ATOM     14  C   UNL     1      -3.684   1.401  23.979  0.00  0.00    +0.007 A 
ATOM     15  C   UNL     1      -3.916   2.151  24.232  0.00  0.00    +0.006 A 
ATOM     16  C   UNL     1      -4.412   2.056  24.885  0.00  0.00    +0.029 A 
ATOM     17  S   UNL     1      -4.485   1.249  25.036  0.00  0.00    -0.087 S 
ATOM     18  C   UNL     1      -4.732   2.719  25.258  0.00  0.00    +0.006 A 
ATOM     19  C   UNL     1      -4.558   3.475  24.979  0.00  0.00    +0.001 A 
ATOM     20  C   UNL     1      -4.062   3.569  24.326  0.00  0.00    +0.000 A 
ATOM     21  C   UNL     1      -3.742   2.908  23.953  0.00  0.00    +0.001 A 
ENDBRANCH  12  13
BRANCH   2  26
ATOM     26  C   UNL     1      -2.833  -0.163  24.912  0.00  0.00    +0.083 A 
ATOM     27  C   UNL     1      -3.424   0.051  25.447  0.00  0.00    +0.012 A 
ATOM     28  C   UNL     1      -3.986   0.498  25.039  0.00  0.00    +0.008 A 
ATOM     29  C   UNL     1      -3.742   0.560  24.254  0.00  0.00    +0.036 A 
ATOM     30  S   UNL     1      -3.029   0.151  24.175  0.00  0.00    -0.082 S 
ENDBRANCH   2  26
TORSDOF 2
ENDMDL
