MODEL 1
REMARK VINA RESULT:     -11.5      0.000      0.000
REMARK  Name = 
REMARK  5 active torsions:
REMARK  status: ('A' for Active; 'I' for Inactive)
REMARK    1  A    between atoms: C_4  and  C_16
REMARK    2  A    between atoms: N_5  and  C_6
REMARK    3  A    between atoms: C_6  and  C_7
REMARK    4  A    between atoms: C_11  and  C_13
REMARK    5  A    between atoms: C_18  and  C_21
REMARK                            x       y       z     vdW  Elec       q    Type
REMARK                         _______ _______ _______ _____ _____    ______ ____
ROOT
ATOM      1  O   UNL     1      -6.250   1.528  25.781  0.00  0.00    -0.222 OA
ATOM      2  C   UNL     1      -5.506   1.538  25.425  0.00  0.00    +0.170 C 
ATOM      3  C   UNL     1      -5.083   2.212  25.207  0.00  0.00    +0.060 C 
ATOM      4  C   UNL     1      -4.370   1.968  24.872  0.00  0.00    +0.140 C 
ATOM      5  N   UNL     1      -4.353   1.143  24.883  0.00  0.00    -0.260 NA
ATOM     15  C   UNL     1      -5.056   0.878  25.226  0.00  0.00    +0.106 C 
ENDROOT
BRANCH   4  16
ATOM     16  C   UNL     1      -3.779   2.461  24.577  0.00  0.00    +0.251 A 
ATOM     17  N   UNL     1      -3.187   2.827  25.021  0.00  0.00    -0.190 NA
ATOM     18  C   UNL     1      -2.717   3.268  24.504  0.00  0.00    +0.205 A 
ATOM     19  N   UNL     1      -3.018   3.174  23.742  0.00  0.00    -0.056 NA
ATOM     20  O   UNL     1      -3.674   2.675  23.787  0.00  0.00    -0.336 OA
BRANCH  18  21
ATOM     21  C   UNL     1      -2.061   3.723  24.714  0.00  0.00    +0.058 A 
ATOM     22  C   UNL     1      -2.166   4.485  25.013  0.00  0.00    +0.006 A 
ATOM     23  C   UNL     1      -1.510   4.939  25.222  0.00  0.00    +0.021 A 
ATOM     24  C   UNL     1      -0.750   4.632  25.133  0.00  0.00    +0.099 A 
ATOM     25  N   UNL     1      -0.645   3.870  24.834  0.00  0.00    -0.242 NA
ATOM     26  C   UNL     1      -1.301   3.415  24.625  0.00  0.00    +0.102 A 
ENDBRANCH  18  21
ENDBRANCH   4  16
BRANCH   5   6
ATOM      6  C   UNL     1      -3.741   0.667  24.602  0.00  0.00    +0.100 C 
BRANCH   6   7
ATOM      7  C   UNL     1      -3.704  -0.128  24.819  0.00  0.00    -0.005 A 
ATOM      8  C   UNL     1      -3.420  -0.339  25.565  0.00  0.00    -0.003 A 
ATOM      9  C   UNL     1      -3.383  -1.135  25.781  0.00  0.00    +0.000 A 
ATOM     10  C   UNL     1      -3.629  -1.718  25.253  0.00  0.00    +0.010 A 
ATOM     11  C   UNL     1      -3.912  -1.507  24.507  0.00  0.00    +0.068 A 
ATOM     12  C   UNL     1      -3.949  -0.712  24.291  0.00  0.00    +0.007 A 
BRANCH  11  13
ATOM     13  C   UNL     1      -4.158  -2.091  23.979  0.00  0.00    +0.100 C 
ATOM     14  N   UNL     1      -4.403  -2.675  23.450  0.00  0.00    -0.191 NA
ENDBRANCH  11  13
ENDBRANCH   6   7
ENDBRANCH   5   6
TORSDOF 5
ENDMDL
MODEL 2
REMARK VINA RESULT:     -11.4      1.108      4.610
REMARK  Name = 
REMARK  5 active torsions:
REMARK  status: ('A' for Active; 'I' for Inactive)
REMARK    1  A    between atoms: C_4  and  C_16
REMARK    2  A    between atoms: N_5  and  C_6
REMARK    3  A    between atoms: C_6  and  C_7
REMARK    4  A    between atoms: C_11  and  C_13
REMARK    5  A    between atoms: C_18  and  C_21
REMARK                            x       y       z     vdW  Elec       q    Type
REMARK                         _______ _______ _______ _____ _____    ______ ____
ROOT
ATOM      1  O   UNL     1      -5.573   3.190  26.067  0.00  0.00    -0.222 OA
ATOM      2  C   UNL     1      -5.007   2.780  25.629  0.00  0.00    +0.170 C 
ATOM      3  C   UNL     1      -5.067   1.999  25.372  0.00  0.00    +0.060 C 
ATOM      4  C   UNL     1      -4.379   1.815  24.955  0.00  0.00    +0.140 C 
ATOM      5  N   UNL     1      -3.895   2.484  24.954  0.00  0.00    -0.260 NA
ATOM     15  C   UNL     1      -4.285   3.080  25.371  0.00  0.00    +0.106 C 
ENDROOT
BRANCH   4  16
ATOM     16  C   UNL     1      -4.205   1.091  24.601  0.00  0.00    +0.251 A 
ATOM     17  N   UNL     1      -4.123   0.368  24.990  0.00  0.00    -0.190 NA
ATOM     18  C   UNL     1      -3.950  -0.208  24.424  0.00  0.00    +0.205 A 
ATOM     19  N   UNL     1      -3.926   0.159  23.686  0.00  0.00    -0.056 NA
ATOM     20  O   UNL     1      -4.084   0.962  23.795  0.00  0.00    -0.336 OA
BRANCH  18  21
ATOM     21  C   UNL     1      -3.824  -1.010  24.572  0.00  0.00    +0.058 A 
ATOM     22  C   UNL     1      -4.063  -1.573  24.019  0.00  0.00    +0.006 A 
ATOM     23  C   UNL     1      -3.937  -2.375  24.166  0.00  0.00    +0.021 A 
ATOM     24  C   UNL     1      -3.572  -2.613  24.867  0.00  0.00    +0.099 A 
ATOM     25  N   UNL     1      -3.332  -2.050  25.419  0.00  0.00    -0.242 NA
ATOM     26  C   UNL     1      -3.458  -1.248  25.272  0.00  0.00    +0.102 A 
ENDBRANCH  18  21
ENDBRANCH   4  16
BRANCH   5   6
ATOM      6  C   UNL     1      -3.153   2.546  24.599  0.00  0.00    +0.100 C 
BRANCH   6   7
ATOM      7  C   UNL     1      -2.579   3.039  24.926  0.00  0.00    -0.005 A 
ATOM      8  C   UNL     1      -2.648   3.858  24.850  0.00  0.00    -0.003 A 
ATOM      9  C   UNL     1      -2.073   4.352  25.178  0.00  0.00    +0.000 A 
ATOM     10  C   UNL     1      -1.431   4.026  25.580  0.00  0.00    +0.010 A 
ATOM     11  C   UNL     1      -1.362   3.207  25.655  0.00  0.00    +0.068 A 
ATOM     12  C   UNL     1      -1.937   2.715  25.328  0.00  0.00    +0.007 A 
BRANCH  11  13
ATOM     13  C   UNL     1      -0.719   2.883  26.057  0.00  0.00    +0.100 C 
ATOM     14  N   UNL     1      -0.076   2.559  26.460  0.00  0.00    -0.191 NA
ENDBRANCH  11  13
ENDBRANCH   6   7
ENDBRANCH   5   6
TORSDOF 5
ENDMDL
MODEL 3
REMARK VINA RESULT:     -11.2      1.192      4.707
REMARK  Name = 
REMARK  5 active torsions:
REMARK  status: ('A' for Active; 'I' for Inactive)
REMARK    1  A    between atoms: C_4  and  C_16
REMARK    2  A    between atoms: N_5  and  C_6
REMARK    3  A    between atoms: C_6  and  C_7
REMARK    4  A    between atoms: C_11  and  C_13
REMARK    5  A    between atoms: C_18  and  C_21
REMARK                            x       y       z     vdW  Elec       q    Type
REMARK                         _______ _______ _______ _____ _____    ______ ____
ROOT
ATOM      1  O   UNL     1      -4.025   3.519  23.235  0.00  0.00    -0.222 OA
ATOM      2  C   UNL     1      -3.792   2.913  23.745  0.00  0.00    +0.170 C 
ATOM      3  C   UNL     1      -4.178   2.191  23.847  0.00  0.00    +0.060 C 
ATOM      4  C   UNL     1      -3.757   1.755  24.407  0.00  0.00    +0.140 C 
ATOM      5  N   UNL     1      -3.111   2.208  24.650  0.00  0.00    -0.260 NA
ATOM     15  C   UNL     1      -3.134   2.924  24.240  0.00  0.00    +0.106 C 
ENDROOT
BRANCH   4  16
ATOM     16  C   UNL     1      -3.947   0.999  24.676  0.00  0.00    +0.251 A 
ATOM     17  N   UNL     1      -3.703   0.287  24.337  0.00  0.00    -0.190 NA
ATOM     18  C   UNL     1      -4.021  -0.330  24.783  0.00  0.00    +0.205 A 
ATOM     19  N   UNL     1      -4.462   0.000  25.398  0.00  0.00    -0.056 NA
ATOM     20  O   UNL     1      -4.416   0.822  25.331  0.00  0.00    -0.336 OA
BRANCH  18  21
ATOM     21  C   UNL     1      -3.917  -1.136  24.640  0.00  0.00    +0.058 A 
ATOM     22  C   UNL     1      -3.447  -1.587  25.146  0.00  0.00    +0.006 A 
ATOM     23  C   UNL     1      -3.343  -2.392  25.002  0.00  0.00    +0.021 A 
ATOM     24  C   UNL     1      -3.709  -2.747  24.353  0.00  0.00    +0.099 A 
ATOM     25  N   UNL     1      -4.179  -2.296  23.847  0.00  0.00    -0.242 NA
ATOM     26  C   UNL     1      -4.283  -1.490  23.991  0.00  0.00    +0.102 A 
ENDBRANCH  18  21
ENDBRANCH   4  16
BRANCH   5   6
ATOM      6  C   UNL     1      -2.544   1.985  25.205  0.00  0.00    +0.100 C 
BRANCH   6   7
ATOM      7  C   UNL     1      -1.828   2.392  25.249  0.00  0.00    -0.005 A 
ATOM      8  C   UNL     1      -1.787   3.112  25.651  0.00  0.00    -0.003 A 
ATOM      9  C   UNL     1      -1.070   3.519  25.695  0.00  0.00    +0.000 A 
ATOM     10  C   UNL     1      -0.396   3.206  25.339  0.00  0.00    +0.010 A 
ATOM     11  C   UNL     1      -0.436   2.486  24.938  0.00  0.00    +0.068 A 
ATOM     12  C   UNL     1      -1.153   2.080  24.894  0.00  0.00    +0.007 A 
BRANCH  11  13
ATOM     13  C   UNL     1       0.239   2.174  24.582  0.00  0.00    +0.100 C 
ATOM     14  N   UNL     1       0.915   1.861  24.226  0.00  0.00    -0.191 NA
ENDBRANCH  11  13
ENDBRANCH   6   7
ENDBRANCH   5   6
TORSDOF 5
ENDMDL
MODEL 4
REMARK VINA RESULT:     -10.9      1.935      2.659
REMARK  Name = 
REMARK  5 active torsions:
REMARK  status: ('A' for Active; 'I' for Inactive)
REMARK    1  A    between atoms: C_4  and  C_16
REMARK    2  A    between atoms: N_5  and  C_6
REMARK    3  A    between atoms: C_6  and  C_7
REMARK    4  A    between atoms: C_11  and  C_13
REMARK    5  A    between atoms: C_18  and  C_21
REMARK                            x       y       z     vdW  Elec       q    Type
REMARK                         _______ _______ _______ _____ _____    ______ ____
ROOT
ATOM      1  O   UNL     1       0.279  -0.971  24.239  0.00  0.00    -0.222 OA
ATOM      2  C   UNL     1      -0.355  -0.446  24.297  0.00  0.00    +0.170 C 
ATOM      3  C   UNL     1      -0.338   0.356  24.105  0.00  0.00    +0.060 C 
ATOM      4  C   UNL     1      -1.089   0.667  24.248  0.00  0.00    +0.140 C 
ATOM      5  N   UNL     1      -1.569   0.057  24.528  0.00  0.00    -0.260 NA
ATOM     15  C   UNL     1      -1.114  -0.631  24.558  0.00  0.00    +0.106 C 
ENDROOT
BRANCH   4  16
ATOM     16  C   UNL     1      -1.320   1.450  24.130  0.00  0.00    +0.251 A 
ATOM     17  N   UNL     1      -1.231   2.068  24.670  0.00  0.00    -0.190 NA
ATOM     18  C   UNL     1      -1.537   2.753  24.326  0.00  0.00    +0.205 A 
ATOM     19  N   UNL     1      -1.813   2.559  23.573  0.00  0.00    -0.056 NA
ATOM     20  O   UNL     1      -1.680   1.753  23.452  0.00  0.00    -0.336 OA
BRANCH  18  21
ATOM     21  C   UNL     1      -1.560   3.501  24.673  0.00  0.00    +0.058 A 
ATOM     22  C   UNL     1      -0.900   3.994  24.637  0.00  0.00    +0.006 A 
ATOM     23  C   UNL     1      -0.924   4.742  24.984  0.00  0.00    +0.021 A 
ATOM     24  C   UNL     1      -1.608   4.997  25.368  0.00  0.00    +0.099 A 
ATOM     25  N   UNL     1      -2.269   4.504  25.404  0.00  0.00    -0.242 NA
ATOM     26  C   UNL     1      -2.245   3.756  25.056  0.00  0.00    +0.102 A 
ENDBRANCH  18  21
ENDBRANCH   4  16
BRANCH   5   6
ATOM      6  C   UNL     1      -2.363   0.123  24.740  0.00  0.00    +0.100 C 
BRANCH   6   7
ATOM      7  C   UNL     1      -2.785  -0.547  24.971  0.00  0.00    -0.005 A 
ATOM      8  C   UNL     1      -2.782  -0.783  25.762  0.00  0.00    -0.003 A 
ATOM      9  C   UNL     1      -3.205  -1.454  25.993  0.00  0.00    +0.000 A 
ATOM     10  C   UNL     1      -3.630  -1.886  25.435  0.00  0.00    +0.010 A 
ATOM     11  C   UNL     1      -3.633  -1.650  24.644  0.00  0.00    +0.068 A 
ATOM     12  C   UNL     1      -3.210  -0.980  24.413  0.00  0.00    +0.007 A 
BRANCH  11  13
ATOM     13  C   UNL     1      -4.058  -2.083  24.086  0.00  0.00    +0.100 C 
ATOM     14  N   UNL     1      -4.484  -2.517  23.527  0.00  0.00    -0.191 NA
ENDBRANCH  11  13
ENDBRANCH   6   7
ENDBRANCH   5   6
TORSDOF 5
ENDMDL
MODEL 5
REMARK VINA RESULT:     -10.7      2.078      5.283
REMARK  Name = 
REMARK  5 active torsions:
REMARK  status: ('A' for Active; 'I' for Inactive)
REMARK    1  A    between atoms: C_4  and  C_16
REMARK    2  A    between atoms: N_5  and  C_6
REMARK    3  A    between atoms: C_6  and  C_7
REMARK    4  A    between atoms: C_11  and  C_13
REMARK    5  A    between atoms: C_18  and  C_21
REMARK                            x       y       z     vdW  Elec       q    Type
REMARK                         _______ _______ _______ _____ _____    ______ ____
ROOT
ATOM      1  O   UNL     1       0.876   1.653  23.837  0.00  0.00    -0.222 OA
ATOM      2  C   UNL     1       0.202   1.461  24.271  0.00  0.00    +0.170 C 
ATOM      3  C   UNL     1      -0.128   0.708  24.345  0.00  0.00    +0.060 C 
ATOM      4  C   UNL     1      -0.795   0.769  24.827  0.00  0.00    +0.140 C 
ATOM      5  N   UNL     1      -0.877   1.559  25.050  0.00  0.00    -0.260 NA
ATOM     15  C   UNL     1      -0.260   1.986  24.706  0.00  0.00    +0.106 C 
ENDROOT
BRANCH   4  16
ATOM     16  C   UNL     1      -1.292   0.148  25.047  0.00  0.00    +0.251 A 
ATOM     17  N   UNL     1      -1.837  -0.233  24.559  0.00  0.00    -0.190 NA
ATOM     18  C   UNL     1      -2.213  -0.817  25.004  0.00  0.00    +0.205 A 
ATOM     19  N   UNL     1      -1.901  -0.797  25.767  0.00  0.00    -0.056 NA
ATOM     20  O   UNL     1      -1.331  -0.200  25.794  0.00  0.00    -0.336 OA
BRANCH  18  21
ATOM     21  C   UNL     1      -2.800  -1.331  24.733  0.00  0.00    +0.058 A 
ATOM     22  C   UNL     1      -3.532  -1.034  24.496  0.00  0.00    +0.006 A 
ATOM     23  C   UNL     1      -4.117  -1.547  24.226  0.00  0.00    +0.021 A 
ATOM     24  C   UNL     1      -3.971  -2.359  24.192  0.00  0.00    +0.099 A 
ATOM     25  N   UNL     1      -3.239  -2.656  24.430  0.00  0.00    -0.242 NA
ATOM     26  C   UNL     1      -2.653  -2.142  24.700  0.00  0.00    +0.102 A 
ENDBRANCH  18  21
ENDBRANCH   4  16
BRANCH   5   6
ATOM      6  C   UNL     1      -1.470   1.867  25.532  0.00  0.00    +0.100 C 
BRANCH   6   7
ATOM      7  C   UNL     1      -1.709   2.651  25.442  0.00  0.00    -0.005 A 
ATOM      8  C   UNL     1      -1.251   3.261  25.757  0.00  0.00    -0.003 A 
ATOM      9  C   UNL     1      -1.490   4.046  25.666  0.00  0.00    +0.000 A 
ATOM     10  C   UNL     1      -2.187   4.220  25.262  0.00  0.00    +0.010 A 
ATOM     11  C   UNL     1      -2.646   3.610  24.948  0.00  0.00    +0.068 A 
ATOM     12  C   UNL     1      -2.406   2.826  25.038  0.00  0.00    +0.007 A 
BRANCH  11  13
ATOM     13  C   UNL     1      -3.343   3.785  24.543  0.00  0.00    +0.100 C 
ATOM     14  N   UNL     1      -4.041   3.961  24.139  0.00  0.00    -0.191 NA
ENDBRANCH  11  13
ENDBRANCH   6   7
ENDBRANCH   5   6
TORSDOF 5
ENDMDL
MODEL 6
REMARK VINA RESULT:     -10.5      2.171      3.334
REMARK  Name = 
REMARK  5 active torsions:
REMARK  status: ('A' for Active; 'I' for Inactive)
REMARK    1  A    between atoms: C_4  and  C_16
REMARK    2  A    between atoms: N_5  and  C_6
REMARK    3  A    between atoms: C_6  and  C_7
REMARK    4  A    between atoms: C_11  and  C_13
REMARK    5  A    between atoms: C_18  and  C_21
REMARK                            x       y       z     vdW  Elec       q    Type
REMARK                         _______ _______ _______ _____ _____    ______ ____
ROOT
ATOM      1  O   UNL     1      -4.199  -2.372  23.944  0.00  0.00    -0.222 OA
ATOM      2  C   UNL     1      -3.897  -1.629  24.140  0.00  0.00    +0.170 C 
ATOM      3  C   UNL     1      -4.259  -0.904  23.988  0.00  0.00    +0.060 C 
ATOM      4  C   UNL     1      -3.765  -0.308  24.277  0.00  0.00    +0.140 C 
ATOM      5  N   UNL     1      -3.099  -0.667  24.606  0.00  0.00    -0.260 NA
ATOM     15  C   UNL     1      -3.181  -1.483  24.521  0.00  0.00    +0.106 C 
ENDROOT
BRANCH   4  16
ATOM     16  C   UNL     1      -3.912   0.502  24.241  0.00  0.00    +0.251 A 
ATOM     17  N   UNL     1      -4.329   0.945  24.799  0.00  0.00    -0.190 NA
ATOM     18  C   UNL     1      -4.343   1.729  24.544  0.00  0.00    +0.205 A 
ATOM     19  N   UNL     1      -3.935   1.772  23.829  0.00  0.00    -0.056 NA
ATOM     20  O   UNL     1      -3.669   1.014  23.641  0.00  0.00    -0.336 OA
BRANCH  18  21
ATOM     21  C   UNL     1      -4.702   2.361  24.936  0.00  0.00    +0.058 A 
ATOM     22  C   UNL     1      -5.435   2.257  25.301  0.00  0.00    +0.006 A 
ATOM     23  C   UNL     1      -5.794   2.887  25.692  0.00  0.00    +0.021 A 
ATOM     24  C   UNL     1      -5.420   3.623  25.719  0.00  0.00    +0.099 A 
ATOM     25  N   UNL     1      -4.688   3.727  25.355  0.00  0.00    -0.242 NA
ATOM     26  C   UNL     1      -4.328   3.095  24.963  0.00  0.00    +0.102 A 
ENDBRANCH  18  21
ENDBRANCH   4  16
BRANCH   5   6
ATOM      6  C   UNL     1      -2.463  -0.277  24.958  0.00  0.00    +0.100 C 
BRANCH   6   7
ATOM      7  C   UNL     1      -1.711  -0.616  24.941  0.00  0.00    -0.005 A 
ATOM      8  C   UNL     1      -1.501  -1.181  25.505  0.00  0.00    -0.003 A 
ATOM      9  C   UNL     1      -0.748  -1.520  25.487  0.00  0.00    +0.000 A 
ATOM     10  C   UNL     1      -0.207  -1.293  24.908  0.00  0.00    +0.010 A 
ATOM     11  C   UNL     1      -0.418  -0.727  24.345  0.00  0.00    +0.068 A 
ATOM     12  C   UNL     1      -1.169  -0.389  24.363  0.00  0.00    +0.007 A 
BRANCH  11  13
ATOM     13  C   UNL     1       0.124  -0.501  23.766  0.00  0.00    +0.100 C 
ATOM     14  N   UNL     1       0.667  -0.274  23.187  0.00  0.00    -0.191 NA
ENDBRANCH  11  13
ENDBRANCH   6   7
ENDBRANCH   5   6
TORSDOF 5
ENDMDL
MODEL 7
REMARK VINA RESULT:     -10.4      2.323      3.783
REMARK  Name = 
REMARK  5 active torsions:
REMARK  status: ('A' for Active; 'I' for Inactive)
REMARK    1  A    between atoms: C_4  and  C_16
REMARK    2  A    between atoms: N_5  and  C_6
REMARK    3  A    between atoms: C_6  and  C_7
REMARK    4  A    between atoms: C_11  and  C_13
REMARK    5  A    between atoms: C_18  and  C_21
REMARK                            x       y       z     vdW  Elec       q    Type
REMARK                         _______ _______ _______ _____ _____    ______ ____
ROOT
ATOM      1  O   UNL     1       0.444   2.691  26.375  0.00  0.00    -0.222 OA
ATOM      2  C   UNL     1      -0.176   2.513  25.861  0.00  0.00    +0.170 C 
ATOM      3  C   UNL     1      -0.899   2.908  25.820  0.00  0.00    +0.060 C 
ATOM      4  C   UNL     1      -1.352   2.549  25.230  0.00  0.00    +0.140 C 
ATOM      5  N   UNL     1      -0.907   1.933  24.908  0.00  0.00    -0.260 NA
ATOM     15  C   UNL     1      -0.180   1.911  25.298  0.00  0.00    +0.106 C 
ENDROOT
BRANCH   4  16
ATOM     16  C   UNL     1      -2.114   2.767  25.004  0.00  0.00    +0.251 A 
ATOM     17  N   UNL     1      -2.816   2.505  25.348  0.00  0.00    -0.190 NA
ATOM     18  C   UNL     1      -3.444   2.863  24.949  0.00  0.00    +0.205 A 
ATOM     19  N   UNL     1      -3.130   3.346  24.360  0.00  0.00    -0.056 NA
ATOM     20  O   UNL     1      -2.308   3.288  24.393  0.00  0.00    -0.336 OA
BRANCH  18  21
ATOM     21  C   UNL     1      -4.246   2.755  25.113  0.00  0.00    +0.058 A 
ATOM     22  C   UNL     1      -4.646   2.102  24.806  0.00  0.00    +0.006 A 
ATOM     23  C   UNL     1      -5.447   1.995  24.969  0.00  0.00    +0.021 A 
ATOM     24  C   UNL     1      -5.849   2.541  25.439  0.00  0.00    +0.099 A 
ATOM     25  N   UNL     1      -5.450   3.195  25.746  0.00  0.00    -0.242 NA
ATOM     26  C   UNL     1      -4.648   3.302  25.583  0.00  0.00    +0.102 A 
ENDBRANCH  18  21
ENDBRANCH   4  16
BRANCH   5   6
ATOM      6  C   UNL     1      -1.148   1.427  24.302  0.00  0.00    +0.100 C 
BRANCH   6   7
ATOM      7  C   UNL     1      -0.753   0.714  24.179  0.00  0.00    -0.005 A 
ATOM      8  C   UNL     1      -0.080   0.692  23.702  0.00  0.00    -0.003 A 
ATOM      9  C   UNL     1       0.315  -0.023  23.579  0.00  0.00    +0.000 A 
ATOM     10  C   UNL     1       0.037  -0.714  23.933  0.00  0.00    +0.010 A 
ATOM     11  C   UNL     1      -0.636  -0.691  24.410  0.00  0.00    +0.068 A 
ATOM     12  C   UNL     1      -1.030   0.023  24.533  0.00  0.00    +0.007 A 
BRANCH  11  13
ATOM     13  C   UNL     1      -0.913  -1.383  24.764  0.00  0.00    +0.100 C 
ATOM     14  N   UNL     1      -1.191  -2.075  25.118  0.00  0.00    -0.191 NA
ENDBRANCH  11  13
ENDBRANCH   6   7
ENDBRANCH   5   6
TORSDOF 5
ENDMDL
