MODEL 1
REMARK VINA RESULT:      -9.0      0.000      0.000
REMARK  Name = 
REMARK  5 active torsions:
REMARK  status: ('A' for Active; 'I' for Inactive)
REMARK    1  A    between atoms: N_6  and  C_7
REMARK    2  A    between atoms: C_7  and  C_8
REMARK    3  A    between atoms: C_20  and  C_21
REMARK    4  A    between atoms: C_21  and  C_22
REMARK    5  A    between atoms: C_22  and  C_23
REMARK                            x       y       z     vdW  Elec       q    Type
REMARK                         _______ _______ _______ _____ _____    ______ ____
ROOT
ATOM      1  C   UNL     1      -1.079  -0.274  24.708  0.00  0.00    +0.090 C 
ATOM      2  N   UNL     1      -1.286   0.404  24.284  0.00  0.00    -0.271 NA
ATOM      3  C   UNL     1      -2.028   0.720  24.457  0.00  0.00    +0.083 C 
ATOM      4  C   UNL     1      -2.544   0.394  25.013  0.00  0.00    +0.035 C 
ATOM      5  C   UNL     1      -3.225   0.858  25.032  0.00  0.00    +0.074 C 
ATOM      6  N   UNL     1      -3.131   1.472  24.487  0.00  0.00    -0.262 NA
ATOM     15  C   UNL     1      -2.392   1.386  24.132  0.00  0.00    +0.151 C 
ATOM     16  C   UNL     1      -2.102   1.899  23.555  0.00  0.00    +0.257 C 
ATOM     17  O   UNL     1      -2.604   2.521  23.345  0.00  0.00    -0.272 OA
ATOM     18  N   UNL     1      -1.379   1.875  23.160  0.00  0.00    -0.203 NA
ATOM     19  C   UNL     1      -0.765   1.329  23.245  0.00  0.00    +0.131 C 
ATOM     20  C   UNL     1      -0.724   0.675  23.745  0.00  0.00    +0.080 C 
ENDROOT
BRANCH   6   7
ATOM      7  C   UNL     1      -3.681   2.066  24.326  0.00  0.00    +0.100 C 
BRANCH   7   8
ATOM      8  C   UNL     1      -4.371   2.122  24.775  0.00  0.00    -0.006 A 
ATOM      9  C   UNL     1      -5.005   1.617  24.623  0.00  0.00    -0.003 A 
ATOM     10  C   UNL     1      -5.693   1.674  25.073  0.00  0.00    -0.005 A 
ATOM     11  C   UNL     1      -5.750   2.235  25.674  0.00  0.00    -0.022 A 
ATOM     12  C   UNL     1      -6.438   2.292  26.124  0.00  0.00    +0.031 C 
ATOM     13  C   UNL     1      -5.115   2.740  25.826  0.00  0.00    -0.005 A 
ATOM     14  C   UNL     1      -4.426   2.684  25.377  0.00  0.00    -0.003 A 
ENDBRANCH   7   8
ENDBRANCH   6   7
BRANCH  20  21
ATOM     21  C   UNL     1      -0.028   0.233  23.700  0.00  0.00    +0.027 C 
BRANCH  21  22
ATOM     22  C   UNL     1       0.636   0.548  23.324  0.00  0.00    +0.087 C 
BRANCH  22  23
ATOM     23  C   UNL     1       1.176   0.046  22.954  0.00  0.00    +0.226 C 
ATOM     24  O   UNL     1       0.927  -0.684  22.660  0.00  0.00    -0.275 OA
ATOM     25  N   UNL     1       1.965   0.274  22.878  0.00  0.00    -0.279 N 
ATOM     26  C   UNL     1       2.506  -0.228  22.507  0.00  0.00    +0.096 C 
ATOM     27  C   UNL     1       3.295   0.001  22.431  0.00  0.00    +0.054 C 
ATOM     28  C   UNL     1       3.543   0.731  22.725  0.00  0.00    +0.155 C 
ATOM     29  O   UNL     1       4.333   0.959  22.648  0.00  0.00    -0.223 OA
ATOM     30  C   UNL     1       3.003   1.232  23.095  0.00  0.00    +0.054 C 
ATOM     31  C   UNL     1       2.214   1.004  23.171  0.00  0.00    +0.096 C 
ENDBRANCH  22  23
ENDBRANCH  21  22
ENDBRANCH  20  21
TORSDOF 5
ENDMDL
MODEL 2
REMARK VINA RESULT:      -8.7      3.193      4.765
REMARK  Name = 
REMARK  5 active torsions:
REMARK  status: ('A' for Active; 'I' for Inactive)
REMARK    1  A    between atoms: N_6  and  C_7
REMARK    2  A    between atoms: C_7  and  C_8
REMARK    3  A    between atoms: C_20  and  C_21
REMARK    4  A    between atoms: C_21  and  C_22
REMARK    5  A    between atoms: C_22  and  C_23
REMARK                            x       y       z     vdW  Elec       q    Type
REMARK                         _______ _______ _______ _____ _____    ______ ____
ROOT
ATOM      1  C   UNL     1      -1.119   0.384  23.527  0.00  0.00    +0.090 C 
ATOM      2  N   UNL     1      -0.991   0.648  24.299  0.00  0.00    -0.271 NA
ATOM      3  C   UNL     1      -0.870   1.459  24.384  0.00  0.00    +0.083 C 
ATOM      4  C   UNL     1      -0.873   1.988  23.751  0.00  0.00    +0.035 C 
ATOM      5  C   UNL     1      -0.734   2.745  24.049  0.00  0.00    +0.074 C 
ATOM      6  N   UNL     1      -0.645   2.683  24.867  0.00  0.00    -0.262 NA
ATOM     15  C   UNL     1      -0.729   1.889  25.074  0.00  0.00    +0.151 C 
ATOM     16  C   UNL     1      -0.674   1.613  25.849  0.00  0.00    +0.257 C 
ATOM     17  O   UNL     1      -0.528   2.187  26.424  0.00  0.00    -0.272 OA
ATOM     18  N   UNL     1      -0.747   0.839  26.127  0.00  0.00    -0.203 NA
ATOM     19  C   UNL     1      -0.892   0.150  25.696  0.00  0.00    +0.131 C 
ATOM     20  C   UNL     1      -1.001   0.065  24.883  0.00  0.00    +0.080 C 
ENDROOT
BRANCH   6   7
ATOM      7  C   UNL     1      -0.498   3.307  25.388  0.00  0.00    +0.100 C 
BRANCH   7   8
ATOM      8  C   UNL     1      -0.844   4.044  25.255  0.00  0.00    -0.006 A 
ATOM      9  C   UNL     1      -1.613   4.192  25.516  0.00  0.00    -0.003 A 
ATOM     10  C   UNL     1      -1.958   4.929  25.383  0.00  0.00    -0.005 A 
ATOM     11  C   UNL     1      -1.536   5.519  24.990  0.00  0.00    -0.022 A 
ATOM     12  C   UNL     1      -1.881   6.255  24.858  0.00  0.00    +0.031 C 
ATOM     13  C   UNL     1      -0.767   5.370  24.730  0.00  0.00    -0.005 A 
ATOM     14  C   UNL     1      -0.421   4.634  24.862  0.00  0.00    -0.003 A 
ENDBRANCH   7   8
ENDBRANCH   6   7
BRANCH  20  21
ATOM     21  C   UNL     1      -1.137  -0.705  24.619  0.00  0.00    +0.027 C 
BRANCH  21  22
ATOM     22  C   UNL     1      -1.789  -1.126  24.898  0.00  0.00    +0.087 C 
BRANCH  22  23
ATOM     23  C   UNL     1      -1.911  -1.906  24.656  0.00  0.00    +0.226 C 
ATOM     24  O   UNL     1      -1.279  -2.437  24.641  0.00  0.00    -0.275 OA
ATOM     25  N   UNL     1      -2.664  -2.153  24.427  0.00  0.00    -0.279 N 
ATOM     26  C   UNL     1      -2.785  -2.933  24.184  0.00  0.00    +0.096 C 
ATOM     27  C   UNL     1      -3.539  -3.180  23.956  0.00  0.00    +0.054 C 
ATOM     28  C   UNL     1      -4.170  -2.649  23.971  0.00  0.00    +0.155 C 
ATOM     29  O   UNL     1      -4.923  -2.898  23.742  0.00  0.00    -0.223 OA
ATOM     30  C   UNL     1      -4.048  -1.871  24.213  0.00  0.00    +0.054 C 
ATOM     31  C   UNL     1      -3.295  -1.623  24.442  0.00  0.00    +0.096 C 
ENDBRANCH  22  23
ENDBRANCH  21  22
ENDBRANCH  20  21
TORSDOF 5
ENDMDL
MODEL 3
REMARK VINA RESULT:      -8.0      1.601      2.559
REMARK  Name = 
REMARK  5 active torsions:
REMARK  status: ('A' for Active; 'I' for Inactive)
REMARK    1  A    between atoms: N_6  and  C_7
REMARK    2  A    between atoms: C_7  and  C_8
REMARK    3  A    between atoms: C_20  and  C_21
REMARK    4  A    between atoms: C_21  and  C_22
REMARK    5  A    between atoms: C_22  and  C_23
REMARK                            x       y       z     vdW  Elec       q    Type
REMARK                         _______ _______ _______ _____ _____    ______ ____
ROOT
ATOM      1  C   UNL     1       0.800   1.775  23.933  0.00  0.00    +0.090 C 
ATOM      2  N   UNL     1       0.556   0.994  23.823  0.00  0.00    -0.271 NA
ATOM      3  C   UNL     1      -0.199   0.813  24.100  0.00  0.00    +0.083 C 
ATOM      4  C   UNL     1      -0.693   1.363  24.467  0.00  0.00    +0.035 C 
ATOM      5  C   UNL     1      -1.397   0.981  24.666  0.00  0.00    +0.074 C 
ATOM      6  N   UNL     1      -1.337   0.194  24.423  0.00  0.00    -0.262 NA
ATOM     15  C   UNL     1      -0.597   0.090  24.073  0.00  0.00    +0.151 C 
ATOM     16  C   UNL     1      -0.338  -0.628  23.762  0.00  0.00    +0.257 C 
ATOM     17  O   UNL     1      -0.871  -1.256  23.819  0.00  0.00    -0.272 OA
ATOM     18  N   UNL     1       0.383  -0.803  23.401  0.00  0.00    -0.203 NA
ATOM     19  C   UNL     1       1.023  -0.300  23.262  0.00  0.00    +0.131 C 
ATOM     20  C   UNL     1       1.100   0.499  23.450  0.00  0.00    +0.080 C 
ENDROOT
BRANCH   6   7
ATOM      7  C   UNL     1      -1.917  -0.387  24.513  0.00  0.00    +0.100 C 
BRANCH   7   8
ATOM      8  C   UNL     1      -2.700  -0.169  24.654  0.00  0.00    -0.006 A 
ATOM      9  C   UNL     1      -3.155   0.151  24.045  0.00  0.00    -0.003 A 
ATOM     10  C   UNL     1      -3.938   0.368  24.187  0.00  0.00    -0.005 A 
ATOM     11  C   UNL     1      -4.266   0.266  24.936  0.00  0.00    -0.022 A 
ATOM     12  C   UNL     1      -5.049   0.483  25.078  0.00  0.00    +0.031 C 
ATOM     13  C   UNL     1      -3.810  -0.055  25.545  0.00  0.00    -0.005 A 
ATOM     14  C   UNL     1      -3.028  -0.272  25.404  0.00  0.00    -0.003 A 
ENDBRANCH   7   8
ENDBRANCH   6   7
BRANCH  20  21
ATOM     21  C   UNL     1       1.816   0.849  23.236  0.00  0.00    +0.027 C 
BRANCH  21  22
ATOM     22  C   UNL     1       2.489   0.382  23.135  0.00  0.00    +0.087 C 
BRANCH  22  23
ATOM     23  C   UNL     1       3.214   0.736  22.963  0.00  0.00    +0.226 C 
ATOM     24  O   UNL     1       3.237   1.464  22.574  0.00  0.00    -0.275 OA
ATOM     25  N   UNL     1       3.917   0.362  23.179  0.00  0.00    -0.279 N 
ATOM     26  C   UNL     1       4.642   0.716  23.007  0.00  0.00    +0.096 C 
ATOM     27  C   UNL     1       5.345   0.342  23.223  0.00  0.00    +0.054 C 
ATOM     28  C   UNL     1       5.323  -0.386  23.612  0.00  0.00    +0.155 C 
ATOM     29  O   UNL     1       6.026  -0.759  23.828  0.00  0.00    -0.223 OA
ATOM     30  C   UNL     1       4.598  -0.739  23.784  0.00  0.00    +0.054 C 
ATOM     31  C   UNL     1       3.895  -0.365  23.567  0.00  0.00    +0.096 C 
ENDBRANCH  22  23
ENDBRANCH  21  22
ENDBRANCH  20  21
TORSDOF 5
ENDMDL
MODEL 4
REMARK VINA RESULT:      -7.7      3.627      4.982
REMARK  Name = 
REMARK  5 active torsions:
REMARK  status: ('A' for Active; 'I' for Inactive)
REMARK    1  A    between atoms: N_6  and  C_7
REMARK    2  A    between atoms: C_7  and  C_8
REMARK    3  A    between atoms: C_20  and  C_21
REMARK    4  A    between atoms: C_21  and  C_22
REMARK    5  A    between atoms: C_22  and  C_23
REMARK                            x       y       z     vdW  Elec       q    Type
REMARK                         _______ _______ _______ _____ _____    ______ ____
ROOT
ATOM      1  C   UNL     1      -3.110   2.183  23.399  0.00  0.00    +0.090 C 
ATOM      2  N   UNL     1      -3.602   1.880  23.988  0.00  0.00    -0.271 NA
ATOM      3  C   UNL     1      -3.711   1.063  23.978  0.00  0.00    +0.083 C 
ATOM      4  C   UNL     1      -3.359   0.564  23.423  0.00  0.00    +0.035 C 
ATOM      5  C   UNL     1      -3.595  -0.209  23.589  0.00  0.00    +0.074 C 
ATOM      6  N   UNL     1      -4.094  -0.188  24.247  0.00  0.00    -0.262 NA
ATOM     15  C   UNL     1      -4.165   0.598  24.487  0.00  0.00    +0.151 C 
ATOM     16  C   UNL     1      -4.622   0.837  25.131  0.00  0.00    +0.257 C 
ATOM     17  O   UNL     1      -5.015   0.233  25.534  0.00  0.00    -0.272 OA
ATOM     18  N   UNL     1      -4.738   1.598  25.426  0.00  0.00    -0.203 NA
ATOM     19  C   UNL     1      -4.425   2.310  25.148  0.00  0.00    +0.131 C 
ATOM     20  C   UNL     1      -3.920   2.436  24.509  0.00  0.00    +0.080 C 
ENDROOT
BRANCH   6   7
ATOM      7  C   UNL     1      -4.457  -0.839  24.602  0.00  0.00    +0.100 C 
BRANCH   7   8
ATOM      8  C   UNL     1      -4.123  -1.589  24.525  0.00  0.00    -0.006 A 
ATOM      9  C   UNL     1      -3.566  -1.851  25.074  0.00  0.00    -0.003 A 
ATOM     10  C   UNL     1      -3.233  -2.601  24.997  0.00  0.00    -0.005 A 
ATOM     11  C   UNL     1      -3.455  -3.090  24.371  0.00  0.00    -0.022 A 
ATOM     12  C   UNL     1      -3.122  -3.840  24.294  0.00  0.00    +0.031 C 
ATOM     13  C   UNL     1      -4.013  -2.828  23.822  0.00  0.00    -0.005 A 
ATOM     14  C   UNL     1      -4.346  -2.078  23.899  0.00  0.00    -0.003 A 
ENDBRANCH   7   8
ENDBRANCH   6   7
BRANCH  20  21
ATOM     21  C   UNL     1      -3.704   3.220  24.372  0.00  0.00    +0.027 C 
BRANCH  21  22
ATOM     22  C   UNL     1      -3.204   3.608  24.902  0.00  0.00    +0.087 C 
BRANCH  22  23
ATOM     23  C   UNL     1      -3.023   4.405  24.789  0.00  0.00    +0.226 C 
ATOM     24  O   UNL     1      -3.622   4.942  24.603  0.00  0.00    -0.275 OA
ATOM     25  N   UNL     1      -2.243   4.665  24.862  0.00  0.00    -0.279 N 
ATOM     26  C   UNL     1      -2.062   5.462  24.749  0.00  0.00    +0.096 C 
ATOM     27  C   UNL     1      -1.282   5.722  24.822  0.00  0.00    +0.054 C 
ATOM     28  C   UNL     1      -0.684   5.185  25.008  0.00  0.00    +0.155 C 
ATOM     29  O   UNL     1       0.095   5.445  25.081  0.00  0.00    -0.223 OA
ATOM     30  C   UNL     1      -0.866   4.388  25.121  0.00  0.00    +0.054 C 
ATOM     31  C   UNL     1      -1.646   4.129  25.047  0.00  0.00    +0.096 C 
ENDBRANCH  22  23
ENDBRANCH  21  22
ENDBRANCH  20  21
TORSDOF 5
ENDMDL
MODEL 5
REMARK VINA RESULT:      -7.7      1.375      6.605
REMARK  Name = 
REMARK  5 active torsions:
REMARK  status: ('A' for Active; 'I' for Inactive)
REMARK    1  A    between atoms: N_6  and  C_7
REMARK    2  A    between atoms: C_7  and  C_8
REMARK    3  A    between atoms: C_20  and  C_21
REMARK    4  A    between atoms: C_21  and  C_22
REMARK    5  A    between atoms: C_22  and  C_23
REMARK                            x       y       z     vdW  Elec       q    Type
REMARK                         _______ _______ _______ _____ _____    ______ ____
ROOT
ATOM      1  C   UNL     1      -0.936   2.973  24.647  0.00  0.00    +0.090 C 
ATOM      2  N   UNL     1      -0.968   2.154  24.552  0.00  0.00    -0.271 NA
ATOM      3  C   UNL     1      -0.294   1.804  24.232  0.00  0.00    +0.083 C 
ATOM      4  C   UNL     1       0.380   2.229  24.014  0.00  0.00    +0.035 C 
ATOM      5  C   UNL     1       0.934   1.695  23.718  0.00  0.00    +0.074 C 
ATOM      6  N   UNL     1       0.604   0.939  23.753  0.00  0.00    -0.262 NA
ATOM     15  C   UNL     1      -0.155   1.007  24.070  0.00  0.00    +0.151 C 
ATOM     16  C   UNL     1      -0.657   0.364  24.189  0.00  0.00    +0.257 C 
ATOM     17  O   UNL     1      -0.355  -0.372  23.968  0.00  0.00    -0.272 OA
ATOM     18  N   UNL     1      -1.422   0.357  24.499  0.00  0.00    -0.203 NA
ATOM     19  C   UNL     1      -1.873   0.995  24.766  0.00  0.00    +0.131 C 
ATOM     20  C   UNL     1      -1.671   1.794  24.790  0.00  0.00    +0.080 C 
ENDROOT
BRANCH   6   7
ATOM      7  C   UNL     1       0.968   0.239  23.512  0.00  0.00    +0.100 C 
BRANCH   7   8
ATOM      8  C   UNL     1       1.689   0.266  23.113  0.00  0.00    -0.006 A 
ATOM      9  C   UNL     1       2.354   0.587  23.481  0.00  0.00    -0.003 A 
ATOM     10  C   UNL     1       3.074   0.613  23.081  0.00  0.00    -0.005 A 
ATOM     11  C   UNL     1       3.132   0.320  22.313  0.00  0.00    -0.022 A 
ATOM     12  C   UNL     1       3.852   0.346  21.913  0.00  0.00    +0.031 C 
ATOM     13  C   UNL     1       2.466  -0.002  21.944  0.00  0.00    -0.005 A 
ATOM     14  C   UNL     1       1.746  -0.028  22.344  0.00  0.00    -0.003 A 
ENDBRANCH   7   8
ENDBRANCH   6   7
BRANCH  20  21
ATOM     21  C   UNL     1      -2.249   2.300  25.092  0.00  0.00    +0.027 C 
BRANCH  21  22
ATOM     22  C   UNL     1      -3.048   2.105  25.016  0.00  0.00    +0.087 C 
BRANCH  22  23
ATOM     23  C   UNL     1      -3.626   2.617  25.306  0.00  0.00    +0.226 C 
ATOM     24  O   UNL     1      -3.406   3.326  25.667  0.00  0.00    -0.275 OA
ATOM     25  N   UNL     1      -4.424   2.420  25.235  0.00  0.00    -0.279 N 
ATOM     26  C   UNL     1      -5.003   2.932  25.526  0.00  0.00    +0.096 C 
ATOM     27  C   UNL     1      -5.801   2.734  25.455  0.00  0.00    +0.054 C 
ATOM     28  C   UNL     1      -6.020   2.025  25.094  0.00  0.00    +0.155 C 
ATOM     29  O   UNL     1      -6.818   1.828  25.023  0.00  0.00    -0.223 OA
ATOM     30  C   UNL     1      -5.441   1.514  24.804  0.00  0.00    +0.054 C 
ATOM     31  C   UNL     1      -4.643   1.712  24.875  0.00  0.00    +0.096 C 
ENDBRANCH  22  23
ENDBRANCH  21  22
ENDBRANCH  20  21
TORSDOF 5
ENDMDL
MODEL 6
REMARK VINA RESULT:      -7.5      2.995      4.557
REMARK  Name = 
REMARK  5 active torsions:
REMARK  status: ('A' for Active; 'I' for Inactive)
REMARK    1  A    between atoms: N_6  and  C_7
REMARK    2  A    between atoms: C_7  and  C_8
REMARK    3  A    between atoms: C_20  and  C_21
REMARK    4  A    between atoms: C_21  and  C_22
REMARK    5  A    between atoms: C_22  and  C_23
REMARK                            x       y       z     vdW  Elec       q    Type
REMARK                         _______ _______ _______ _____ _____    ______ ____
ROOT
ATOM      1  C   UNL     1      -0.150   0.668  23.816  0.00  0.00    +0.090 C 
ATOM      2  N   UNL     1      -0.606   0.481  24.478  0.00  0.00    -0.271 NA
ATOM      3  C   UNL     1      -0.986  -0.251  24.455  0.00  0.00    +0.083 C 
ATOM      4  C   UNL     1      -0.925  -0.775  23.820  0.00  0.00    +0.035 C 
ATOM      5  C   UNL     1      -1.377  -1.442  23.996  0.00  0.00    +0.074 C 
ATOM      6  N   UNL     1      -1.717  -1.331  24.739  0.00  0.00    -0.262 NA
ATOM     15  C   UNL     1      -1.475  -0.595  25.023  0.00  0.00    +0.151 C 
ATOM     16  C   UNL     1      -1.705  -0.291  25.754  0.00  0.00    +0.257 C 
ATOM     17  O   UNL     1      -2.204  -0.774  26.201  0.00  0.00    -0.272 OA
ATOM     18  N   UNL     1      -1.504   0.431  26.099  0.00  0.00    -0.203 NA
ATOM     19  C   UNL     1      -1.021   1.028  25.796  0.00  0.00    +0.131 C 
ATOM     20  C   UNL     1      -0.622   1.050  25.074  0.00  0.00    +0.080 C 
ENDROOT
BRANCH   6   7
ATOM      7  C   UNL     1      -2.213  -1.863  25.131  0.00  0.00    +0.100 C 
BRANCH   7   8
ATOM      8  C   UNL     1      -2.850  -2.202  24.732  0.00  0.00    -0.006 A 
ATOM      9  C   UNL     1      -3.499  -1.740  24.522  0.00  0.00    -0.003 A 
ATOM     10  C   UNL     1      -4.135  -2.080  24.124  0.00  0.00    -0.005 A 
ATOM     11  C   UNL     1      -4.124  -2.883  23.935  0.00  0.00    -0.022 A 
ATOM     12  C   UNL     1      -4.760  -3.224  23.536  0.00  0.00    +0.031 C 
ATOM     13  C   UNL     1      -3.473  -3.345  24.145  0.00  0.00    -0.005 A 
ATOM     14  C   UNL     1      -2.837  -3.006  24.544  0.00  0.00    -0.003 A 
ENDBRANCH   7   8
ENDBRANCH   6   7
BRANCH  20  21
ATOM     21  C   UNL     1      -0.179   1.732  24.931  0.00  0.00    +0.027 C 
BRANCH  21  22
ATOM     22  C   UNL     1      -0.449   2.463  25.204  0.00  0.00    +0.087 C 
BRANCH  22  23
ATOM     23  C   UNL     1      -0.180   3.159  24.852  0.00  0.00    +0.226 C 
ATOM     24  O   UNL     1       0.520   3.156  24.414  0.00  0.00    -0.275 OA
ATOM     25  N   UNL     1      -0.610   3.857  24.939  0.00  0.00    -0.279 N 
ATOM     26  C   UNL     1      -0.340   4.554  24.587  0.00  0.00    +0.096 C 
ATOM     27  C   UNL     1      -0.771   5.252  24.674  0.00  0.00    +0.054 C 
ATOM     28  C   UNL     1      -1.470   5.255  25.112  0.00  0.00    +0.155 C 
ATOM     29  O   UNL     1      -1.900   5.954  25.199  0.00  0.00    -0.223 OA
ATOM     30  C   UNL     1      -1.739   4.559  25.464  0.00  0.00    +0.054 C 
ATOM     31  C   UNL     1      -1.309   3.860  25.377  0.00  0.00    +0.096 C 
ENDBRANCH  22  23
ENDBRANCH  21  22
ENDBRANCH  20  21
TORSDOF 5
ENDMDL
MODEL 7
REMARK VINA RESULT:      -7.5     17.720     19.068
REMARK  Name = 
REMARK  5 active torsions:
REMARK  status: ('A' for Active; 'I' for Inactive)
REMARK    1  A    between atoms: N_6  and  C_7
REMARK    2  A    between atoms: C_7  and  C_8
REMARK    3  A    between atoms: C_20  and  C_21
REMARK    4  A    between atoms: C_21  and  C_22
REMARK    5  A    between atoms: C_22  and  C_23
REMARK                            x       y       z     vdW  Elec       q    Type
REMARK                         _______ _______ _______ _____ _____    ______ ____
ROOT
ATOM      1  C   UNL     1      -7.583  -8.906  10.637  0.00  0.00    +0.090 C 
ATOM      2  N   UNL     1      -7.092  -8.940   9.974  0.00  0.00    -0.271 NA
ATOM      3  C   UNL     1      -6.323  -9.204  10.112  0.00  0.00    +0.083 C 
ATOM      4  C   UNL     1      -6.044  -9.424  10.857  0.00  0.00    +0.035 C 
ATOM      5  C   UNL     1      -5.256  -9.655  10.776  0.00  0.00    +0.074 C 
ATOM      6  N   UNL     1      -5.048  -9.578   9.981  0.00  0.00    -0.262 NA
ATOM     15  C   UNL     1      -5.707  -9.299   9.571  0.00  0.00    +0.151 C 
ATOM     16  C   UNL     1      -5.709  -9.153   8.759  0.00  0.00    +0.257 C 
ATOM     17  O   UNL     1      -4.999  -9.304   8.367  0.00  0.00    -0.272 OA
ATOM     18  N   UNL     1      -6.327  -8.876   8.287  0.00  0.00    -0.203 NA
ATOM     19  C   UNL     1      -7.096  -8.677   8.512  0.00  0.00    +0.131 C 
ATOM     20  C   UNL     1      -7.436  -8.705   9.262  0.00  0.00    +0.080 C 
ENDROOT
BRANCH   6   7
ATOM      7  C   UNL     1      -4.310  -9.749   9.654  0.00  0.00    +0.100 C 
BRANCH   7   8
ATOM      8  C   UNL     1      -3.651  -9.833  10.144  0.00  0.00    -0.006 A 
ATOM      9  C   UNL     1      -3.138  -9.198  10.259  0.00  0.00    -0.003 A 
ATOM     10  C   UNL     1      -2.480  -9.283  10.748  0.00  0.00    -0.005 A 
ATOM     11  C   UNL     1      -2.335 -10.002  11.125  0.00  0.00    -0.022 A 
ATOM     12  C   UNL     1      -1.678 -10.087  11.614  0.00  0.00    +0.031 C 
ATOM     13  C   UNL     1      -2.849 -10.638  11.010  0.00  0.00    -0.005 A 
ATOM     14  C   UNL     1      -3.507 -10.553  10.520  0.00  0.00    -0.003 A 
ENDBRANCH   7   8
ENDBRANCH   6   7
BRANCH  20  21
ATOM     21  C   UNL     1      -8.225  -8.468   9.306  0.00  0.00    +0.027 C 
BRANCH  21  22
ATOM     22  C   UNL     1      -8.484  -7.816   8.871  0.00  0.00    +0.087 C 
BRANCH  22  23
ATOM     23  C   UNL     1      -9.283  -7.610   8.874  0.00  0.00    +0.226 C 
ATOM     24  O   UNL     1      -9.858  -8.187   9.001  0.00  0.00    -0.275 OA
ATOM     25  N   UNL     1      -9.506  -6.825   8.750  0.00  0.00    -0.279 N 
ATOM     26  C   UNL     1     -10.305  -6.618   8.753  0.00  0.00    +0.096 C 
ATOM     27  C   UNL     1     -10.528  -5.833   8.629  0.00  0.00    +0.054 C 
ATOM     28  C   UNL     1      -9.952  -5.256   8.502  0.00  0.00    +0.155 C 
ATOM     29  O   UNL     1     -10.176  -4.471   8.378  0.00  0.00    -0.223 OA
ATOM     30  C   UNL     1      -9.154  -5.463   8.498  0.00  0.00    +0.054 C 
ATOM     31  C   UNL     1      -8.931  -6.248   8.623  0.00  0.00    +0.096 C 
ENDBRANCH  22  23
ENDBRANCH  21  22
ENDBRANCH  20  21
TORSDOF 5
ENDMDL
