MODEL 1
REMARK VINA RESULT:     -11.4      0.000      0.000
REMARK  Name = 
REMARK  8 active torsions:
REMARK  status: ('A' for Active; 'I' for Inactive)
REMARK    1  A    between atoms: N_2  and  C_4
REMARK    2  A    between atoms: C_8  and  O_9
REMARK    3  A    between atoms: O_9  and  C_10
REMARK    4  A    between atoms: N_14  and  C_15
REMARK    5  A    between atoms: C_19  and  N_23
REMARK    6  A    between atoms: N_23  and  S_24
REMARK    7  A    between atoms: S_24  and  C_27
REMARK    8  A    between atoms: C_30  and  N_31
REMARK                            x       y       z     vdW  Elec       q    Type
REMARK                         _______ _______ _______ _____ _____    ______ ____
ROOT
ATOM     15  C   UNL     1      -0.747   2.844  25.500  0.00  0.00    +0.170 C 
ATOM     16  C   UNL     1      -0.441   2.567  26.215  0.00  0.00    +0.169 C 
ATOM     17  O   UNL     1      -0.290   1.761  26.132  0.00  0.00    -0.350 OA
ATOM     18  C   UNL     1      -0.503   1.538  25.367  0.00  0.00    +0.164 C 
ATOM     19  C   UNL     1      -0.542   0.903  24.842  0.00  0.00    +0.157 C 
ATOM     20  C   UNL     1      -0.847   1.179  24.128  0.00  0.00    +0.164 C 
ATOM     21  O   UNL     1      -0.998   1.986  24.211  0.00  0.00    -0.350 OA
ATOM     22  C   UNL     1      -0.785   2.208  24.977  0.00  0.00    +0.169 C 
ENDROOT
BRANCH  15  14
ATOM     10  C   UNL     1      -1.679   3.978  25.576  0.00  0.00    +0.343 A 
ATOM     11  N   UNL     1      -1.678   4.754  25.295  0.00  0.00    -0.071 NA
ATOM     12  N   UNL     1      -0.973   4.876  24.883  0.00  0.00    -0.020 NA
ATOM     13  N   UNL     1      -0.538   4.175  24.910  0.00  0.00    -0.040 NA
ATOM     14  N   UNL     1      -0.975   3.620  25.338  0.00  0.00    -0.180 N 
BRANCH  10   9
ATOM      9  O   UNL     1      -2.279   3.623  26.017  0.00  0.00    -0.421 OA
BRANCH   9   8
ATOM      4  C   UNL     1      -4.305   3.360  25.250  0.00  0.00    +0.051 A 
ATOM      5  C   UNL     1      -4.650   4.077  25.469  0.00  0.00    +0.015 A 
ATOM      6  C   UNL     1      -4.204   4.643  25.871  0.00  0.00    +0.004 A 
ATOM      7  C   UNL     1      -3.414   4.491  26.053  0.00  0.00    +0.038 A 
ATOM      8  C   UNL     1      -3.069   3.775  25.834  0.00  0.00    +0.150 A 
ATOM     37  C   UNL     1      -3.515   3.209  25.432  0.00  0.00    +0.052 A 
BRANCH   4   2
ATOM      1  C   UNL     1      -4.530   2.559  24.087  0.00  0.00    +0.112 C 
ATOM      2  N   UNL     1      -4.751   2.793  24.847  0.00  0.00    -0.304 N 
ATOM      3  C   UNL     1      -5.416   2.462  25.205  0.00  0.00    +0.112 C 
ENDBRANCH   4   2
ENDBRANCH   9   8
ENDBRANCH  10   9
ENDBRANCH  15  14
BRANCH  19  23
ATOM     23  N   UNL     1      -0.314   0.127  25.004  0.00  0.00    -0.074 NA
BRANCH  23  24
ATOM     24  S   UNL     1      -0.858  -0.489  24.925  0.00  0.00    +0.077 S 
ATOM     25  O   UNL     1      -0.981  -0.483  25.740  0.00  0.00    -0.152 OA
ATOM     26  O   UNL     1      -0.734  -0.493  24.109  0.00  0.00    -0.152 OA
BRANCH  24  27
ATOM     27  C   UNL     1      -1.402  -1.104  24.846  0.00  0.00    +0.124 A 
ATOM     28  C   UNL     1      -1.249  -1.725  24.325  0.00  0.00    +0.021 A 
ATOM     29  C   UNL     1      -1.793  -2.340  24.247  0.00  0.00    +0.018 A 
ATOM     30  C   UNL     1      -2.490  -2.334  24.688  0.00  0.00    +0.073 A 
ATOM     35  C   UNL     1      -2.643  -1.713  25.209  0.00  0.00    +0.018 A 
ATOM     36  C   UNL     1      -2.099  -1.097  25.288  0.00  0.00    +0.021 A 
BRANCH  30  31
ATOM     31  N   UNL     1      -3.034  -2.950  24.609  0.00  0.00    -0.179 NA
ATOM     32  C   UNL     1      -3.754  -2.817  24.230  0.00  0.00    +0.246 C 
ATOM     33  C   UNL     1      -3.932  -2.070  23.930  0.00  0.00    +0.097 C 
ATOM     34  O   UNL     1      -4.298  -3.433  24.151  0.00  0.00    -0.273 OA
ENDBRANCH  30  31
ENDBRANCH  24  27
ENDBRANCH  23  24
ENDBRANCH  19  23
TORSDOF 8
ENDMDL
MODEL 2
REMARK VINA RESULT:     -10.1      1.810      6.035
REMARK  Name = 
REMARK  8 active torsions:
REMARK  status: ('A' for Active; 'I' for Inactive)
REMARK    1  A    between atoms: N_2  and  C_4
REMARK    2  A    between atoms: C_8  and  O_9
REMARK    3  A    between atoms: O_9  and  C_10
REMARK    4  A    between atoms: N_14  and  C_15
REMARK    5  A    between atoms: C_19  and  N_23
REMARK    6  A    between atoms: N_23  and  S_24
REMARK    7  A    between atoms: S_24  and  C_27
REMARK    8  A    between atoms: C_30  and  N_31
REMARK                            x       y       z     vdW  Elec       q    Type
REMARK                         _______ _______ _______ _____ _____    ______ ____
ROOT
ATOM     15  C   UNL     1      -4.172  -0.538  24.779  0.00  0.00    +0.170 C 
ATOM     16  C   UNL     1      -4.495  -0.411  25.527  0.00  0.00    +0.169 C 
ATOM     17  O   UNL     1      -4.634   0.398  25.610  0.00  0.00    -0.350 OA
ATOM     18  C   UNL     1      -4.397   0.771  24.915  0.00  0.00    +0.164 C 
ATOM     19  C   UNL     1      -4.336   1.501  24.535  0.00  0.00    +0.157 C 
ATOM     20  C   UNL     1      -4.012   1.374  23.787  0.00  0.00    +0.164 C 
ATOM     21  O   UNL     1      -3.873   0.565  23.704  0.00  0.00    -0.350 OA
ATOM     22  C   UNL     1      -4.111   0.192  24.401  0.00  0.00    +0.169 C 
ENDROOT
BRANCH  15  14
ATOM     10  C   UNL     1      -3.264  -1.687  24.655  0.00  0.00    +0.343 A 
ATOM     11  N   UNL     1      -3.262  -2.385  24.213  0.00  0.00    -0.071 NA
ATOM     12  N   UNL     1      -3.946  -2.395  23.751  0.00  0.00    -0.020 NA
ATOM     13  N   UNL     1      -4.369  -1.705  23.907  0.00  0.00    -0.040 NA
ATOM     14  N   UNL     1      -3.948  -1.267  24.465  0.00  0.00    -0.180 N 
BRANCH  10   9
ATOM      9  O   UNL     1      -2.683  -1.452  25.191  0.00  0.00    -0.421 OA
BRANCH   9   8
ATOM      4  C   UNL     1      -0.653  -1.016  24.519  0.00  0.00    +0.051 A 
ATOM      5  C   UNL     1      -0.290  -1.748  24.631  0.00  0.00    +0.015 A 
ATOM      6  C   UNL     1      -0.725  -2.382  24.931  0.00  0.00    +0.004 A 
ATOM      7  C   UNL     1      -1.523  -2.283  25.117  0.00  0.00    +0.038 A 
ATOM      8  C   UNL     1      -1.885  -1.551  25.005  0.00  0.00    +0.150 A 
ATOM     37  C   UNL     1      -1.450  -0.917  24.705  0.00  0.00    +0.052 A 
BRANCH   4   2
ATOM      1  C   UNL     1      -0.284   0.364  24.566  0.00  0.00    +0.112 C 
ATOM      2  N   UNL     1      -0.218  -0.381  24.219  0.00  0.00    -0.304 N 
ATOM      3  C   UNL     1       0.282  -0.493  23.573  0.00  0.00    +0.112 C 
ENDBRANCH   4   2
ENDBRANCH   9   8
ENDBRANCH  10   9
ENDBRANCH  15  14
BRANCH  19  23
ATOM     23  N   UNL     1      -4.560   2.230  24.849  0.00  0.00    -0.074 NA
BRANCH  23  24
ATOM     24  S   UNL     1      -4.004   2.836  24.924  0.00  0.00    +0.077 S 
ATOM     25  O   UNL     1      -3.946   2.681  25.732  0.00  0.00    -0.152 OA
ATOM     26  O   UNL     1      -4.062   2.989  24.115  0.00  0.00    -0.152 OA
BRANCH  24  27
ATOM     27  C   UNL     1      -3.448   3.440  25.000  0.00  0.00    +0.124 A 
ATOM     28  C   UNL     1      -2.991   3.497  25.685  0.00  0.00    +0.021 A 
ATOM     29  C   UNL     1      -2.435   4.101  25.761  0.00  0.00    +0.018 A 
ATOM     30  C   UNL     1      -2.336   4.650  25.153  0.00  0.00    +0.073 A 
ATOM     35  C   UNL     1      -2.792   4.593  24.469  0.00  0.00    +0.018 A 
ATOM     36  C   UNL     1      -3.349   3.989  24.392  0.00  0.00    +0.021 A 
BRANCH  30  31
ATOM     31  N   UNL     1      -1.780   5.254  25.230  0.00  0.00    -0.179 NA
ATOM     32  C   UNL     1      -1.004   5.135  24.979  0.00  0.00    +0.246 C 
ATOM     33  C   UNL     1      -0.782   4.411  24.650  0.00  0.00    +0.097 C 
ATOM     34  O   UNL     1      -0.447   5.740  25.056  0.00  0.00    -0.273 OA
ENDBRANCH  30  31
ENDBRANCH  24  27
ENDBRANCH  23  24
ENDBRANCH  19  23
TORSDOF 8
ENDMDL
MODEL 3
REMARK VINA RESULT:     -10.0      1.466      5.029
REMARK  Name = 
REMARK  8 active torsions:
REMARK  status: ('A' for Active; 'I' for Inactive)
REMARK    1  A    between atoms: N_2  and  C_4
REMARK    2  A    between atoms: C_8  and  O_9
REMARK    3  A    between atoms: O_9  and  C_10
REMARK    4  A    between atoms: N_14  and  C_15
REMARK    5  A    between atoms: C_19  and  N_23
REMARK    6  A    between atoms: N_23  and  S_24
REMARK    7  A    between atoms: S_24  and  C_27
REMARK    8  A    between atoms: C_30  and  N_31
REMARK                            x       y       z     vdW  Elec       q    Type
REMARK                         _______ _______ _______ _____ _____    ______ ____
ROOT
ATOM     15  C   UNL     1      -0.208   0.986  24.300  0.00  0.00    +0.170 C 
ATOM     16  C   UNL     1       0.061   1.302  25.012  0.00  0.00    +0.169 C 
ATOM     17  O   UNL     1      -0.312   2.029  25.124  0.00  0.00    -0.350 OA
ATOM     18  C   UNL     1      -0.811   2.162  24.482  0.00  0.00    +0.164 C 
ATOM     19  C   UNL     1      -1.350   2.693  24.153  0.00  0.00    +0.157 C 
ATOM     20  C   UNL     1      -1.619   2.376  23.440  0.00  0.00    +0.164 C 
ATOM     21  O   UNL     1      -1.246   1.649  23.328  0.00  0.00    -0.350 OA
ATOM     22  C   UNL     1      -0.746   1.517  23.972  0.00  0.00    +0.169 C 
ENDROOT
BRANCH  15  14
ATOM     10  C   UNL     1      -0.232  -0.482  24.216  0.00  0.00    +0.343 A 
ATOM     11  N   UNL     1       0.136  -1.046  23.738  0.00  0.00    -0.071 NA
ATOM     12  N   UNL     1       0.618  -0.648  23.199  0.00  0.00    -0.020 NA
ATOM     13  N   UNL     1       0.548   0.162  23.344  0.00  0.00    -0.040 NA
ATOM     14  N   UNL     1       0.023   0.264  23.972  0.00  0.00    -0.180 N 
BRANCH  10   9
ATOM      9  O   UNL     1      -0.761  -0.637  24.830  0.00  0.00    -0.421 OA
BRANCH   9   8
ATOM      4  C   UNL     1      -2.630  -1.742  24.614  0.00  0.00    +0.051 A 
ATOM      5  C   UNL     1      -2.357  -2.520  24.639  0.00  0.00    +0.015 A 
ATOM      6  C   UNL     1      -1.550  -2.670  24.727  0.00  0.00    +0.004 A 
ATOM      7  C   UNL     1      -1.019  -2.042  24.791  0.00  0.00    +0.038 A 
ATOM      8  C   UNL     1      -1.293  -1.265  24.766  0.00  0.00    +0.150 A 
ATOM     37  C   UNL     1      -2.099  -1.115  24.678  0.00  0.00    +0.052 A 
BRANCH   4   2
ATOM      1  C   UNL     1      -3.795  -0.989  24.963  0.00  0.00    +0.112 C 
ATOM      2  N   UNL     1      -3.438  -1.591  24.526  0.00  0.00    -0.304 N 
ATOM      3  C   UNL     1      -3.886  -2.042  24.001  0.00  0.00    +0.112 C 
ENDBRANCH   4   2
ENDBRANCH   9   8
ENDBRANCH  10   9
ENDBRANCH  15  14
BRANCH  19  23
ATOM     23  N   UNL     1      -1.580   3.415  24.480  0.00  0.00    -0.074 NA
BRANCH  23  24
ATOM     24  S   UNL     1      -2.359   3.525  24.732  0.00  0.00    +0.077 S 
ATOM     25  O   UNL     1      -2.104   3.524  25.517  0.00  0.00    -0.152 OA
ATOM     26  O   UNL     1      -2.613   3.525  23.947  0.00  0.00    -0.152 OA
BRANCH  24  27
ATOM     27  C   UNL     1      -3.136   3.634  24.985  0.00  0.00    +0.124 A 
ATOM     28  C   UNL     1      -3.750   3.652  24.433  0.00  0.00    +0.021 A 
ATOM     29  C   UNL     1      -4.528   3.761  24.686  0.00  0.00    +0.018 A 
ATOM     30  C   UNL     1      -4.692   3.854  25.489  0.00  0.00    +0.073 A 
ATOM     35  C   UNL     1      -4.078   3.837  26.040  0.00  0.00    +0.018 A 
ATOM     36  C   UNL     1      -3.300   3.727  25.788  0.00  0.00    +0.021 A 
BRANCH  30  31
ATOM     31  N   UNL     1      -5.470   3.964  25.741  0.00  0.00    -0.179 NA
ATOM     32  C   UNL     1      -5.968   3.314  25.835  0.00  0.00    +0.246 C 
ATOM     33  C   UNL     1      -5.690   2.553  25.679  0.00  0.00    +0.097 C 
ATOM     34  O   UNL     1      -6.747   3.424  26.088  0.00  0.00    -0.273 OA
ENDBRANCH  30  31
ENDBRANCH  24  27
ENDBRANCH  23  24
ENDBRANCH  19  23
TORSDOF 8
ENDMDL
MODEL 4
REMARK VINA RESULT:      -9.6      1.700      3.262
REMARK  Name = 
REMARK  8 active torsions:
REMARK  status: ('A' for Active; 'I' for Inactive)
REMARK    1  A    between atoms: N_2  and  C_4
REMARK    2  A    between atoms: C_8  and  O_9
REMARK    3  A    between atoms: O_9  and  C_10
REMARK    4  A    between atoms: N_14  and  C_15
REMARK    5  A    between atoms: C_19  and  N_23
REMARK    6  A    between atoms: N_23  and  S_24
REMARK    7  A    between atoms: S_24  and  C_27
REMARK    8  A    between atoms: C_30  and  N_31
REMARK                            x       y       z     vdW  Elec       q    Type
REMARK                         _______ _______ _______ _____ _____    ______ ____
ROOT
ATOM     15  C   UNL     1      -4.364   3.252  24.944  0.00  0.00    +0.170 C 
ATOM     16  C   UNL     1      -4.755   3.166  25.665  0.00  0.00    +0.169 C 
ATOM     17  O   UNL     1      -4.953   2.370  25.753  0.00  0.00    -0.350 OA
ATOM     18  C   UNL     1      -4.684   1.965  25.088  0.00  0.00    +0.164 C 
ATOM     19  C   UNL     1      -4.640   1.222  24.730  0.00  0.00    +0.157 C 
ATOM     20  C   UNL     1      -4.248   1.308  24.010  0.00  0.00    +0.164 C 
ATOM     21  O   UNL     1      -4.051   2.104  23.921  0.00  0.00    -0.350 OA
ATOM     22  C   UNL     1      -4.320   2.510  24.588  0.00  0.00    +0.169 C 
ENDROOT
BRANCH  15  14
ATOM     10  C   UNL     1      -3.372   4.334  24.866  0.00  0.00    +0.343 A 
ATOM     11  N   UNL     1      -3.290   5.019  24.413  0.00  0.00    -0.071 NA
ATOM     12  N   UNL     1      -3.936   5.066  23.901  0.00  0.00    -0.020 NA
ATOM     13  N   UNL     1      -4.416   4.409  24.038  0.00  0.00    -0.040 NA
ATOM     14  N   UNL     1      -4.068   3.957  24.634  0.00  0.00    -0.180 N 
BRANCH  10   9
ATOM      9  O   UNL     1      -2.849   4.073  25.448  0.00  0.00    -0.421 OA
BRANCH   9   8
ATOM      4  C   UNL     1      -0.742   3.553  25.218  0.00  0.00    +0.051 A 
ATOM      5  C   UNL     1      -0.407   4.299  25.110  0.00  0.00    +0.015 A 
ATOM      6  C   UNL     1      -0.887   4.971  25.114  0.00  0.00    +0.004 A 
ATOM      7  C   UNL     1      -1.701   4.894  25.227  0.00  0.00    +0.038 A 
ATOM      8  C   UNL     1      -2.035   4.149  25.335  0.00  0.00    +0.150 A 
ATOM     37  C   UNL     1      -1.555   3.477  25.330  0.00  0.00    +0.052 A 
BRANCH   4   2
ATOM      1  C   UNL     1      -0.101   2.494  24.502  0.00  0.00    +0.112 C 
ATOM      2  N   UNL     1      -0.262   2.881  25.213  0.00  0.00    -0.304 N 
ATOM      3  C   UNL     1       0.057   2.597  25.919  0.00  0.00    +0.112 C 
ENDBRANCH   4   2
ENDBRANCH   9   8
ENDBRANCH  10   9
ENDBRANCH  15  14
BRANCH  19  23
ATOM     23  N   UNL     1      -4.936   0.517  25.040  0.00  0.00    -0.074 NA
BRANCH  23  24
ATOM     24  S   UNL     1      -4.504  -0.182  24.962  0.00  0.00    +0.077 S 
ATOM     25  O   UNL     1      -4.201  -0.079  25.723  0.00  0.00    -0.152 OA
ATOM     26  O   UNL     1      -4.807  -0.284  24.202  0.00  0.00    -0.152 OA
BRANCH  24  27
ATOM     27  C   UNL     1      -4.072  -0.880  24.885  0.00  0.00    +0.124 A 
ATOM     28  C   UNL     1      -3.545  -1.107  25.478  0.00  0.00    +0.021 A 
ATOM     29  C   UNL     1      -3.113  -1.805  25.401  0.00  0.00    +0.018 A 
ATOM     30  C   UNL     1      -3.207  -2.277  24.731  0.00  0.00    +0.073 A 
ATOM     35  C   UNL     1      -3.734  -2.051  24.138  0.00  0.00    +0.018 A 
ATOM     36  C   UNL     1      -4.167  -1.352  24.215  0.00  0.00    +0.021 A 
BRANCH  30  31
ATOM     31  N   UNL     1      -2.775  -2.975  24.654  0.00  0.00    -0.179 NA
ATOM     32  C   UNL     1      -1.986  -2.947  24.419  0.00  0.00    +0.246 C 
ATOM     33  C   UNL     1      -1.626  -2.222  24.259  0.00  0.00    +0.097 C 
ATOM     34  O   UNL     1      -1.553  -3.647  24.342  0.00  0.00    -0.273 OA
ENDBRANCH  30  31
ENDBRANCH  24  27
ENDBRANCH  23  24
ENDBRANCH  19  23
TORSDOF 8
ENDMDL
MODEL 5
REMARK VINA RESULT:      -9.5      3.163      6.246
REMARK  Name = 
REMARK  8 active torsions:
REMARK  status: ('A' for Active; 'I' for Inactive)
REMARK    1  A    between atoms: N_2  and  C_4
REMARK    2  A    between atoms: C_8  and  O_9
REMARK    3  A    between atoms: O_9  and  C_10
REMARK    4  A    between atoms: N_14  and  C_15
REMARK    5  A    between atoms: C_19  and  N_23
REMARK    6  A    between atoms: N_23  and  S_24
REMARK    7  A    between atoms: S_24  and  C_27
REMARK    8  A    between atoms: C_30  and  N_31
REMARK                            x       y       z     vdW  Elec       q    Type
REMARK                         _______ _______ _______ _____ _____    ______ ____
ROOT
ATOM     15  C   UNL     1       0.523  -0.123  23.298  0.00  0.00    +0.170 C 
ATOM     16  C   UNL     1       0.474  -0.662  23.921  0.00  0.00    +0.169 C 
ATOM     17  O   UNL     1      -0.077  -0.374  24.463  0.00  0.00    -0.350 OA
ATOM     18  C   UNL     1      -0.369   0.341  24.176  0.00  0.00    +0.164 C 
ATOM     19  C   UNL     1      -0.889   0.962  24.332  0.00  0.00    +0.157 C 
ATOM     20  C   UNL     1      -0.840   1.501  23.709  0.00  0.00    +0.164 C 
ATOM     21  O   UNL     1      -0.289   1.213  23.167  0.00  0.00    -0.350 OA
ATOM     22  C   UNL     1       0.002   0.497  23.455  0.00  0.00    +0.169 C 
ENDROOT
BRANCH  15  14
ATOM     10  C   UNL     1       1.814  -0.024  22.603  0.00  0.00    +0.343 A 
ATOM     11  N   UNL     1       2.076  -0.170  21.834  0.00  0.00    -0.071 NA
ATOM     12  N   UNL     1       1.431  -0.430  21.389  0.00  0.00    -0.020 NA
ATOM     13  N   UNL     1       0.770  -0.444  21.884  0.00  0.00    -0.040 NA
ATOM     14  N   UNL     1       1.008  -0.193  22.633  0.00  0.00    -0.180 N 
BRANCH  10   9
ATOM      9  O   UNL     1       2.278   0.244  23.230  0.00  0.00    -0.421 OA
BRANCH   9   8
ATOM      4  C   UNL     1       4.444  -0.003  23.337  0.00  0.00    +0.051 A 
ATOM      5  C   UNL     1       4.698   0.645  22.895  0.00  0.00    +0.015 A 
ATOM      6  C   UNL     1       4.145   1.160  22.564  0.00  0.00    +0.004 A 
ATOM      7  C   UNL     1       3.338   1.026  22.676  0.00  0.00    +0.038 A 
ATOM      8  C   UNL     1       3.085   0.378  23.118  0.00  0.00    +0.150 A 
ATOM     37  C   UNL     1       3.638  -0.137  23.449  0.00  0.00    +0.052 A 
BRANCH   4   2
ATOM      1  C   UNL     1       4.783  -1.297  23.843  0.00  0.00    +0.112 C 
ATOM      2  N   UNL     1       4.997  -0.519  23.669  0.00  0.00    -0.304 N 
ATOM      3  C   UNL     1       5.763  -0.257  23.825  0.00  0.00    +0.112 C 
ENDBRANCH   4   2
ENDBRANCH   9   8
ENDBRANCH  10   9
ENDBRANCH  15  14
BRANCH  19  23
ATOM     23  N   UNL     1      -1.374   1.032  24.996  0.00  0.00    -0.074 NA
BRANCH  23  24
ATOM     24  S   UNL     1      -2.005   1.564  24.993  0.00  0.00    +0.077 S 
ATOM     25  O   UNL     1      -1.513   2.147  25.306  0.00  0.00    -0.152 OA
ATOM     26  O   UNL     1      -2.496   0.979  24.680  0.00  0.00    -0.152 OA
BRANCH  24  27
ATOM     27  C   UNL     1      -2.635   2.096  24.990  0.00  0.00    +0.124 A 
ATOM     28  C   UNL     1      -2.561   2.824  25.372  0.00  0.00    +0.021 A 
ATOM     29  C   UNL     1      -3.191   3.357  25.370  0.00  0.00    +0.018 A 
ATOM     30  C   UNL     1      -3.894   3.162  24.985  0.00  0.00    +0.073 A 
ATOM     35  C   UNL     1      -3.968   2.435  24.604  0.00  0.00    +0.018 A 
ATOM     36  C   UNL     1      -3.338   1.902  24.606  0.00  0.00    +0.021 A 
BRANCH  30  31
ATOM     31  N   UNL     1      -4.524   3.696  24.983  0.00  0.00    -0.179 NA
ATOM     32  C   UNL     1      -5.180   3.560  25.463  0.00  0.00    +0.246 C 
ATOM     33  C   UNL     1      -5.209   2.892  25.946  0.00  0.00    +0.097 C 
ATOM     34  O   UNL     1      -5.810   4.095  25.461  0.00  0.00    -0.273 OA
ENDBRANCH  30  31
ENDBRANCH  24  27
ENDBRANCH  23  24
ENDBRANCH  19  23
TORSDOF 8
ENDMDL
MODEL 6
REMARK VINA RESULT:      -9.4      3.313      5.138
REMARK  Name = 
REMARK  8 active torsions:
REMARK  status: ('A' for Active; 'I' for Inactive)
REMARK    1  A    between atoms: N_2  and  C_4
REMARK    2  A    between atoms: C_8  and  O_9
REMARK    3  A    between atoms: O_9  and  C_10
REMARK    4  A    between atoms: N_14  and  C_15
REMARK    5  A    between atoms: C_19  and  N_23
REMARK    6  A    between atoms: N_23  and  S_24
REMARK    7  A    between atoms: S_24  and  C_27
REMARK    8  A    between atoms: C_30  and  N_31
REMARK                            x       y       z     vdW  Elec       q    Type
REMARK                         _______ _______ _______ _____ _____    ______ ____
ROOT
ATOM     15  C   UNL     1      -0.724   0.369  24.687  0.00  0.00    +0.170 C 
ATOM     16  C   UNL     1      -0.674   1.189  24.615  0.00  0.00    +0.169 C 
ATOM     17  O   UNL     1      -0.089   1.361  24.060  0.00  0.00    -0.350 OA
ATOM     18  C   UNL     1       0.223   0.648  23.789  0.00  0.00    +0.164 C 
ATOM     19  C   UNL     1       0.777   0.312  23.278  0.00  0.00    +0.157 C 
ATOM     20  C   UNL     1       0.727  -0.508  23.350  0.00  0.00    +0.164 C 
ATOM     21  O   UNL     1       0.142  -0.679  23.905  0.00  0.00    -0.350 OA
ATOM     22  C   UNL     1      -0.170   0.035  24.176  0.00  0.00    +0.169 C 
ENDROOT
BRANCH  15  14
ATOM     10  C   UNL     1      -2.051  -0.135  25.070  0.00  0.00    +0.343 A 
ATOM     11  N   UNL     1      -2.346  -0.586  25.696  0.00  0.00    -0.071 NA
ATOM     12  N   UNL     1      -1.715  -0.773  26.195  0.00  0.00    -0.020 NA
ATOM     13  N   UNL     1      -1.031  -0.438  25.877  0.00  0.00    -0.040 NA
ATOM     14  N   UNL     1      -1.239  -0.044  25.183  0.00  0.00    -0.180 N 
BRANCH  10   9
ATOM      9  O   UNL     1      -2.491   0.171  24.443  0.00  0.00    -0.421 OA
BRANCH   9   8
ATOM      4  C   UNL     1      -4.520   0.918  24.738  0.00  0.00    +0.051 A 
ATOM      5  C   UNL     1      -4.962   0.237  24.585  0.00  0.00    +0.015 A 
ATOM      6  C   UNL     1      -4.579  -0.466  24.385  0.00  0.00    +0.004 A 
ATOM      7  C   UNL     1      -3.755  -0.487  24.338  0.00  0.00    +0.038 A 
ATOM      8  C   UNL     1      -3.315   0.192  24.491  0.00  0.00    +0.150 A 
ATOM     37  C   UNL     1      -3.698   0.895  24.691  0.00  0.00    +0.052 A 
BRANCH   4   2
ATOM      1  C   UNL     1      -5.469   1.626  25.539  0.00  0.00    +0.112 C 
ATOM      2  N   UNL     1      -4.903   1.621  24.938  0.00  0.00    -0.304 N 
ATOM      3  C   UNL     1      -4.720   2.319  24.538  0.00  0.00    +0.112 C 
ENDBRANCH   4   2
ENDBRANCH   9   8
ENDBRANCH  10   9
ENDBRANCH  15  14
BRANCH  19  23
ATOM     23  N   UNL     1       1.292   0.725  22.782  0.00  0.00    -0.074 NA
BRANCH  23  24
ATOM     24  S   UNL     1       2.103   0.579  22.815  0.00  0.00    +0.077 S 
ATOM     25  O   UNL     1       2.186   1.172  23.383  0.00  0.00    -0.152 OA
ATOM     26  O   UNL     1       2.019  -0.014  22.248  0.00  0.00    -0.152 OA
BRANCH  24  27
ATOM     27  C   UNL     1       2.914   0.433  22.849  0.00  0.00    +0.124 A 
ATOM     28  C   UNL     1       3.191  -0.338  22.946  0.00  0.00    +0.021 A 
ATOM     29  C   UNL     1       4.002  -0.484  22.980  0.00  0.00    +0.018 A 
ATOM     30  C   UNL     1       4.537   0.141  22.916  0.00  0.00    +0.073 A 
ATOM     35  C   UNL     1       4.260   0.912  22.819  0.00  0.00    +0.018 A 
ATOM     36  C   UNL     1       3.449   1.058  22.785  0.00  0.00    +0.021 A 
BRANCH  30  31
ATOM     31  N   UNL     1       5.348  -0.005  22.950  0.00  0.00    -0.179 NA
ATOM     32  C   UNL     1       5.725  -0.071  23.680  0.00  0.00    +0.246 C 
ATOM     33  C   UNL     1       5.293   0.009  24.378  0.00  0.00    +0.097 C 
ATOM     34  O   UNL     1       6.537  -0.218  23.713  0.00  0.00    -0.273 OA
ENDBRANCH  30  31
ENDBRANCH  24  27
ENDBRANCH  23  24
ENDBRANCH  19  23
TORSDOF 8
ENDMDL
MODEL 7
REMARK VINA RESULT:      -8.7      1.344      5.044
REMARK  Name = 
REMARK  8 active torsions:
REMARK  status: ('A' for Active; 'I' for Inactive)
REMARK    1  A    between atoms: N_2  and  C_4
REMARK    2  A    between atoms: C_8  and  O_9
REMARK    3  A    between atoms: O_9  and  C_10
REMARK    4  A    between atoms: N_14  and  C_15
REMARK    5  A    between atoms: C_19  and  N_23
REMARK    6  A    between atoms: N_23  and  S_24
REMARK    7  A    between atoms: S_24  and  C_27
REMARK    8  A    between atoms: C_30  and  N_31
REMARK                            x       y       z     vdW  Elec       q    Type
REMARK                         _______ _______ _______ _____ _____    ______ ____
ROOT
ATOM     15  C   UNL     1      -1.265  -1.255  24.967  0.00  0.00    +0.170 C 
ATOM     16  C   UNL     1      -0.976  -1.193  25.737  0.00  0.00    +0.169 C 
ATOM     17  O   UNL     1      -0.495  -0.524  25.775  0.00  0.00    -0.350 OA
ATOM     18  C   UNL     1      -0.486  -0.173  25.030  0.00  0.00    +0.164 C 
ATOM     19  C   UNL     1      -0.184   0.457  24.591  0.00  0.00    +0.157 C 
ATOM     20  C   UNL     1      -0.472   0.395  23.821  0.00  0.00    +0.164 C 
ATOM     21  O   UNL     1      -0.953  -0.274  23.783  0.00  0.00    -0.350 OA
ATOM     22  C   UNL     1      -0.962  -0.625  24.530  0.00  0.00    +0.169 C 
ENDROOT
BRANCH  15  14
ATOM     10  C   UNL     1      -2.578  -1.900  24.826  0.00  0.00    +0.343 A 
ATOM     11  N   UNL     1      -2.860  -2.572  24.438  0.00  0.00    -0.071 NA
ATOM     12  N   UNL     1      -2.224  -2.932  24.057  0.00  0.00    -0.020 NA
ATOM     13  N   UNL     1      -1.548  -2.483  24.208  0.00  0.00    -0.040 NA
ATOM     14  N   UNL     1      -1.768  -1.845  24.683  0.00  0.00    -0.180 N 
BRANCH  10   9
ATOM      9  O   UNL     1      -3.028  -1.375  25.276  0.00  0.00    -0.421 OA
BRANCH   9   8
ATOM      4  C   UNL     1      -4.463   0.186  24.760  0.00  0.00    +0.051 A 
ATOM      5  C   UNL     1      -4.974  -0.229  24.263  0.00  0.00    +0.015 A 
ATOM      6  C   UNL     1      -4.836  -1.026  24.103  0.00  0.00    +0.004 A 
ATOM      7  C   UNL     1      -4.187  -1.408  24.441  0.00  0.00    +0.038 A 
ATOM      8  C   UNL     1      -3.677  -0.993  24.938  0.00  0.00    +0.150 A 
ATOM     37  C   UNL     1      -3.815  -0.196  25.098  0.00  0.00    +0.052 A 
BRANCH   4   2
ATOM      1  C   UNL     1      -5.283   1.212  25.324  0.00  0.00    +0.112 C 
ATOM      2  N   UNL     1      -4.600   0.985  24.920  0.00  0.00    -0.304 N 
ATOM      3  C   UNL     1      -4.056   1.554  24.676  0.00  0.00    +0.112 C 
ENDBRANCH   4   2
ENDBRANCH   9   8
ENDBRANCH  10   9
ENDBRANCH  15  14
BRANCH  19  23
ATOM     23  N   UNL     1       0.319   1.047  24.875  0.00  0.00    -0.074 NA
BRANCH  23  24
ATOM     24  S   UNL     1       0.068   1.832  24.890  0.00  0.00    +0.077 S 
ATOM     25  O   UNL     1      -0.243   1.717  25.645  0.00  0.00    -0.152 OA
ATOM     26  O   UNL     1       0.379   1.947  24.134  0.00  0.00    -0.152 OA
BRANCH  24  27
ATOM     27  C   UNL     1      -0.184   2.618  24.906  0.00  0.00    +0.124 A 
ATOM     28  C   UNL     1      -0.345   3.013  24.200  0.00  0.00    +0.021 A 
ATOM     29  C   UNL     1      -0.597   3.799  24.216  0.00  0.00    +0.018 A 
ATOM     30  C   UNL     1      -0.688   4.189  24.937  0.00  0.00    +0.073 A 
ATOM     35  C   UNL     1      -0.527   3.793  25.642  0.00  0.00    +0.018 A 
ATOM     36  C   UNL     1      -0.275   3.008  25.627  0.00  0.00    +0.021 A 
BRANCH  30  31
ATOM     31  N   UNL     1      -0.940   4.974  24.952  0.00  0.00    -0.179 NA
ATOM     32  C   UNL     1      -1.707   5.156  25.194  0.00  0.00    +0.246 C 
ATOM     33  C   UNL     1      -2.224   4.554  25.421  0.00  0.00    +0.097 C 
ATOM     34  O   UNL     1      -1.959   5.943  25.208  0.00  0.00    -0.273 OA
ENDBRANCH  30  31
ENDBRANCH  24  27
ENDBRANCH  23  24
ENDBRANCH  19  23
TORSDOF 8
ENDMDL
