MODEL 1
REMARK VINA RESULT:      -8.8      0.000      0.000
REMARK  Name = 
REMARK  2 active torsions:
REMARK  status: ('A' for Active; 'I' for Inactive)
REMARK    1  A    between atoms: C_7  and  C_8
REMARK    2  A    between atoms: C_10  and  C_13
REMARK                            x       y       z     vdW  Elec       q    Type
REMARK                         _______ _______ _______ _____ _____    ______ ____
ROOT
ATOM      8  C   UNL     1      -4.292   0.888  24.692  0.00  0.00    +0.156 A 
ATOM      9  N   UNL     1      -4.317   0.158  25.074  0.00  0.00    -0.232 NA
ATOM     10  C   UNL     1      -3.884  -0.380  24.623  0.00  0.00    +0.079 A 
ATOM     11  C   UNL     1      -3.592   0.018  23.962  0.00  0.00    +0.115 A 
ATOM     12  N   UNL     1      -3.845   0.802  24.005  0.00  0.00    -0.227 NA
ENDROOT
BRANCH   8   7
ATOM      1  C   UNL     1      -3.383   2.240  24.956  0.00  0.00    +0.090 C 
ATOM      2  N   UNL     1      -4.198   2.259  25.084  0.00  0.00    -0.262 NA
ATOM      3  C   UNL     1      -4.559   2.954  25.344  0.00  0.00    +0.105 C 
ATOM      4  C   UNL     1      -5.373   2.974  25.472  0.00  0.00    +0.160 C 
ATOM      5  O   UNL     1      -5.828   2.298  25.340  0.00  0.00    -0.350 OA
ATOM      6  C   UNL     1      -5.468   1.603  25.080  0.00  0.00    +0.166 C 
ATOM      7  C   UNL     1      -4.652   1.583  24.952  0.00  0.00    +0.147 C 
ENDBRANCH   8   7
BRANCH  10  13
ATOM     13  C   UNL     1      -3.764  -1.177  24.801  0.00  0.00    +0.037 C 
ATOM     14  C   UNL     1      -3.643  -1.973  24.979  0.00  0.00    +0.006 C 
ATOM     15  C   UNL     1      -3.419  -0.964  25.519  0.00  0.00    +0.006 C 
ATOM     16  C   UNL     1      -4.108  -1.389  24.082  0.00  0.00    +0.006 C 
ENDBRANCH  10  13
TORSDOF 2
ENDMDL
MODEL 2
REMARK VINA RESULT:      -8.7      1.171      1.661
REMARK  Name = 
REMARK  2 active torsions:
REMARK  status: ('A' for Active; 'I' for Inactive)
REMARK    1  A    between atoms: C_7  and  C_8
REMARK    2  A    between atoms: C_10  and  C_13
REMARK                            x       y       z     vdW  Elec       q    Type
REMARK                         _______ _______ _______ _____ _____    ______ ____
ROOT
ATOM      8  C   UNL     1      -3.735   0.198  24.600  0.00  0.00    +0.156 A 
ATOM      9  N   UNL     1      -3.731  -0.486  24.140  0.00  0.00    -0.232 NA
ATOM     10  C   UNL     1      -3.753  -1.135  24.649  0.00  0.00    +0.079 A 
ATOM     11  C   UNL     1      -3.770  -0.851  25.424  0.00  0.00    +0.115 A 
ATOM     12  N   UNL     1      -3.759  -0.026  25.393  0.00  0.00    -0.227 NA
ENDROOT
BRANCH   8   7
ATOM      1  C   UNL     1      -4.924   1.260  25.026  0.00  0.00    +0.090 C 
ATOM      2  N   UNL     1      -4.311   1.504  24.529  0.00  0.00    -0.262 NA
ATOM      3  C   UNL     1      -4.294   2.278  24.245  0.00  0.00    +0.105 C 
ATOM      4  C   UNL     1      -3.683   2.522  23.748  0.00  0.00    +0.160 C 
ATOM      5  O   UNL     1      -3.088   1.991  23.535  0.00  0.00    -0.350 OA
ATOM      6  C   UNL     1      -3.105   1.217  23.819  0.00  0.00    +0.166 C 
ATOM      7  C   UNL     1      -3.717   0.973  24.316  0.00  0.00    +0.147 C 
ENDBRANCH   8   7
BRANCH  10  13
ATOM     13  C   UNL     1      -3.757  -1.929  24.424  0.00  0.00    +0.037 C 
ATOM     14  C   UNL     1      -3.760  -2.722  24.199  0.00  0.00    +0.006 C 
ATOM     15  C   UNL     1      -3.191  -2.095  25.001  0.00  0.00    +0.006 C 
ATOM     16  C   UNL     1      -4.322  -1.762  23.847  0.00  0.00    +0.006 C 
ENDBRANCH  10  13
TORSDOF 2
ENDMDL
MODEL 3
REMARK VINA RESULT:      -8.4      2.258      2.817
REMARK  Name = 
REMARK  2 active torsions:
REMARK  status: ('A' for Active; 'I' for Inactive)
REMARK    1  A    between atoms: C_7  and  C_8
REMARK    2  A    between atoms: C_10  and  C_13
REMARK                            x       y       z     vdW  Elec       q    Type
REMARK                         _______ _______ _______ _____ _____    ______ ____
ROOT
ATOM      8  C   UNL     1      -2.667  -0.401  25.167  0.00  0.00    +0.156 A 
ATOM      9  N   UNL     1      -2.922  -0.837  24.515  0.00  0.00    -0.232 NA
ATOM     10  C   UNL     1      -3.428  -1.429  24.788  0.00  0.00    +0.079 A 
ATOM     11  C   UNL     1      -3.484  -1.359  25.608  0.00  0.00    +0.115 A 
ATOM     12  N   UNL     1      -3.013  -0.723  25.842  0.00  0.00    -0.227 NA
ENDROOT
BRANCH   8   7
ATOM      1  C   UNL     1      -1.117  -0.561  25.712  0.00  0.00    +0.090 C 
ATOM      2  N   UNL     1      -1.379   0.166  25.419  0.00  0.00    -0.262 NA
ATOM      3  C   UNL     1      -0.866   0.811  25.398  0.00  0.00    +0.105 C 
ATOM      4  C   UNL     1      -1.127   1.536  25.105  0.00  0.00    +0.160 C 
ATOM      5  O   UNL     1      -1.902   1.617  24.833  0.00  0.00    -0.350 OA
ATOM      6  C   UNL     1      -2.415   0.971  24.853  0.00  0.00    +0.166 C 
ATOM      7  C   UNL     1      -2.154   0.245  25.146  0.00  0.00    +0.147 C 
ENDBRANCH   8   7
BRANCH  10  13
ATOM     13  C   UNL     1      -3.811  -1.993  24.322  0.00  0.00    +0.037 C 
ATOM     14  C   UNL     1      -4.193  -2.556  23.857  0.00  0.00    +0.006 C 
ATOM     15  C   UNL     1      -4.251  -1.396  23.962  0.00  0.00    +0.006 C 
ATOM     16  C   UNL     1      -3.369  -2.589  24.683  0.00  0.00    +0.006 C 
ENDBRANCH  10  13
TORSDOF 2
ENDMDL
MODEL 4
REMARK VINA RESULT:      -8.2      1.474      3.481
REMARK  Name = 
REMARK  2 active torsions:
REMARK  status: ('A' for Active; 'I' for Inactive)
REMARK    1  A    between atoms: C_7  and  C_8
REMARK    2  A    between atoms: C_10  and  C_13
REMARK                            x       y       z     vdW  Elec       q    Type
REMARK                         _______ _______ _______ _____ _____    ______ ____
ROOT
ATOM      8  C   UNL     1      -3.878  -0.152  24.630  0.00  0.00    +0.156 A 
ATOM      9  N   UNL     1      -4.562   0.301  24.710  0.00  0.00    -0.232 NA
ATOM     10  C   UNL     1      -4.337   1.093  24.767  0.00  0.00    +0.079 A 
ATOM     11  C   UNL     1      -3.514   1.128  24.721  0.00  0.00    +0.115 A 
ATOM     12  N   UNL     1      -3.231   0.358  24.637  0.00  0.00    -0.227 NA
ENDROOT
BRANCH   8   7
ATOM      1  C   UNL     1      -3.159  -1.060  25.806  0.00  0.00    +0.090 C 
ATOM      2  N   UNL     1      -3.488  -1.428  25.143  0.00  0.00    -0.262 NA
ATOM      3  C   UNL     1      -3.457  -2.249  25.069  0.00  0.00    +0.105 C 
ATOM      4  C   UNL     1      -3.785  -2.615  24.408  0.00  0.00    +0.160 C 
ATOM      5  O   UNL     1      -4.145  -2.162  23.820  0.00  0.00    -0.350 OA
ATOM      6  C   UNL     1      -4.175  -1.341  23.894  0.00  0.00    +0.166 C 
ATOM      7  C   UNL     1      -3.847  -0.973  24.556  0.00  0.00    +0.147 C 
ENDBRANCH   8   7
BRANCH  10  13
ATOM     13  C   UNL     1      -4.846   1.738  24.853  0.00  0.00    +0.037 C 
ATOM     14  C   UNL     1      -5.354   2.381  24.940  0.00  0.00    +0.006 C 
ATOM     15  C   UNL     1      -4.377   2.177  24.337  0.00  0.00    +0.006 C 
ATOM     16  C   UNL     1      -5.315   1.297  25.370  0.00  0.00    +0.006 C 
ENDBRANCH  10  13
TORSDOF 2
ENDMDL
MODEL 5
REMARK VINA RESULT:      -8.0      2.373      3.466
REMARK  Name = 
REMARK  2 active torsions:
REMARK  status: ('A' for Active; 'I' for Inactive)
REMARK    1  A    between atoms: C_7  and  C_8
REMARK    2  A    between atoms: C_10  and  C_13
REMARK                            x       y       z     vdW  Elec       q    Type
REMARK                         _______ _______ _______ _____ _____    ______ ____
ROOT
ATOM      8  C   UNL     1      -3.214   3.202  24.702  0.00  0.00    +0.156 A 
ATOM      9  N   UNL     1      -3.737   2.900  25.264  0.00  0.00    -0.232 NA
ATOM     10  C   UNL     1      -4.413   2.640  24.868  0.00  0.00    +0.079 A 
ATOM     11  C   UNL     1      -4.306   2.782  24.062  0.00  0.00    +0.115 A 
ATOM     12  N   UNL     1      -3.565   3.130  23.960  0.00  0.00    -0.227 NA
ENDROOT
BRANCH   8   7
ATOM      1  C   UNL     1      -1.857   2.410  24.198  0.00  0.00    +0.090 C 
ATOM      2  N   UNL     1      -1.790   3.125  24.605  0.00  0.00    -0.262 NA
ATOM      3  C   UNL     1      -1.045   3.444  24.759  0.00  0.00    +0.105 C 
ATOM      4  C   UNL     1      -0.978   4.159  25.165  0.00  0.00    +0.160 C 
ATOM      5  O   UNL     1      -1.657   4.555  25.417  0.00  0.00    -0.350 OA
ATOM      6  C   UNL     1      -2.402   4.236  25.263  0.00  0.00    +0.166 C 
ATOM      7  C   UNL     1      -2.468   3.521  24.856  0.00  0.00    +0.147 C 
ENDBRANCH   8   7
BRANCH  10  13
ATOM     13  C   UNL     1      -5.078   2.299  25.216  0.00  0.00    +0.037 C 
ATOM     14  C   UNL     1      -5.743   1.958  25.565  0.00  0.00    +0.006 C 
ATOM     15  C   UNL     1      -5.317   3.041  25.487  0.00  0.00    +0.006 C 
ATOM     16  C   UNL     1      -4.839   1.557  24.946  0.00  0.00    +0.006 C 
ENDBRANCH  10  13
TORSDOF 2
ENDMDL
