MODEL 1
REMARK VINA RESULT:      -9.2      0.000      0.000
REMARK  Name = 
REMARK  7 active torsions:
REMARK  status: ('A' for Active; 'I' for Inactive)
REMARK    1  A    between atoms: O_2  and  C_3
REMARK    2  A    between atoms: C_6  and  C_7
REMARK    3  A    between atoms: C_7  and  N_8
REMARK    4  A    between atoms: N_8  and  C_9
REMARK    5  A    between atoms: C_9  and  C_10
REMARK    6  A    between atoms: C_17  and  C_18
REMARK    7  A    between atoms: C_20  and  C_24
REMARK                            x       y       z     vdW  Elec       q    Type
REMARK                         _______ _______ _______ _____ _____    ______ ____
ROOT
ATOM     10  C   UNL     1       0.091   0.275  23.524  0.00  0.00    +0.075 C 
ATOM     11  C   UNL     1      -0.271   0.258  24.213  0.00  0.00    +0.018 C 
ATOM     12  C   UNL     1      -0.910   0.709  24.421  0.00  0.00    +0.010 C 
ATOM     13  C   UNL     1      -1.179   0.541  25.260  0.00  0.00    +0.018 C 
ATOM     14  C   UNL     1      -0.803   0.471  24.729  0.00  0.00    +0.072 C 
ATOM     15  N   UNL     1      -0.561   0.732  23.744  0.00  0.00    -0.272 NA
ATOM     16  C   UNL     1      -1.044   1.362  23.294  0.00  0.00    +0.078 C 
ATOM     17  C   UNL     1      -1.370   1.315  23.982  0.00  0.00    +0.056 C 
ENDROOT
BRANCH  17  18
ATOM     18  C   UNL     1      -2.020   1.743  24.257  0.00  0.00    +0.058 A 
ATOM     19  C   UNL     1      -2.775   1.441  24.397  0.00  0.00    +0.036 A 
ATOM     20  C   UNL     1      -3.250   2.059  24.666  0.00  0.00    +0.108 A 
ATOM     21  N   UNL     1      -2.790   2.743  24.693  0.00  0.00    -0.169 NA
ATOM     22  N   UNL     1      -2.029   2.547  24.440  0.00  0.00    -0.253 N 
ATOM     23  C   UNL     1      -1.389   3.065  24.380  0.00  0.00    +0.153 C 
BRANCH  20  24
ATOM     24  C   UNL     1      -4.047   2.004  24.872  0.00  0.00    +0.049 A 
ATOM     25  C   UNL     1      -4.547   1.367  24.712  0.00  0.00    +0.009 A 
ATOM     26  C   UNL     1      -5.293   1.546  25.016  0.00  0.00    +0.008 A 
ATOM     27  C   UNL     1      -5.254   2.293  25.364  0.00  0.00    +0.035 A 
ATOM     28  S   UNL     1      -4.485   2.576  25.276  0.00  0.00    -0.085 S 
ENDBRANCH  20  24
ENDBRANCH  17  18
BRANCH  10   9
ATOM      9  C   UNL     1       0.671   0.030  22.991  0.00  0.00    +0.105 C 
BRANCH   9   8
ATOM      8  N   UNL     1       1.468   0.161  23.160  0.00  0.00    -0.212 NA
BRANCH   8   7
ATOM      7  C   UNL     1       2.041   0.008  22.587  0.00  0.00    +0.115 C 
BRANCH   7   6
ATOM      3  C   UNL     1       4.434   0.369  23.103  0.00  0.00    +0.139 A 
ATOM      4  C   UNL     1       3.982   0.985  22.793  0.00  0.00    +0.037 A 
ATOM      5  C   UNL     1       3.184   0.865  22.621  0.00  0.00    +0.000 A 
ATOM      6  C   UNL     1       2.839   0.128  22.759  0.00  0.00    -0.005 A 
ATOM     29  C   UNL     1       3.291  -0.488  23.069  0.00  0.00    +0.000 A 
ATOM     30  C   UNL     1       4.089  -0.367  23.241  0.00  0.00    +0.037 A 
BRANCH   3   2
ATOM      1  C   UNL     1       5.591   0.065  23.884  0.00  0.00    +0.252 C 
ATOM      2  O   UNL     1       5.232   0.490  23.275  0.00  0.00    -0.471 OA
ENDBRANCH   3   2
ENDBRANCH   7   6
ENDBRANCH   8   7
ENDBRANCH   9   8
ENDBRANCH  10   9
TORSDOF 7
ENDMDL
MODEL 2
REMARK VINA RESULT:      -8.9      4.308      5.528
REMARK  Name = 
REMARK  7 active torsions:
REMARK  status: ('A' for Active; 'I' for Inactive)
REMARK    1  A    between atoms: O_2  and  C_3
REMARK    2  A    between atoms: C_6  and  C_7
REMARK    3  A    between atoms: C_7  and  N_8
REMARK    4  A    between atoms: N_8  and  C_9
REMARK    5  A    between atoms: C_9  and  C_10
REMARK    6  A    between atoms: C_17  and  C_18
REMARK    7  A    between atoms: C_20  and  C_24
REMARK                            x       y       z     vdW  Elec       q    Type
REMARK                         _______ _______ _______ _____ _____    ______ ____
ROOT
ATOM     10  C   UNL     1      -4.626   1.342  24.594  0.00  0.00    +0.075 C 
ATOM     11  C   UNL     1      -4.520   2.006  24.202  0.00  0.00    +0.018 C 
ATOM     12  C   UNL     1      -4.054   2.625  24.440  0.00  0.00    +0.010 C 
ATOM     13  C   UNL     1      -4.066   3.298  23.847  0.00  0.00    +0.018 C 
ATOM     14  C   UNL     1      -4.226   2.710  24.084  0.00  0.00    +0.072 C 
ATOM     15  N   UNL     1      -4.153   1.977  24.829  0.00  0.00    -0.272 NA
ATOM     16  C   UNL     1      -3.635   2.111  25.568  0.00  0.00    +0.078 C 
ATOM     17  C   UNL     1      -3.557   2.747  25.153  0.00  0.00    +0.056 C 
ENDROOT
BRANCH  17  18
ATOM     18  C   UNL     1      -3.102   3.410  25.336  0.00  0.00    +0.058 A 
ATOM     19  C   UNL     1      -2.431   3.665  24.930  0.00  0.00    +0.036 A 
ATOM     20  C   UNL     1      -2.152   4.346  25.300  0.00  0.00    +0.108 A 
ATOM     21  N   UNL     1      -2.650   4.514  25.935  0.00  0.00    -0.169 NA
ATOM     22  N   UNL     1      -3.238   3.935  25.958  0.00  0.00    -0.253 N 
ATOM     23  C   UNL     1      -3.853   3.888  26.506  0.00  0.00    +0.153 C 
BRANCH  20  24
ATOM     24  C   UNL     1      -1.491   4.785  25.075  0.00  0.00    +0.049 A 
ATOM     25  C   UNL     1      -1.460   5.605  24.985  0.00  0.00    +0.009 A 
ATOM     26  C   UNL     1      -0.694   5.808  24.755  0.00  0.00    +0.008 A 
ATOM     27  C   UNL     1      -0.251   5.114  24.702  0.00  0.00    +0.035 A 
ATOM     28  S   UNL     1      -0.743   4.482  24.900  0.00  0.00    -0.085 S 
ENDBRANCH  20  24
ENDBRANCH  17  18
BRANCH  10   9
ATOM      9  C   UNL     1      -4.953   0.592  24.696  0.00  0.00    +0.105 C 
BRANCH   9   8
ATOM      8  N   UNL     1      -4.582  -0.068  24.368  0.00  0.00    -0.212 NA
BRANCH   8   7
ATOM      7  C   UNL     1      -4.701  -0.814  24.699  0.00  0.00    +0.115 C 
BRANCH   7   6
ATOM      3  C   UNL     1      -2.935  -2.539  24.524  0.00  0.00    +0.139 A 
ATOM      4  C   UNL     1      -3.497  -2.463  23.926  0.00  0.00    +0.037 A 
ATOM      5  C   UNL     1      -4.086  -1.888  23.984  0.00  0.00    +0.000 A 
ATOM      6  C   UNL     1      -4.112  -1.389  24.641  0.00  0.00    -0.005 A 
ATOM     29  C   UNL     1      -3.549  -1.466  25.239  0.00  0.00    +0.000 A 
ATOM     30  C   UNL     1      -2.961  -2.040  25.181  0.00  0.00    +0.037 A 
BRANCH   3   2
ATOM      1  C   UNL     1      -1.575  -2.896  24.267  0.00  0.00    +0.252 C 
ATOM      2  O   UNL     1      -2.346  -3.114  24.465  0.00  0.00    -0.471 OA
ENDBRANCH   3   2
ENDBRANCH   7   6
ENDBRANCH   8   7
ENDBRANCH   9   8
ENDBRANCH  10   9
TORSDOF 7
ENDMDL
MODEL 3
REMARK VINA RESULT:      -8.2      2.834      6.790
REMARK  Name = 
REMARK  7 active torsions:
REMARK  status: ('A' for Active; 'I' for Inactive)
REMARK    1  A    between atoms: O_2  and  C_3
REMARK    2  A    between atoms: C_6  and  C_7
REMARK    3  A    between atoms: C_7  and  N_8
REMARK    4  A    between atoms: N_8  and  C_9
REMARK    5  A    between atoms: C_9  and  C_10
REMARK    6  A    between atoms: C_17  and  C_18
REMARK    7  A    between atoms: C_20  and  C_24
REMARK                            x       y       z     vdW  Elec       q    Type
REMARK                         _______ _______ _______ _____ _____    ______ ____
ROOT
ATOM     10  C   UNL     1      -1.008   0.357  24.211  0.00  0.00    +0.075 C 
ATOM     11  C   UNL     1      -0.450   0.897  24.158  0.00  0.00    +0.018 C 
ATOM     12  C   UNL     1       0.263   0.803  23.788  0.00  0.00    +0.010 C 
ATOM     13  C   UNL     1       0.766   1.544  23.838  0.00  0.00    +0.018 C 
ATOM     14  C   UNL     1       0.237   1.176  23.944  0.00  0.00    +0.072 C 
ATOM     15  N   UNL     1      -0.279   0.269  23.835  0.00  0.00    -0.272 NA
ATOM     16  C   UNL     1       0.097  -0.432  23.388  0.00  0.00    +0.078 C 
ATOM     17  C   UNL     1       0.619   0.125  23.359  0.00  0.00    +0.056 C 
ENDROOT
BRANCH  17  18
ATOM     18  C   UNL     1       1.361   0.095  22.999  0.00  0.00    +0.058 A 
ATOM     19  C   UNL     1       2.078   0.302  23.350  0.00  0.00    +0.036 A 
ATOM     20  C   UNL     1       2.676   0.188  22.794  0.00  0.00    +0.108 A 
ATOM     21  N   UNL     1       2.329  -0.090  22.099  0.00  0.00    -0.169 NA
ATOM     22  N   UNL     1       1.515  -0.147  22.226  0.00  0.00    -0.253 N 
ATOM     23  C   UNL     1       0.955  -0.402  21.677  0.00  0.00    +0.153 C 
BRANCH  20  24
ATOM     24  C   UNL     1       3.480   0.327  22.911  0.00  0.00    +0.049 A 
ATOM     25  C   UNL     1       3.885   1.021  22.721  0.00  0.00    +0.009 A 
ATOM     26  C   UNL     1       4.677   0.920  22.931  0.00  0.00    +0.008 A 
ATOM     27  C   UNL     1       4.761   0.164  23.252  0.00  0.00    +0.035 A 
ATOM     28  S   UNL     1       4.023  -0.202  23.240  0.00  0.00    -0.085 S 
ENDBRANCH  20  24
ENDBRANCH  17  18
BRANCH  10   9
ATOM      9  C   UNL     1      -1.748   0.085  24.453  0.00  0.00    +0.105 C 
BRANCH   9   8
ATOM      8  N   UNL     1      -2.383   0.609  24.507  0.00  0.00    -0.212 NA
BRANCH   8   7
ATOM      7  C   UNL     1      -3.156   0.328  24.436  0.00  0.00    +0.115 C 
BRANCH   7   6
ATOM      3  C   UNL     1      -5.065   1.828  24.916  0.00  0.00    +0.139 A 
ATOM      4  C   UNL     1      -5.021   1.087  25.278  0.00  0.00    +0.037 A 
ATOM      5  C   UNL     1      -4.385   0.587  25.118  0.00  0.00    +0.000 A 
ATOM      6  C   UNL     1      -3.792   0.828  24.596  0.00  0.00    -0.005 A 
ATOM     29  C   UNL     1      -3.837   1.568  24.235  0.00  0.00    +0.000 A 
ATOM     30  C   UNL     1      -4.473   2.068  24.395  0.00  0.00    +0.037 A 
BRANCH   3   2
ATOM      1  C   UNL     1      -5.590   2.998  25.544  0.00  0.00    +0.252 C 
ATOM      2  O   UNL     1      -5.701   2.327  25.077  0.00  0.00    -0.471 OA
ENDBRANCH   3   2
ENDBRANCH   7   6
ENDBRANCH   8   7
ENDBRANCH   9   8
ENDBRANCH  10   9
TORSDOF 7
ENDMDL
MODEL 4
REMARK VINA RESULT:      -8.2      3.487      5.024
REMARK  Name = 
REMARK  7 active torsions:
REMARK  status: ('A' for Active; 'I' for Inactive)
REMARK    1  A    between atoms: O_2  and  C_3
REMARK    2  A    between atoms: C_6  and  C_7
REMARK    3  A    between atoms: C_7  and  N_8
REMARK    4  A    between atoms: N_8  and  C_9
REMARK    5  A    between atoms: C_9  and  C_10
REMARK    6  A    between atoms: C_17  and  C_18
REMARK    7  A    between atoms: C_20  and  C_24
REMARK                            x       y       z     vdW  Elec       q    Type
REMARK                         _______ _______ _______ _____ _____    ______ ____
ROOT
ATOM     10  C   UNL     1      -0.382  -0.200  24.747  0.00  0.00    +0.075 C 
ATOM     11  C   UNL     1      -0.213   0.427  24.318  0.00  0.00    +0.018 C 
ATOM     12  C   UNL     1      -0.278   1.197  24.562  0.00  0.00    +0.010 C 
ATOM     13  C   UNL     1      -0.034   1.772  23.919  0.00  0.00    +0.018 C 
ATOM     14  C   UNL     1      -0.143   1.184  24.181  0.00  0.00    +0.072 C 
ATOM     15  N   UNL     1      -0.446   0.587  24.988  0.00  0.00    -0.272 NA
ATOM     16  C   UNL     1      -0.715   0.965  25.774  0.00  0.00    +0.078 C 
ATOM     17  C   UNL     1      -0.538   1.553  25.321  0.00  0.00    +0.056 C 
ENDROOT
BRANCH  17  18
ATOM     18  C   UNL     1      -0.582   2.357  25.506  0.00  0.00    +0.058 A 
ATOM     19  C   UNL     1      -1.047   2.918  25.120  0.00  0.00    +0.036 A 
ATOM     20  C   UNL     1      -0.921   3.646  25.484  0.00  0.00    +0.108 A 
ATOM     21  N   UNL     1      -0.378   3.536  26.095  0.00  0.00    -0.169 NA
ATOM     22  N   UNL     1      -0.168   2.738  26.108  0.00  0.00    -0.253 N 
ATOM     23  C   UNL     1       0.362   2.384  26.632  0.00  0.00    +0.153 C 
BRANCH  20  24
ATOM     24  C   UNL     1      -1.276   4.361  25.275  0.00  0.00    +0.049 A 
ATOM     25  C   UNL     1      -0.892   5.016  24.949  0.00  0.00    +0.009 A 
ATOM     26  C   UNL     1      -1.456   5.607  24.828  0.00  0.00    +0.008 A 
ATOM     27  C   UNL     1      -2.187   5.318  25.078  0.00  0.00    +0.035 A 
ATOM     28  S   UNL     1      -2.076   4.549  25.354  0.00  0.00    -0.085 S 
ENDBRANCH  20  24
ENDBRANCH  17  18
BRANCH  10   9
ATOM      9  C   UNL     1      -0.447  -1.013  24.867  0.00  0.00    +0.105 C 
BRANCH   9   8
ATOM      8  N   UNL     1      -1.055  -1.437  24.504  0.00  0.00    -0.212 NA
BRANCH   8   7
ATOM      7  C   UNL     1      -1.421  -2.058  24.906  0.00  0.00    +0.115 C 
BRANCH   7   6
ATOM      3  C   UNL     1      -3.708  -2.760  24.273  0.00  0.00    +0.139 A 
ATOM      4  C   UNL     1      -3.055  -3.090  23.891  0.00  0.00    +0.037 A 
ATOM      5  C   UNL     1      -2.293  -2.856  24.102  0.00  0.00    +0.000 A 
ATOM      6  C   UNL     1      -2.183  -2.292  24.695  0.00  0.00    -0.005 A 
ATOM     29  C   UNL     1      -2.836  -1.963  25.076  0.00  0.00    +0.000 A 
ATOM     30  C   UNL     1      -3.599  -2.197  24.865  0.00  0.00    +0.037 A 
BRANCH   3   2
ATOM      1  C   UNL     1      -4.916  -2.530  23.545  0.00  0.00    +0.252 C 
ATOM      2  O   UNL     1      -4.470  -2.995  24.062  0.00  0.00    -0.471 OA
ENDBRANCH   3   2
ENDBRANCH   7   6
ENDBRANCH   8   7
ENDBRANCH   9   8
ENDBRANCH  10   9
TORSDOF 7
ENDMDL
