MODEL 1
REMARK VINA RESULT:      -8.9      0.000      0.000
REMARK  Name = 
REMARK  10 active torsions:
REMARK  status: ('A' for Active; 'I' for Inactive)
REMARK    1  A    between atoms: O_2  and  C_3
REMARK    2  A    between atoms: C_3  and  C_4
REMARK    3  A    between atoms: C_4  and  N_5
REMARK    4  A    between atoms: N_5  and  C_6
REMARK    5  A    between atoms: C_6  and  C_7
REMARK    6  A    between atoms: C_7  and  O_8
REMARK    7  A    between atoms: C_10  and  C_12
REMARK    8  A    between atoms: C_12  and  C_14
REMARK    9  A    between atoms: C_21  and  N_22
REMARK   10  A    between atoms: C_23  and  C_25
REMARK                            x       y       z     vdW  Elec       q    Type
REMARK                         _______ _______ _______ _____ _____    ______ ____
ROOT
ATOM     14  C   UNL     1      -4.027   0.225  25.145  0.00  0.00    +0.039 C 
ATOM     15  C   UNL     1      -4.815   0.470  25.160  0.00  0.00    +0.003 C 
ATOM     16  C   UNL     1      -5.001   1.268  25.065  0.00  0.00    +0.000 C 
ATOM     17  C   UNL     1      -4.400   1.821  24.954  0.00  0.00    +0.002 C 
ATOM     18  C   UNL     1      -5.188   2.066  24.970  0.00  0.00    +0.000 C 
ATOM     19  C   UNL     1      -4.587   2.620  24.859  0.00  0.00    +0.002 C 
ATOM     20  C   UNL     1      -3.985   3.173  24.748  0.00  0.00    +0.022 C 
ATOM     21  C   UNL     1      -3.198   2.930  24.732  0.00  0.00    +0.095 C 
ATOM     31  C   UNL     1      -3.011   2.131  24.828  0.00  0.00    +0.022 C 
ATOM     32  C   UNL     1      -2.223   1.887  24.812  0.00  0.00    +0.002 C 
ATOM     33  C   UNL     1      -3.612   1.578  24.938  0.00  0.00    +0.032 C 
ATOM     34  C   UNL     1      -3.425   0.780  25.034  0.00  0.00    +0.152 C 
ATOM     35  O   UNL     1      -2.638   0.535  25.018  0.00  0.00    -0.223 OA
ENDROOT
BRANCH  21  22
ATOM     22  N   UNL     1      -2.596   3.483  24.621  0.00  0.00    -0.207 NA
ATOM     23  C   UNL     1      -2.470   4.073  25.184  0.00  0.00    +0.241 C 
ATOM     24  O   UNL     1      -2.945   4.109  25.858  0.00  0.00    -0.273 OA
BRANCH  23  25
ATOM     25  C   UNL     1      -1.868   4.627  25.075  0.00  0.00    +0.078 C 
ATOM     26  C   UNL     1      -1.090   4.376  24.977  0.00  0.00    +0.009 C 
ATOM     27  C   UNL     1      -0.488   4.931  24.867  0.00  0.00    +0.000 C 
ATOM     28  C   UNL     1      -0.667   5.736  24.855  0.00  0.00    +0.000 C 
ATOM     29  C   UNL     1      -1.446   5.987  24.953  0.00  0.00    +0.000 C 
ATOM     30  C   UNL     1      -2.048   5.433  25.063  0.00  0.00    +0.009 C 
ENDBRANCH  23  25
ENDBRANCH  21  22
BRANCH  14  12
ATOM     12  C   UNL     1      -3.841  -0.572  25.240  0.00  0.00    +0.079 C 
ATOM     13  C   UNL     1      -3.505  -0.836  25.946  0.00  0.00    +0.010 C 
BRANCH  12  10
ATOM      5  N   UNL     1      -3.468  -1.731  24.491  0.00  0.00    -0.274 N 
ATOM     10  C   UNL     1      -3.989  -1.106  24.629  0.00  0.00    +0.225 C 
ATOM     11  O   UNL     1      -4.660  -1.016  24.156  0.00  0.00    -0.275 OA
BRANCH   5   4
ATOM      4  C   UNL     1      -3.617  -2.265  23.880  0.00  0.00    +0.125 C 
BRANCH   4   3
ATOM      3  C   UNL     1      -4.138  -2.894  24.001  0.00  0.00    +0.164 C 
BRANCH   3   2
ATOM      1  C   UNL     1      -4.868  -3.801  23.172  0.00  0.00    +0.174 C 
ATOM      2  O   UNL     1      -4.150  -3.527  23.472  0.00  0.00    -0.349 OA
ENDBRANCH   3   2
ENDBRANCH   4   3
ENDBRANCH   5   4
BRANCH   5   6
ATOM      6  C   UNL     1      -2.799  -1.821  24.964  0.00  0.00    +0.125 C 
BRANCH   6   7
ATOM      7  C   UNL     1      -2.116  -2.162  24.651  0.00  0.00    +0.164 C 
BRANCH   7   8
ATOM      8  O   UNL     1      -1.484  -2.353  25.148  0.00  0.00    -0.349 OA
ATOM      9  C   UNL     1      -0.708  -2.239  24.891  0.00  0.00    +0.174 C 
ENDBRANCH   7   8
ENDBRANCH   6   7
ENDBRANCH   5   6
ENDBRANCH  12  10
ENDBRANCH  14  12
TORSDOF 10
ENDMDL
MODEL 2
REMARK VINA RESULT:      -8.5      2.857      5.074
REMARK  Name = 
REMARK  10 active torsions:
REMARK  status: ('A' for Active; 'I' for Inactive)
REMARK    1  A    between atoms: O_2  and  C_3
REMARK    2  A    between atoms: C_3  and  C_4
REMARK    3  A    between atoms: C_4  and  N_5
REMARK    4  A    between atoms: N_5  and  C_6
REMARK    5  A    between atoms: C_6  and  C_7
REMARK    6  A    between atoms: C_7  and  O_8
REMARK    7  A    between atoms: C_10  and  C_12
REMARK    8  A    between atoms: C_12  and  C_14
REMARK    9  A    between atoms: C_21  and  N_22
REMARK   10  A    between atoms: C_23  and  C_25
REMARK                            x       y       z     vdW  Elec       q    Type
REMARK                         _______ _______ _______ _____ _____    ______ ____
ROOT
ATOM     14  C   UNL     1      -2.543   0.951  24.141  0.00  0.00    +0.039 C 
ATOM     15  C   UNL     1      -2.665   0.215  24.494  0.00  0.00    +0.003 C 
ATOM     16  C   UNL     1      -2.035  -0.310  24.582  0.00  0.00    +0.000 C 
ATOM     17  C   UNL     1      -1.284  -0.101  24.316  0.00  0.00    +0.002 C 
ATOM     18  C   UNL     1      -1.405  -0.836  24.669  0.00  0.00    +0.000 C 
ATOM     19  C   UNL     1      -0.653  -0.627  24.403  0.00  0.00    +0.002 C 
ATOM     20  C   UNL     1       0.099  -0.416  24.137  0.00  0.00    +0.022 C 
ATOM     21  C   UNL     1       0.221   0.318  23.783  0.00  0.00    +0.095 C 
ATOM     31  C   UNL     1      -0.409   0.844  23.696  0.00  0.00    +0.022 C 
ATOM     32  C   UNL     1      -0.286   1.580  23.342  0.00  0.00    +0.002 C 
ATOM     33  C   UNL     1      -1.161   0.635  23.962  0.00  0.00    +0.032 C 
ATOM     34  C   UNL     1      -1.791   1.160  23.874  0.00  0.00    +0.152 C 
ATOM     35  O   UNL     1      -1.669   1.895  23.520  0.00  0.00    -0.223 OA
ENDROOT
BRANCH  21  22
ATOM     22  N   UNL     1       0.974   0.529  23.517  0.00  0.00    -0.207 NA
ATOM     23  C   UNL     1       1.403   0.008  23.041  0.00  0.00    +0.241 C 
ATOM     24  O   UNL     1       1.079  -0.722  22.832  0.00  0.00    -0.273 OA
BRANCH  23  25
ATOM     25  C   UNL     1       2.154   0.217  22.774  0.00  0.00    +0.078 C 
ATOM     26  C   UNL     1       2.435  -0.079  22.058  0.00  0.00    +0.009 C 
ATOM     27  C   UNL     1       3.188   0.131  21.791  0.00  0.00    +0.000 C 
ATOM     28  C   UNL     1       3.658   0.637  22.242  0.00  0.00    +0.000 C 
ATOM     29  C   UNL     1       3.378   0.933  22.958  0.00  0.00    +0.000 C 
ATOM     30  C   UNL     1       2.626   0.724  23.225  0.00  0.00    +0.009 C 
ENDBRANCH  23  25
ENDBRANCH  21  22
BRANCH  14  12
ATOM     12  C   UNL     1      -3.173   1.475  24.053  0.00  0.00    +0.079 C 
ATOM     13  C   UNL     1      -3.219   1.957  23.384  0.00  0.00    +0.010 C 
BRANCH  12  10
ATOM      5  N   UNL     1      -3.918   2.240  25.003  0.00  0.00    -0.274 N 
ATOM     10  C   UNL     1      -3.757   1.520  24.634  0.00  0.00    +0.225 C 
ATOM     11  O   UNL     1      -4.180   0.844  24.846  0.00  0.00    -0.275 OA
BRANCH   5   4
ATOM      4  C   UNL     1      -4.503   2.284  25.583  0.00  0.00    +0.125 C 
BRANCH   4   3
ATOM      3  C   UNL     1      -5.290   2.398  25.367  0.00  0.00    +0.164 C 
BRANCH   3   2
ATOM      1  C   UNL     1      -6.561   2.191  25.987  0.00  0.00    +0.174 C 
ATOM      2  O   UNL     1      -5.850   2.605  25.937  0.00  0.00    -0.349 OA
ENDBRANCH   3   2
ENDBRANCH   4   3
ENDBRANCH   5   4
BRANCH   5   6
ATOM      6  C   UNL     1      -3.495   2.916  24.791  0.00  0.00    +0.125 C 
BRANCH   6   7
ATOM      7  C   UNL     1      -3.349   3.503  25.351  0.00  0.00    +0.164 C 
BRANCH   7   8
ATOM      8  O   UNL     1      -2.947   4.191  25.134  0.00  0.00    -0.349 OA
ATOM      9  C   UNL     1      -2.452   4.569  25.675  0.00  0.00    +0.174 C 
ENDBRANCH   7   8
ENDBRANCH   6   7
ENDBRANCH   5   6
ENDBRANCH  12  10
ENDBRANCH  14  12
TORSDOF 10
ENDMDL
MODEL 3
REMARK VINA RESULT:      -8.4      1.216      5.785
REMARK  Name = 
REMARK  10 active torsions:
REMARK  status: ('A' for Active; 'I' for Inactive)
REMARK    1  A    between atoms: O_2  and  C_3
REMARK    2  A    between atoms: C_3  and  C_4
REMARK    3  A    between atoms: C_4  and  N_5
REMARK    4  A    between atoms: N_5  and  C_6
REMARK    5  A    between atoms: C_6  and  C_7
REMARK    6  A    between atoms: C_7  and  O_8
REMARK    7  A    between atoms: C_10  and  C_12
REMARK    8  A    between atoms: C_12  and  C_14
REMARK    9  A    between atoms: C_21  and  N_22
REMARK   10  A    between atoms: C_23  and  C_25
REMARK                            x       y       z     vdW  Elec       q    Type
REMARK                         _______ _______ _______ _____ _____    ______ ____
ROOT
ATOM     14  C   UNL     1      -3.750   2.676  24.344  0.00  0.00    +0.039 C 
ATOM     15  C   UNL     1      -4.354   2.835  24.882  0.00  0.00    +0.003 C 
ATOM     16  C   UNL     1      -4.814   2.219  25.180  0.00  0.00    +0.000 C 
ATOM     17  C   UNL     1      -4.670   1.443  24.940  0.00  0.00    +0.002 C 
ATOM     18  C   UNL     1      -5.275   1.602  25.478  0.00  0.00    +0.000 C 
ATOM     19  C   UNL     1      -5.131   0.826  25.238  0.00  0.00    +0.002 C 
ATOM     20  C   UNL     1      -4.986   0.050  24.997  0.00  0.00    +0.022 C 
ATOM     21  C   UNL     1      -4.383  -0.109  24.459  0.00  0.00    +0.095 C 
ATOM     31  C   UNL     1      -3.922   0.508  24.161  0.00  0.00    +0.022 C 
ATOM     32  C   UNL     1      -3.317   0.348  23.622  0.00  0.00    +0.002 C 
ATOM     33  C   UNL     1      -4.066   1.283  24.401  0.00  0.00    +0.032 C 
ATOM     34  C   UNL     1      -3.606   1.900  24.103  0.00  0.00    +0.152 C 
ATOM     35  O   UNL     1      -3.001   1.741  23.565  0.00  0.00    -0.223 OA
ENDROOT
BRANCH  21  22
ATOM     22  N   UNL     1      -4.238  -0.885  24.218  0.00  0.00    -0.207 NA
ATOM     23  C   UNL     1      -3.996  -1.449  24.769  0.00  0.00    +0.241 C 
ATOM     24  O   UNL     1      -3.898  -1.237  25.561  0.00  0.00    -0.273 OA
BRANCH  23  25
ATOM     25  C   UNL     1      -3.851  -2.225  24.529  0.00  0.00    +0.078 C 
ATOM     26  C   UNL     1      -3.244  -2.658  24.879  0.00  0.00    +0.009 C 
ATOM     27  C   UNL     1      -3.099  -3.435  24.639  0.00  0.00    +0.000 C 
ATOM     28  C   UNL     1      -3.563  -3.776  24.048  0.00  0.00    +0.000 C 
ATOM     29  C   UNL     1      -4.170  -3.343  23.698  0.00  0.00    +0.000 C 
ATOM     30  C   UNL     1      -4.315  -2.567  23.938  0.00  0.00    +0.009 C 
ENDBRANCH  23  25
ENDBRANCH  21  22
BRANCH  14  12
ATOM     12  C   UNL     1      -3.290   3.292  24.047  0.00  0.00    +0.079 C 
ATOM     13  C   UNL     1      -3.139   3.341  23.236  0.00  0.00    +0.010 C 
BRANCH  12  10
ATOM      5  N   UNL     1      -2.165   3.907  24.678  0.00  0.00    -0.274 N 
ATOM     10  C   UNL     1      -2.980   3.860  24.558  0.00  0.00    +0.225 C 
ATOM     11  O   UNL     1      -3.486   4.382  24.949  0.00  0.00    -0.275 OA
BRANCH   5   4
ATOM      4  C   UNL     1      -1.856   4.476  25.190  0.00  0.00    +0.125 C 
BRANCH   4   3
ATOM      3  C   UNL     1      -1.694   5.236  24.911  0.00  0.00    +0.164 C 
BRANCH   3   2
ATOM      1  C   UNL     1      -0.800   6.351  24.892  0.00  0.00    +0.174 C 
ATOM      2  O   UNL     1      -1.120   5.698  25.282  0.00  0.00    -0.349 OA
ENDBRANCH   3   2
ENDBRANCH   4   3
ENDBRANCH   5   4
BRANCH   5   6
ATOM      6  C   UNL     1      -1.660   3.386  24.287  0.00  0.00    +0.125 C 
BRANCH   6   7
ATOM      7  C   UNL     1      -0.925   3.201  24.613  0.00  0.00    +0.164 C 
BRANCH   7   8
ATOM      8  O   UNL     1      -0.372   2.776  24.171  0.00  0.00    -0.349 OA
ATOM      9  C   UNL     1       0.153   2.265  24.549  0.00  0.00    +0.174 C 
ENDBRANCH   7   8
ENDBRANCH   6   7
ENDBRANCH   5   6
ENDBRANCH  12  10
ENDBRANCH  14  12
TORSDOF 10
ENDMDL
MODEL 4
REMARK VINA RESULT:      -8.2      2.723      5.230
REMARK  Name = 
REMARK  10 active torsions:
REMARK  status: ('A' for Active; 'I' for Inactive)
REMARK    1  A    between atoms: O_2  and  C_3
REMARK    2  A    between atoms: C_3  and  C_4
REMARK    3  A    between atoms: C_4  and  N_5
REMARK    4  A    between atoms: N_5  and  C_6
REMARK    5  A    between atoms: C_6  and  C_7
REMARK    6  A    between atoms: C_7  and  O_8
REMARK    7  A    between atoms: C_10  and  C_12
REMARK    8  A    between atoms: C_12  and  C_14
REMARK    9  A    between atoms: C_21  and  N_22
REMARK   10  A    between atoms: C_23  and  C_25
REMARK                            x       y       z     vdW  Elec       q    Type
REMARK                         _______ _______ _______ _____ _____    ______ ____
ROOT
ATOM     14  C   UNL     1      -2.733   1.669  24.406  0.00  0.00    +0.039 C 
ATOM     15  C   UNL     1      -2.856   1.064  24.953  0.00  0.00    +0.003 C 
ATOM     16  C   UNL     1      -2.252   0.527  25.116  0.00  0.00    +0.000 C 
ATOM     17  C   UNL     1      -1.525   0.594  24.733  0.00  0.00    +0.002 C 
ATOM     18  C   UNL     1      -1.648  -0.011  25.280  0.00  0.00    +0.000 C 
ATOM     19  C   UNL     1      -0.921   0.055  24.896  0.00  0.00    +0.002 C 
ATOM     20  C   UNL     1      -0.194   0.123  24.512  0.00  0.00    +0.022 C 
ATOM     21  C   UNL     1      -0.070   0.727  23.965  0.00  0.00    +0.095 C 
ATOM     31  C   UNL     1      -0.675   1.266  23.802  0.00  0.00    +0.022 C 
ATOM     32  C   UNL     1      -0.551   1.871  23.254  0.00  0.00    +0.002 C 
ATOM     33  C   UNL     1      -1.401   1.199  24.185  0.00  0.00    +0.032 C 
ATOM     34  C   UNL     1      -2.005   1.736  24.022  0.00  0.00    +0.152 C 
ATOM     35  O   UNL     1      -1.883   2.341  23.475  0.00  0.00    -0.223 OA
ENDROOT
BRANCH  21  22
ATOM     22  N   UNL     1       0.657   0.795  23.581  0.00  0.00    -0.207 NA
ATOM     23  C   UNL     1       1.041   0.119  23.305  0.00  0.00    +0.241 C 
ATOM     24  O   UNL     1       0.699  -0.624  23.413  0.00  0.00    -0.273 OA
BRANCH  23  25
ATOM     25  C   UNL     1       1.768   0.186  22.921  0.00  0.00    +0.078 C 
ATOM     26  C   UNL     1       1.870  -0.142  22.172  0.00  0.00    +0.009 C 
ATOM     27  C   UNL     1       2.598  -0.076  21.787  0.00  0.00    +0.000 C 
ATOM     28  C   UNL     1       3.223   0.319  22.154  0.00  0.00    +0.000 C 
ATOM     29  C   UNL     1       3.120   0.647  22.903  0.00  0.00    +0.000 C 
ATOM     30  C   UNL     1       2.394   0.581  23.287  0.00  0.00    +0.009 C 
ENDBRANCH  23  25
ENDBRANCH  21  22
BRANCH  14  12
ATOM     12  C   UNL     1      -3.336   2.207  24.242  0.00  0.00    +0.079 C 
ATOM     13  C   UNL     1      -3.678   2.228  23.491  0.00  0.00    +0.010 C 
BRANCH  12  10
ATOM      5  N   UNL     1      -4.404   2.772  25.006  0.00  0.00    -0.274 N 
ATOM     10  C   UNL     1      -3.600   2.723  24.829  0.00  0.00    +0.225 C 
ATOM     11  O   UNL     1      -3.058   3.191  25.240  0.00  0.00    -0.275 OA
BRANCH   5   4
ATOM      4  C   UNL     1      -4.666   3.289  25.593  0.00  0.00    +0.125 C 
BRANCH   4   3
ATOM      3  C   UNL     1      -5.028   4.000  25.384  0.00  0.00    +0.164 C 
BRANCH   3   2
ATOM      1  C   UNL     1      -5.923   5.062  25.722  0.00  0.00    +0.174 C 
ATOM      2  O   UNL     1      -5.431   4.441  25.953  0.00  0.00    -0.349 OA
ENDBRANCH   3   2
ENDBRANCH   4   3
ENDBRANCH   5   4
BRANCH   5   6
ATOM      6  C   UNL     1      -4.945   2.305  24.595  0.00  0.00    +0.125 C 
BRANCH   6   7
ATOM      7  C   UNL     1      -5.615   2.015  24.979  0.00  0.00    +0.164 C 
BRANCH   7   8
ATOM      8  O   UNL     1      -6.195   1.612  24.552  0.00  0.00    -0.349 OA
ATOM      9  C   UNL     1      -6.821   1.248  24.947  0.00  0.00    +0.174 C 
ENDBRANCH   7   8
ENDBRANCH   6   7
ENDBRANCH   5   6
ENDBRANCH  12  10
ENDBRANCH  14  12
TORSDOF 10
ENDMDL
MODEL 5
REMARK VINA RESULT:      -7.9      2.236      4.450
REMARK  Name = 
REMARK  10 active torsions:
REMARK  status: ('A' for Active; 'I' for Inactive)
REMARK    1  A    between atoms: O_2  and  C_3
REMARK    2  A    between atoms: C_3  and  C_4
REMARK    3  A    between atoms: C_4  and  N_5
REMARK    4  A    between atoms: N_5  and  C_6
REMARK    5  A    between atoms: C_6  and  C_7
REMARK    6  A    between atoms: C_7  and  O_8
REMARK    7  A    between atoms: C_10  and  C_12
REMARK    8  A    between atoms: C_12  and  C_14
REMARK    9  A    between atoms: C_21  and  N_22
REMARK   10  A    between atoms: C_23  and  C_25
REMARK                            x       y       z     vdW  Elec       q    Type
REMARK                         _______ _______ _______ _____ _____    ______ ____
ROOT
ATOM     14  C   UNL     1      -1.434  -0.869  24.525  0.00  0.00    +0.039 C 
ATOM     15  C   UNL     1      -1.780  -1.530  24.173  0.00  0.00    +0.003 C 
ATOM     16  C   UNL     1      -2.601  -1.604  24.151  0.00  0.00    +0.000 C 
ATOM     17  C   UNL     1      -3.077  -1.018  24.482  0.00  0.00    +0.002 C 
ATOM     18  C   UNL     1      -3.423  -1.678  24.130  0.00  0.00    +0.000 C 
ATOM     19  C   UNL     1      -3.899  -1.092  24.461  0.00  0.00    +0.002 C 
ATOM     20  C   UNL     1      -4.375  -0.505  24.792  0.00  0.00    +0.022 C 
ATOM     21  C   UNL     1      -4.030   0.156  25.145  0.00  0.00    +0.095 C 
ATOM     31  C   UNL     1      -3.208   0.230  25.166  0.00  0.00    +0.022 C 
ATOM     32  C   UNL     1      -2.863   0.892  25.519  0.00  0.00    +0.002 C 
ATOM     33  C   UNL     1      -2.732  -0.356  24.835  0.00  0.00    +0.032 C 
ATOM     34  C   UNL     1      -1.911  -0.282  24.856  0.00  0.00    +0.152 C 
ATOM     35  O   UNL     1      -1.565   0.379  25.209  0.00  0.00    -0.223 OA
ENDROOT
BRANCH  21  22
ATOM     22  N   UNL     1      -4.506   0.743  25.476  0.00  0.00    -0.207 NA
ATOM     23  C   UNL     1      -4.969   1.221  24.989  0.00  0.00    +0.241 C 
ATOM     24  O   UNL     1      -4.957   1.112  24.171  0.00  0.00    -0.273 OA
BRANCH  23  25
ATOM     25  C   UNL     1      -5.445   1.809  25.319  0.00  0.00    +0.078 C 
ATOM     26  C   UNL     1      -6.081   1.602  25.800  0.00  0.00    +0.009 C 
ATOM     27  C   UNL     1      -6.558   2.190  26.131  0.00  0.00    +0.000 C 
ATOM     28  C   UNL     1      -6.396   2.985  25.978  0.00  0.00    +0.000 C 
ATOM     29  C   UNL     1      -5.760   3.191  25.497  0.00  0.00    +0.000 C 
ATOM     30  C   UNL     1      -5.284   2.604  25.167  0.00  0.00    +0.009 C 
ENDBRANCH  23  25
ENDBRANCH  21  22
BRANCH  14  12
ATOM     12  C   UNL     1      -0.614  -0.794  24.546  0.00  0.00    +0.079 C 
ATOM     13  C   UNL     1      -0.221  -0.760  25.272  0.00  0.00    +0.010 C 
BRANCH  12  10
ATOM      5  N   UNL     1       0.294  -0.100  23.688  0.00  0.00    -0.274 N 
ATOM     10  C   UNL     1      -0.185  -0.754  23.843  0.00  0.00    +0.225 C 
ATOM     11  O   UNL     1      -0.233  -1.369  23.295  0.00  0.00    -0.275 OA
BRANCH   5   4
ATOM      4  C   UNL     1       0.723  -0.060  22.984  0.00  0.00    +0.125 C 
BRANCH   4   3
ATOM      3  C   UNL     1       1.536  -0.199  22.990  0.00  0.00    +0.164 C 
BRANCH   3   2
ATOM      1  C   UNL     1       2.784  -0.023  22.317  0.00  0.00    +0.174 C 
ATOM      2  O   UNL     1       1.969  -0.144  22.290  0.00  0.00    -0.349 OA
ENDBRANCH   3   2
ENDBRANCH   4   3
ENDBRANCH   5   4
BRANCH   5   6
ATOM      6  C   UNL     1       0.342   0.514  24.236  0.00  0.00    +0.125 C 
BRANCH   6   7
ATOM      7  C   UNL     1       0.473   1.287  23.979  0.00  0.00    +0.164 C 
BRANCH   7   8
ATOM      8  O   UNL     1       0.659   1.878  24.525  0.00  0.00    -0.349 OA
ATOM      9  C   UNL     1       0.385   2.648  24.409  0.00  0.00    +0.174 C 
ENDBRANCH   7   8
ENDBRANCH   6   7
ENDBRANCH   5   6
ENDBRANCH  12  10
ENDBRANCH  14  12
TORSDOF 10
ENDMDL
MODEL 6
REMARK VINA RESULT:      -7.7      2.186      4.044
REMARK  Name = 
REMARK  10 active torsions:
REMARK  status: ('A' for Active; 'I' for Inactive)
REMARK    1  A    between atoms: O_2  and  C_3
REMARK    2  A    between atoms: C_3  and  C_4
REMARK    3  A    between atoms: C_4  and  N_5
REMARK    4  A    between atoms: N_5  and  C_6
REMARK    5  A    between atoms: C_6  and  C_7
REMARK    6  A    between atoms: C_7  and  O_8
REMARK    7  A    between atoms: C_10  and  C_12
REMARK    8  A    between atoms: C_12  and  C_14
REMARK    9  A    between atoms: C_21  and  N_22
REMARK   10  A    between atoms: C_23  and  C_25
REMARK                            x       y       z     vdW  Elec       q    Type
REMARK                         _______ _______ _______ _____ _____    ______ ____
ROOT
ATOM     14  C   UNL     1      -0.570   1.715  24.947  0.00  0.00    +0.039 C 
ATOM     15  C   UNL     1      -0.088   2.355  25.142  0.00  0.00    +0.003 C 
ATOM     16  C   UNL     1      -0.422   3.096  25.281  0.00  0.00    +0.000 C 
ATOM     17  C   UNL     1      -1.238   3.197  25.226  0.00  0.00    +0.002 C 
ATOM     18  C   UNL     1      -0.756   3.838  25.421  0.00  0.00    +0.000 C 
ATOM     19  C   UNL     1      -1.573   3.940  25.366  0.00  0.00    +0.002 C 
ATOM     20  C   UNL     1      -2.390   4.040  25.311  0.00  0.00    +0.022 C 
ATOM     21  C   UNL     1      -2.873   3.401  25.117  0.00  0.00    +0.095 C 
ATOM     31  C   UNL     1      -2.538   2.659  24.977  0.00  0.00    +0.022 C 
ATOM     32  C   UNL     1      -3.022   2.019  24.783  0.00  0.00    +0.002 C 
ATOM     33  C   UNL     1      -1.722   2.558  25.032  0.00  0.00    +0.032 C 
ATOM     34  C   UNL     1      -1.388   1.816  24.893  0.00  0.00    +0.152 C 
ATOM     35  O   UNL     1      -1.870   1.176  24.698  0.00  0.00    -0.223 OA
ENDROOT
BRANCH  21  22
ATOM     22  N   UNL     1      -3.690   3.502  25.062  0.00  0.00    -0.207 NA
ATOM     23  C   UNL     1      -4.121   3.742  25.723  0.00  0.00    +0.241 C 
ATOM     24  O   UNL     1      -3.734   3.882  26.439  0.00  0.00    -0.273 OA
BRANCH  23  25
ATOM     25  C   UNL     1      -4.938   3.843  25.669  0.00  0.00    +0.078 C 
ATOM     26  C   UNL     1      -5.251   4.584  25.491  0.00  0.00    +0.009 C 
ATOM     27  C   UNL     1      -6.069   4.685  25.438  0.00  0.00    +0.000 C 
ATOM     28  C   UNL     1      -6.572   4.043  25.562  0.00  0.00    +0.000 C 
ATOM     29  C   UNL     1      -6.258   3.302  25.740  0.00  0.00    +0.000 C 
ATOM     30  C   UNL     1      -5.441   3.201  25.794  0.00  0.00    +0.009 C 
ENDBRANCH  23  25
ENDBRANCH  21  22
BRANCH  14  12
ATOM     12  C   UNL     1      -0.237   0.974  24.808  0.00  0.00    +0.079 C 
ATOM     13  C   UNL     1      -0.277   0.388  25.388  0.00  0.00    +0.010 C 
BRANCH  12  10
ATOM      5  N   UNL     1       0.206   0.042  23.819  0.00  0.00    -0.274 N 
ATOM     10  C   UNL     1       0.138   0.818  24.090  0.00  0.00    +0.225 C 
ATOM     11  O   UNL     1       0.444   1.440  23.641  0.00  0.00    -0.275 OA
BRANCH   5   4
ATOM      4  C   UNL     1       0.581  -0.113  23.101  0.00  0.00    +0.125 C 
BRANCH   4   3
ATOM      3  C   UNL     1       1.404  -0.131  23.061  0.00  0.00    +0.164 C 
BRANCH   3   2
ATOM      1  C   UNL     1       2.606  -0.125  22.287  0.00  0.00    +0.174 C 
ATOM      2  O   UNL     1       1.782  -0.156  22.329  0.00  0.00    -0.349 OA
ENDBRANCH   3   2
ENDBRANCH   4   3
ENDBRANCH   5   4
BRANCH   5   6
ATOM      6  C   UNL     1      -0.100  -0.579  24.267  0.00  0.00    +0.125 C 
BRANCH   6   7
ATOM      7  C   UNL     1      -0.464  -1.217  23.893  0.00  0.00    +0.164 C 
BRANCH   7   8
ATOM      8  O   UNL     1      -0.738  -1.856  24.338  0.00  0.00    -0.349 OA
ATOM      9  C   UNL     1      -1.372  -2.308  24.065  0.00  0.00    +0.174 C 
ENDBRANCH   7   8
ENDBRANCH   6   7
ENDBRANCH   5   6
ENDBRANCH  12  10
ENDBRANCH  14  12
TORSDOF 10
ENDMDL
