MODEL 1
REMARK VINA RESULT:     -13.2      0.000      0.000
REMARK  Name = 
REMARK  8 active torsions:
REMARK  status: ('A' for Active; 'I' for Inactive)
REMARK    1  A    between atoms: C_2  and  C_4
REMARK    2  A    between atoms: C_7  and  N_8
REMARK    3  A    between atoms: C_9  and  O_11
REMARK    4  A    between atoms: O_11  and  C_12
REMARK    5  A    between atoms: C_16  and  N_20
REMARK    6  A    between atoms: C_24  and  C_25
REMARK    7  A    between atoms: C_28  and  C_29
REMARK    8  A    between atoms: C_29  and  N_30
REMARK                            x       y       z     vdW  Elec       q    Type
REMARK                         _______ _______ _______ _____ _____    ______ ____
ROOT
ATOM     12  C   UNL     1      -0.598   1.307  25.073  0.00  0.00    +0.229 C 
ATOM     13  C   UNL     1      -0.348   1.576  24.334  0.00  0.00    +0.188 C 
ATOM     14  O   UNL     1      -0.438   2.396  24.319  0.00  0.00    -0.348 OA
ATOM     15  C   UNL     1      -0.743   2.633  25.046  0.00  0.00    +0.171 C 
ATOM     16  C   UNL     1      -0.988   3.286  25.487  0.00  0.00    +0.167 C 
ATOM     17  C   UNL     1      -1.238   3.017  26.226  0.00  0.00    +0.169 C 
ATOM     18  O   UNL     1      -1.148   2.198  26.241  0.00  0.00    -0.348 OA
ATOM     19  C   UNL     1      -0.843   1.960  25.513  0.00  0.00    +0.187 C 
ENDROOT
BRANCH  16  20
ATOM     20  N   UNL     1      -0.983   4.072  25.233  0.00  0.00    -0.210 N 
ATOM     21  N   UNL     1      -0.313   4.535  25.103  0.00  0.00    -0.043 NA
ATOM     22  N   UNL     1      -0.563   5.281  24.855  0.00  0.00    -0.023 NA
ATOM     23  N   UNL     1      -1.387   5.278  24.831  0.00  0.00    -0.108 NA
ATOM     24  C   UNL     1      -1.647   4.531  25.065  0.00  0.00    +0.184 A 
BRANCH  24  25
ATOM     25  C   UNL     1      -2.433   4.286  25.122  0.00  0.00    +0.037 A 
ATOM     26  C   UNL     1      -2.806   4.261  25.858  0.00  0.00    +0.003 A 
ATOM     27  C   UNL     1      -3.591   4.016  25.913  0.00  0.00    -0.003 A 
ATOM     28  C   UNL     1      -4.005   3.797  25.233  0.00  0.00    -0.006 A 
ATOM     36  C   UNL     1      -3.632   3.823  24.498  0.00  0.00    -0.003 A 
ATOM     37  C   UNL     1      -2.846   4.067  24.442  0.00  0.00    +0.003 A 
BRANCH  28  29
ATOM     29  C   UNL     1      -4.791   3.552  25.289  0.00  0.00    +0.099 C 
BRANCH  29  30
ATOM     30  N   UNL     1      -4.974   2.748  25.271  0.00  0.00    -0.265 NA
ATOM     31  C   UNL     1      -4.750   2.288  24.624  0.00  0.00    +0.105 C 
ATOM     32  C   UNL     1      -4.934   1.484  24.606  0.00  0.00    +0.159 C 
ATOM     33  O   UNL     1      -5.341   1.140  25.235  0.00  0.00    -0.351 OA
ATOM     34  C   UNL     1      -5.565   1.600  25.882  0.00  0.00    +0.159 C 
ATOM     35  C   UNL     1      -5.382   2.404  25.900  0.00  0.00    +0.105 C 
ENDBRANCH  29  30
ENDBRANCH  28  29
ENDBRANCH  24  25
ENDBRANCH  16  20
BRANCH  12  11
ATOM     11  O   UNL     1      -0.603   0.522  25.327  0.00  0.00    -0.432 OA
BRANCH  11   9
ATOM      8  N   UNL     1      -1.419  -0.639  25.503  0.00  0.00    -0.142 NA
ATOM      9  C   UNL     1      -1.175  -0.001  25.041  0.00  0.00    +0.425 C 
ATOM     10  O   UNL     1      -1.501   0.115  24.292  0.00  0.00    -0.224 OA
BRANCH   8   7
ATOM      4  C   UNL     1      -3.131  -2.207  24.646  0.00  0.00    +0.035 A 
ATOM      5  C   UNL     1      -2.348  -2.273  24.394  0.00  0.00    +0.004 A 
ATOM      6  C   UNL     1      -1.778  -1.750  24.680  0.00  0.00    +0.017 A 
ATOM      7  C   UNL     1      -1.990  -1.161  25.218  0.00  0.00    +0.077 A 
ATOM     38  C   UNL     1      -2.772  -1.095  25.469  0.00  0.00    +0.017 A 
ATOM     39  C   UNL     1      -3.343  -1.618  25.184  0.00  0.00    +0.004 A 
BRANCH   4   2
ATOM      1  C   UNL     1      -4.289  -2.459  23.847  0.00  0.00    +0.077 C 
ATOM      2  C   UNL     1      -3.702  -2.730  24.360  0.00  0.00    +0.173 C 
ATOM      3  O   UNL     1      -3.686  -3.523  24.587  0.00  0.00    -0.291 OA
ENDBRANCH   4   2
ENDBRANCH   8   7
ENDBRANCH  11   9
ENDBRANCH  12  11
TORSDOF 8
ENDMDL
MODEL 2
REMARK VINA RESULT:     -12.8      1.262      3.220
REMARK  Name = 
REMARK  8 active torsions:
REMARK  status: ('A' for Active; 'I' for Inactive)
REMARK    1  A    between atoms: C_2  and  C_4
REMARK    2  A    between atoms: C_7  and  N_8
REMARK    3  A    between atoms: C_9  and  O_11
REMARK    4  A    between atoms: O_11  and  C_12
REMARK    5  A    between atoms: C_16  and  N_20
REMARK    6  A    between atoms: C_24  and  C_25
REMARK    7  A    between atoms: C_28  and  C_29
REMARK    8  A    between atoms: C_29  and  N_30
REMARK                            x       y       z     vdW  Elec       q    Type
REMARK                         _______ _______ _______ _____ _____    ______ ____
ROOT
ATOM     12  C   UNL     1      -4.028   2.691  24.692  0.00  0.00    +0.229 C 
ATOM     13  C   UNL     1      -3.956   3.101  23.981  0.00  0.00    +0.188 C 
ATOM     14  O   UNL     1      -3.375   3.679  24.078  0.00  0.00    -0.348 OA
ATOM     15  C   UNL     1      -3.089   3.626  24.849  0.00  0.00    +0.171 C 
ATOM     16  C   UNL     1      -2.553   3.949  25.387  0.00  0.00    +0.167 C 
ATOM     17  C   UNL     1      -2.626   3.539  26.099  0.00  0.00    +0.169 C 
ATOM     18  O   UNL     1      -3.206   2.962  26.001  0.00  0.00    -0.348 OA
ATOM     19  C   UNL     1      -3.493   3.015  25.229  0.00  0.00    +0.187 C 
ENDROOT
BRANCH  16  20
ATOM     20  N   UNL     1      -2.035   4.575  25.238  0.00  0.00    -0.210 N 
ATOM     21  N   UNL     1      -2.230   5.377  25.240  0.00  0.00    -0.043 NA
ATOM     22  N   UNL     1      -1.547   5.805  25.065  0.00  0.00    -0.023 NA
ATOM     23  N   UNL     1      -0.931   5.268  24.954  0.00  0.00    -0.108 NA
ATOM     24  C   UNL     1      -1.233   4.508  25.062  0.00  0.00    +0.184 A 
BRANCH  24  25
ATOM     25  C   UNL     1      -0.806   3.804  25.002  0.00  0.00    +0.037 A 
ATOM     26  C   UNL     1      -0.559   3.412  25.686  0.00  0.00    +0.003 A 
ATOM     27  C   UNL     1      -0.132   2.709  25.626  0.00  0.00    -0.003 A 
ATOM     28  C   UNL     1       0.047   2.397  24.884  0.00  0.00    -0.006 A 
ATOM     36  C   UNL     1      -0.200   2.788  24.201  0.00  0.00    -0.003 A 
ATOM     37  C   UNL     1      -0.626   3.492  24.261  0.00  0.00    +0.003 A 
BRANCH  28  29
ATOM     29  C   UNL     1       0.474   1.693  24.824  0.00  0.00    +0.099 C 
BRANCH  29  30
ATOM     30  N   UNL     1       0.089   0.994  24.612  0.00  0.00    -0.265 NA
ATOM     31  C   UNL     1       0.136   0.717  23.837  0.00  0.00    +0.105 C 
ATOM     32  C   UNL     1      -0.249   0.018  23.625  0.00  0.00    +0.159 C 
ATOM     33  O   UNL     1      -0.680  -0.402  24.189  0.00  0.00    -0.351 OA
ATOM     34  C   UNL     1      -0.727  -0.124  24.964  0.00  0.00    +0.159 C 
ATOM     35  C   UNL     1      -0.342   0.574  25.176  0.00  0.00    +0.105 C 
ENDBRANCH  29  30
ENDBRANCH  28  29
ENDBRANCH  24  25
ENDBRANCH  16  20
BRANCH  12  11
ATOM     11  O   UNL     1      -4.546   2.066  24.841  0.00  0.00    -0.432 OA
BRANCH  11   9
ATOM      8  N   UNL     1      -4.616   0.660  25.088  0.00  0.00    -0.142 NA
ATOM      9  C   UNL     1      -4.328   1.294  24.646  0.00  0.00    +0.425 C 
ATOM     10  O   UNL     1      -3.822   1.158  24.008  0.00  0.00    -0.224 OA
BRANCH   8   7
ATOM      4  C   UNL     1      -3.963  -1.655  24.503  0.00  0.00    +0.035 A 
ATOM      5  C   UNL     1      -3.793  -1.355  25.253  0.00  0.00    +0.004 A 
ATOM      6  C   UNL     1      -4.011  -0.583  25.447  0.00  0.00    +0.017 A 
ATOM      7  C   UNL     1      -4.398  -0.112  24.892  0.00  0.00    +0.077 A 
ATOM     38  C   UNL     1      -4.568  -0.412  24.144  0.00  0.00    +0.017 A 
ATOM     39  C   UNL     1      -4.350  -1.183  23.948  0.00  0.00    +0.004 A 
BRANCH   4   2
ATOM      1  C   UNL     1      -3.120  -2.791  24.707  0.00  0.00    +0.077 C 
ATOM      2  C   UNL     1      -3.745  -2.426  24.309  0.00  0.00    +0.173 C 
ATOM      3  O   UNL     1      -4.151  -2.834  23.717  0.00  0.00    -0.291 OA
ENDBRANCH   4   2
ENDBRANCH   8   7
ENDBRANCH  11   9
ENDBRANCH  12  11
TORSDOF 8
ENDMDL
MODEL 3
REMARK VINA RESULT:     -12.3      1.541      5.004
REMARK  Name = 
REMARK  8 active torsions:
REMARK  status: ('A' for Active; 'I' for Inactive)
REMARK    1  A    between atoms: C_2  and  C_4
REMARK    2  A    between atoms: C_7  and  N_8
REMARK    3  A    between atoms: C_9  and  O_11
REMARK    4  A    between atoms: O_11  and  C_12
REMARK    5  A    between atoms: C_16  and  N_20
REMARK    6  A    between atoms: C_24  and  C_25
REMARK    7  A    between atoms: C_28  and  C_29
REMARK    8  A    between atoms: C_29  and  N_30
REMARK                            x       y       z     vdW  Elec       q    Type
REMARK                         _______ _______ _______ _____ _____    ______ ____
ROOT
ATOM     12  C   UNL     1      -0.402   0.129  24.660  0.00  0.00    +0.229 C 
ATOM     13  C   UNL     1      -0.378  -0.204  23.906  0.00  0.00    +0.188 C 
ATOM     14  O   UNL     1      -0.918  -0.827  23.886  0.00  0.00    -0.348 OA
ATOM     15  C   UNL     1      -1.275  -0.880  24.626  0.00  0.00    +0.171 C 
ATOM     16  C   UNL     1      -1.830  -1.296  25.073  0.00  0.00    +0.167 C 
ATOM     17  C   UNL     1      -1.854  -0.963  25.827  0.00  0.00    +0.169 C 
ATOM     18  O   UNL     1      -1.314  -0.340  25.847  0.00  0.00    -0.348 OA
ATOM     19  C   UNL     1      -0.956  -0.289  25.105  0.00  0.00    +0.187 C 
ENDROOT
BRANCH  16  20
ATOM     20  N   UNL     1      -2.282  -1.935  24.810  0.00  0.00    -0.210 N 
ATOM     21  N   UNL     1      -2.011  -2.706  24.694  0.00  0.00    -0.043 NA
ATOM     22  N   UNL     1      -2.646  -3.162  24.430  0.00  0.00    -0.023 NA
ATOM     23  N   UNL     1      -3.308  -2.674  24.382  0.00  0.00    -0.108 NA
ATOM     24  C   UNL     1      -3.083  -1.915  24.617  0.00  0.00    +0.184 A 
BRANCH  24  25
ATOM     25  C   UNL     1      -3.575  -1.253  24.653  0.00  0.00    +0.037 A 
ATOM     26  C   UNL     1      -3.832  -0.969  25.385  0.00  0.00    +0.003 A 
ATOM     27  C   UNL     1      -4.323  -0.307  25.420  0.00  0.00    -0.003 A 
ATOM     28  C   UNL     1      -4.557   0.071  24.725  0.00  0.00    -0.006 A 
ATOM     36  C   UNL     1      -4.300  -0.214  23.994  0.00  0.00    -0.003 A 
ATOM     37  C   UNL     1      -3.809  -0.876  23.959  0.00  0.00    +0.003 A 
BRANCH  28  29
ATOM     29  C   UNL     1      -5.048   0.732  24.760  0.00  0.00    +0.099 C 
BRANCH  29  30
ATOM     30  N   UNL     1      -4.720   1.490  24.754  0.00  0.00    -0.265 NA
ATOM     31  C   UNL     1      -4.344   1.770  24.076  0.00  0.00    +0.105 C 
ATOM     32  C   UNL     1      -4.016   2.528  24.070  0.00  0.00    +0.159 C 
ATOM     33  O   UNL     1      -4.065   3.004  24.741  0.00  0.00    -0.351 OA
ATOM     34  C   UNL     1      -4.442   2.723  25.419  0.00  0.00    +0.159 C 
ATOM     35  C   UNL     1      -4.770   1.966  25.425  0.00  0.00    +0.105 C 
ENDBRANCH  29  30
ENDBRANCH  28  29
ENDBRANCH  24  25
ENDBRANCH  16  20
BRANCH  12  11
ATOM     11  O   UNL     1       0.050   0.767  24.923  0.00  0.00    -0.432 OA
BRANCH  11   9
ATOM      8  N   UNL     1      -0.053   2.116  25.384  0.00  0.00    -0.142 NA
ATOM      9  C   UNL     1      -0.226   1.538  24.822  0.00  0.00    +0.425 C 
ATOM     10  O   UNL     1      -0.677   1.730  24.157  0.00  0.00    -0.224 OA
BRANCH   8   7
ATOM      4  C   UNL     1      -0.884   4.428  25.082  0.00  0.00    +0.035 A 
ATOM      5  C   UNL     1      -1.130   3.983  25.732  0.00  0.00    +0.004 A 
ATOM      6  C   UNL     1      -0.852   3.212  25.832  0.00  0.00    +0.017 A 
ATOM      7  C   UNL     1      -0.330   2.887  25.283  0.00  0.00    +0.077 A 
ATOM     38  C   UNL     1      -0.085   3.332  24.634  0.00  0.00    +0.017 A 
ATOM     39  C   UNL     1      -0.361   4.102  24.533  0.00  0.00    +0.004 A 
BRANCH   4   2
ATOM      1  C   UNL     1      -1.922   5.398  25.232  0.00  0.00    +0.077 C 
ATOM      2  C   UNL     1      -1.161   5.198  24.982  0.00  0.00    +0.173 C 
ATOM      3  O   UNL     1      -0.679   5.769  24.632  0.00  0.00    -0.291 OA
ENDBRANCH   4   2
ENDBRANCH   8   7
ENDBRANCH  11   9
ENDBRANCH  12  11
TORSDOF 8
ENDMDL
MODEL 4
REMARK VINA RESULT:     -10.6      1.224      3.576
REMARK  Name = 
REMARK  8 active torsions:
REMARK  status: ('A' for Active; 'I' for Inactive)
REMARK    1  A    between atoms: C_2  and  C_4
REMARK    2  A    between atoms: C_7  and  N_8
REMARK    3  A    between atoms: C_9  and  O_11
REMARK    4  A    between atoms: O_11  and  C_12
REMARK    5  A    between atoms: C_16  and  N_20
REMARK    6  A    between atoms: C_24  and  C_25
REMARK    7  A    between atoms: C_28  and  C_29
REMARK    8  A    between atoms: C_29  and  N_30
REMARK                            x       y       z     vdW  Elec       q    Type
REMARK                         _______ _______ _______ _____ _____    ______ ____
ROOT
ATOM     12  C   UNL     1      -4.607   0.627  24.722  0.00  0.00    +0.229 C 
ATOM     13  C   UNL     1      -5.004   0.621  25.445  0.00  0.00    +0.188 C 
ATOM     14  O   UNL     1      -5.159   1.403  25.656  0.00  0.00    -0.348 OA
ATOM     15  C   UNL     1      -4.858   1.892  25.065  0.00  0.00    +0.171 C 
ATOM     16  C   UNL     1      -4.767   2.677  24.829  0.00  0.00    +0.167 C 
ATOM     17  C   UNL     1      -4.370   2.683  24.106  0.00  0.00    +0.169 C 
ATOM     18  O   UNL     1      -4.215   1.901  23.895  0.00  0.00    -0.348 OA
ATOM     19  C   UNL     1      -4.517   1.412  24.487  0.00  0.00    +0.187 C 
ENDROOT
BRANCH  16  20
ATOM     20  N   UNL     1      -5.029   3.341  25.244  0.00  0.00    -0.210 N 
ATOM     21  N   UNL     1      -5.814   3.528  25.416  0.00  0.00    -0.043 NA
ATOM     22  N   UNL     1      -5.821   4.237  25.838  0.00  0.00    -0.023 NA
ATOM     23  N   UNL     1      -5.041   4.488  25.927  0.00  0.00    -0.108 NA
ATOM     24  C   UNL     1      -4.551   3.934  25.560  0.00  0.00    +0.184 A 
BRANCH  24  25
ATOM     25  C   UNL     1      -3.727   3.969  25.517  0.00  0.00    +0.037 A 
ATOM     26  C   UNL     1      -3.270   3.732  26.162  0.00  0.00    +0.003 A 
ATOM     27  C   UNL     1      -2.447   3.767  26.118  0.00  0.00    -0.003 A 
ATOM     28  C   UNL     1      -2.081   4.038  25.429  0.00  0.00    -0.006 A 
ATOM     36  C   UNL     1      -2.539   4.274  24.785  0.00  0.00    -0.003 A 
ATOM     37  C   UNL     1      -3.362   4.240  24.829  0.00  0.00    +0.003 A 
BRANCH  28  29
ATOM     29  C   UNL     1      -1.258   4.072  25.385  0.00  0.00    +0.099 C 
BRANCH  29  30
ATOM     30  N   UNL     1      -0.826   3.390  25.215  0.00  0.00    -0.265 NA
ATOM     31  C   UNL     1      -0.697   3.169  24.431  0.00  0.00    +0.105 C 
ATOM     32  C   UNL     1      -0.264   2.487  24.260  0.00  0.00    +0.159 C 
ATOM     33  O   UNL     1       0.039   2.027  24.874  0.00  0.00    -0.351 OA
ATOM     34  C   UNL     1      -0.089   2.249  25.658  0.00  0.00    +0.159 C 
ATOM     35  C   UNL     1      -0.522   2.931  25.828  0.00  0.00    +0.105 C 
ENDBRANCH  29  30
ENDBRANCH  28  29
ENDBRANCH  24  25
ENDBRANCH  16  20
BRANCH  12  11
ATOM     11  O   UNL     1      -4.346  -0.037  24.307  0.00  0.00    -0.432 OA
BRANCH  11   9
ATOM      8  N   UNL     1      -3.090  -0.681  24.084  0.00  0.00    -0.142 NA
ATOM      9  C   UNL     1      -3.708  -0.476  24.590  0.00  0.00    +0.425 C 
ATOM     10  O   UNL     1      -3.689  -0.711  25.382  0.00  0.00    -0.224 OA
BRANCH   8   7
ATOM      4  C   UNL     1      -1.177  -2.001  24.935  0.00  0.00    +0.035 A 
ATOM      5  C   UNL     1      -1.849  -2.385  24.650  0.00  0.00    +0.004 A 
ATOM      6  C   UNL     1      -2.487  -1.945  24.367  0.00  0.00    +0.017 A 
ATOM      7  C   UNL     1      -2.452  -1.121  24.368  0.00  0.00    +0.077 A 
ATOM     38  C   UNL     1      -1.780  -0.737  24.652  0.00  0.00    +0.017 A 
ATOM     39  C   UNL     1      -1.142  -1.177  24.936  0.00  0.00    +0.004 A 
BRANCH   4   2
ATOM      1  C   UNL     1       0.185  -2.072  25.361  0.00  0.00    +0.077 C 
ATOM      2  C   UNL     1      -0.539  -2.441  25.218  0.00  0.00    +0.173 C 
ATOM      3  O   UNL     1      -0.626  -3.249  25.358  0.00  0.00    -0.291 OA
ENDBRANCH   4   2
ENDBRANCH   8   7
ENDBRANCH  11   9
ENDBRANCH  12  11
TORSDOF 8
ENDMDL
MODEL 5
REMARK VINA RESULT:     -10.3      1.795      6.104
REMARK  Name = 
REMARK  8 active torsions:
REMARK  status: ('A' for Active; 'I' for Inactive)
REMARK    1  A    between atoms: C_2  and  C_4
REMARK    2  A    between atoms: C_7  and  N_8
REMARK    3  A    between atoms: C_9  and  O_11
REMARK    4  A    between atoms: O_11  and  C_12
REMARK    5  A    between atoms: C_16  and  N_20
REMARK    6  A    between atoms: C_24  and  C_25
REMARK    7  A    between atoms: C_28  and  C_29
REMARK    8  A    between atoms: C_29  and  N_30
REMARK                            x       y       z     vdW  Elec       q    Type
REMARK                         _______ _______ _______ _____ _____    ______ ____
ROOT
ATOM     12  C   UNL     1      -4.410   0.688  24.697  0.00  0.00    +0.229 C 
ATOM     13  C   UNL     1      -4.611   0.362  25.428  0.00  0.00    +0.188 C 
ATOM     14  O   UNL     1      -4.440  -0.444  25.402  0.00  0.00    -0.348 OA
ATOM     15  C   UNL     1      -4.134  -0.617  24.657  0.00  0.00    +0.171 C 
ATOM     16  C   UNL     1      -3.839  -1.222  24.179  0.00  0.00    +0.167 C 
ATOM     17  C   UNL     1      -3.639  -0.896  23.448  0.00  0.00    +0.169 C 
ATOM     18  O   UNL     1      -3.809  -0.089  23.474  0.00  0.00    -0.348 OA
ATOM     19  C   UNL     1      -4.116   0.083  24.221  0.00  0.00    +0.187 C 
ENDROOT
BRANCH  16  20
ATOM     20  N   UNL     1      -3.759  -2.014  24.394  0.00  0.00    -0.210 N 
ATOM     21  N   UNL     1      -4.371  -2.567  24.449  0.00  0.00    -0.043 NA
ATOM     22  N   UNL     1      -4.043  -3.287  24.682  0.00  0.00    -0.023 NA
ATOM     23  N   UNL     1      -3.230  -3.180  24.771  0.00  0.00    -0.108 NA
ATOM     24  C   UNL     1      -3.055  -2.394  24.594  0.00  0.00    +0.184 A 
BRANCH  24  25
ATOM     25  C   UNL     1      -2.306  -2.048  24.612  0.00  0.00    +0.037 A 
ATOM     26  C   UNL     1      -2.029  -1.699  25.307  0.00  0.00    +0.003 A 
ATOM     27  C   UNL     1      -1.281  -1.353  25.325  0.00  0.00    -0.003 A 
ATOM     28  C   UNL     1      -0.808  -1.356  24.648  0.00  0.00    -0.006 A 
ATOM     36  C   UNL     1      -1.085  -1.705  23.954  0.00  0.00    -0.003 A 
ATOM     37  C   UNL     1      -1.834  -2.051  23.936  0.00  0.00    +0.003 A 
BRANCH  28  29
ATOM     29  C   UNL     1      -0.059  -1.011  24.666  0.00  0.00    +0.099 C 
BRANCH  29  30
ATOM     30  N   UNL     1       0.061  -0.271  24.322  0.00  0.00    -0.265 NA
ATOM     31  C   UNL     1      -0.196   0.411  24.708  0.00  0.00    +0.105 C 
ATOM     32  C   UNL     1      -0.075   1.151  24.363  0.00  0.00    +0.159 C 
ATOM     33  O   UNL     1       0.303   1.209  23.632  0.00  0.00    -0.351 OA
ATOM     34  C   UNL     1       0.560   0.527  23.246  0.00  0.00    +0.159 C 
ATOM     35  C   UNL     1       0.439  -0.213  23.591  0.00  0.00    +0.105 C 
ENDBRANCH  29  30
ENDBRANCH  28  29
ENDBRANCH  24  25
ENDBRANCH  16  20
BRANCH  12  11
ATOM     11  O   UNL     1      -4.490   1.481  24.482  0.00  0.00    -0.432 OA
BRANCH  11   9
ATOM      8  N   UNL     1      -3.848   2.743  24.295  0.00  0.00    -0.142 NA
ATOM      9  C   UNL     1      -3.913   2.028  24.700  0.00  0.00    +0.425 C 
ATOM     10  O   UNL     1      -3.400   1.859  25.324  0.00  0.00    -0.224 OA
BRANCH   8   7
ATOM      4  C   UNL     1      -2.116   4.386  24.950  0.00  0.00    +0.035 A 
ATOM      5  C   UNL     1      -2.831   4.353  25.363  0.00  0.00    +0.004 A 
ATOM      6  C   UNL     1      -3.407   3.805  25.144  0.00  0.00    +0.017 A 
ATOM      7  C   UNL     1      -3.270   3.291  24.513  0.00  0.00    +0.077 A 
ATOM     38  C   UNL     1      -2.557   3.325  24.102  0.00  0.00    +0.017 A 
ATOM     39  C   UNL     1      -1.980   3.873  24.320  0.00  0.00    +0.004 A 
BRANCH   4   2
ATOM      1  C   UNL     1      -0.740   4.738  25.107  0.00  0.00    +0.077 C 
ATOM      2  C   UNL     1      -1.540   4.934  25.169  0.00  0.00    +0.173 C 
ATOM      3  O   UNL     1      -1.762   5.677  25.451  0.00  0.00    -0.291 OA
ENDBRANCH   4   2
ENDBRANCH   8   7
ENDBRANCH  11   9
ENDBRANCH  12  11
TORSDOF 8
ENDMDL
