MODEL 1
REMARK VINA RESULT:      -8.1      0.000      0.000
REMARK  Name = 
REMARK  6 active torsions:
REMARK  status: ('A' for Active; 'I' for Inactive)
REMARK    1  A    between atoms: O_2  and  C_3
REMARK    2  A    between atoms: C_6  and  C_9
REMARK    3  A    between atoms: N_14  and  C_15
REMARK    4  A    between atoms: C_19  and  O_23
REMARK    5  A    between atoms: O_23  and  C_24
REMARK    6  A    between atoms: C_24  and  C_25
REMARK                            x       y       z     vdW  Elec       q    Type
REMARK                         _______ _______ _______ _____ _____    ______ ____
ROOT
ATOM      9  C   UNL     1      -2.947   2.183  24.538  0.00  0.00    +0.086 A 
ATOM     10  C   UNL     1      -2.742   2.921  24.231  0.00  0.00    +0.040 A 
ATOM     11  C   UNL     1      -1.960   3.077  24.018  0.00  0.00    +0.103 A 
ATOM     12  N   UNL     1      -1.383   2.494  24.111  0.00  0.00    -0.211 NA
ATOM     13  C   UNL     1      -1.589   1.755  24.417  0.00  0.00    +0.237 A 
ATOM     14  N   UNL     1      -1.013   1.173  24.510  0.00  0.00    -0.200 NA
ATOM     30  N   UNL     1      -2.371   1.601  24.630  0.00  0.00    -0.212 NA
ENDROOT
BRANCH  14  15
ATOM     15  C   UNL     1      -0.230   1.328  24.297  0.00  0.00    +0.154 C 
ATOM     16  C   UNL     1       0.215   1.981  24.530  0.00  0.00    +0.166 C 
ATOM     17  O   UNL     1       0.963   1.914  24.190  0.00  0.00    -0.349 OA
ATOM     18  C   UNL     1       0.981   1.219  23.747  0.00  0.00    +0.173 C 
ATOM     19  C   UNL     1       1.453   0.747  23.263  0.00  0.00    +0.175 C 
ATOM     20  C   UNL     1       1.008   0.094  23.029  0.00  0.00    +0.174 C 
ATOM     21  O   UNL     1       0.260   0.161  23.369  0.00  0.00    -0.349 OA
ATOM     22  C   UNL     1       0.243   0.857  23.813  0.00  0.00    +0.167 C 
BRANCH  19  23
ATOM     23  O   UNL     1       2.235   0.902  23.049  0.00  0.00    -0.342 OA
BRANCH  23  24
ATOM     24  C   UNL     1       2.791   0.292  23.045  0.00  0.00    +0.227 C 
BRANCH  24  25
ATOM     25  C   UNL     1       3.588   0.461  22.918  0.00  0.00    +0.256 C 
ATOM     26  O   UNL     1       3.808   1.176  22.570  0.00  0.00    -0.272 OA
ATOM     27  N   UNL     1       4.166  -0.086  23.138  0.00  0.00    -0.274 N 
ATOM     28  C   UNL     1       4.963   0.083  23.011  0.00  0.00    +0.115 C 
ATOM     29  C   UNL     1       3.946  -0.801  23.486  0.00  0.00    +0.115 C 
ENDBRANCH  24  25
ENDBRANCH  23  24
ENDBRANCH  19  23
ENDBRANCH  14  15
BRANCH   9   6
ATOM      3  C   UNL     1      -5.293   1.720  25.177  0.00  0.00    +0.139 A 
ATOM      4  C   UNL     1      -4.833   1.126  24.833  0.00  0.00    +0.037 A 
ATOM      5  C   UNL     1      -4.052   1.281  24.620  0.00  0.00    +0.005 A 
ATOM      6  C   UNL     1      -3.729   2.029  24.751  0.00  0.00    +0.018 A 
ATOM      7  C   UNL     1      -4.187   2.622  25.095  0.00  0.00    +0.005 A 
ATOM      8  C   UNL     1      -4.969   2.467  25.308  0.00  0.00    +0.037 A 
BRANCH   3   2
ATOM      1  C   UNL     1      -6.361   1.821  26.120  0.00  0.00    +0.252 C 
ATOM      2  O   UNL     1      -6.074   1.565  25.390  0.00  0.00    -0.471 OA
ENDBRANCH   3   2
ENDBRANCH   9   6
TORSDOF 6
ENDMDL
MODEL 2
REMARK VINA RESULT:      -7.7      1.454      6.979
REMARK  Name = 
REMARK  6 active torsions:
REMARK  status: ('A' for Active; 'I' for Inactive)
REMARK    1  A    between atoms: O_2  and  C_3
REMARK    2  A    between atoms: C_6  and  C_9
REMARK    3  A    between atoms: N_14  and  C_15
REMARK    4  A    between atoms: C_19  and  O_23
REMARK    5  A    between atoms: O_23  and  C_24
REMARK    6  A    between atoms: C_24  and  C_25
REMARK                            x       y       z     vdW  Elec       q    Type
REMARK                         _______ _______ _______ _____ _____    ______ ____
ROOT
ATOM      9  C   UNL     1       2.035   0.245  22.983  0.00  0.00    +0.086 A 
ATOM     10  C   UNL     1       1.621  -0.213  22.436  0.00  0.00    +0.040 A 
ATOM     11  C   UNL     1       0.796  -0.228  22.450  0.00  0.00    +0.103 A 
ATOM     12  N   UNL     1       0.384   0.216  23.011  0.00  0.00    -0.211 NA
ATOM     13  C   UNL     1       0.799   0.675  23.558  0.00  0.00    +0.237 A 
ATOM     14  N   UNL     1       0.388   1.119  24.119  0.00  0.00    -0.200 NA
ATOM     30  N   UNL     1       1.623   0.689  23.544  0.00  0.00    -0.212 NA
ENDROOT
BRANCH  14  15
ATOM     15  C   UNL     1      -0.437   1.104  24.133  0.00  0.00    +0.154 C 
ATOM     16  C   UNL     1      -0.910   0.429  24.116  0.00  0.00    +0.166 C 
ATOM     17  O   UNL     1      -1.699   0.670  24.139  0.00  0.00    -0.349 OA
ATOM     18  C   UNL     1      -1.713   1.493  24.171  0.00  0.00    +0.173 C 
ATOM     19  C   UNL     1      -2.209   2.152  24.205  0.00  0.00    +0.175 C 
ATOM     20  C   UNL     1      -1.736   2.827  24.222  0.00  0.00    +0.174 C 
ATOM     21  O   UNL     1      -0.947   2.586  24.199  0.00  0.00    -0.349 OA
ATOM     22  C   UNL     1      -0.933   1.762  24.167  0.00  0.00    +0.167 C 
BRANCH  19  23
ATOM     23  O   UNL     1      -3.034   2.137  24.219  0.00  0.00    -0.342 OA
BRANCH  23  24
ATOM     24  C   UNL     1      -3.449   2.689  24.670  0.00  0.00    +0.227 C 
BRANCH  24  25
ATOM     25  C   UNL     1      -4.264   2.613  24.768  0.00  0.00    +0.256 C 
ATOM     26  O   UNL     1      -4.681   2.053  24.330  0.00  0.00    -0.272 OA
ATOM     27  N   UNL     1      -4.663   3.098  25.303  0.00  0.00    -0.274 N 
ATOM     28  C   UNL     1      -5.478   3.022  25.401  0.00  0.00    +0.115 C 
ATOM     29  C   UNL     1      -4.246   3.659  25.741  0.00  0.00    +0.115 C 
ENDBRANCH  24  25
ENDBRANCH  23  24
ENDBRANCH  19  23
ENDBRANCH  14  15
BRANCH   9   6
ATOM      3  C   UNL     1       4.509   0.289  22.940  0.00  0.00    +0.139 A 
ATOM      4  C   UNL     1       4.112  -0.394  23.178  0.00  0.00    +0.037 A 
ATOM      5  C   UNL     1       3.288  -0.409  23.192  0.00  0.00    +0.005 A 
ATOM      6  C   UNL     1       2.859   0.260  22.969  0.00  0.00    +0.018 A 
ATOM      7  C   UNL     1       3.255   0.943  22.731  0.00  0.00    +0.005 A 
ATOM      8  C   UNL     1       4.080   0.958  22.716  0.00  0.00    +0.037 A 
BRANCH   3   2
ATOM      1  C   UNL     1       5.759   0.230  23.628  0.00  0.00    +0.252 C 
ATOM      2  O   UNL     1       5.333   0.304  22.925  0.00  0.00    -0.471 OA
ENDBRANCH   3   2
ENDBRANCH   9   6
TORSDOF 6
ENDMDL
MODEL 3
REMARK VINA RESULT:      -7.2      1.486      6.925
REMARK  Name = 
REMARK  6 active torsions:
REMARK  status: ('A' for Active; 'I' for Inactive)
REMARK    1  A    between atoms: O_2  and  C_3
REMARK    2  A    between atoms: C_6  and  C_9
REMARK    3  A    between atoms: N_14  and  C_15
REMARK    4  A    between atoms: C_19  and  O_23
REMARK    5  A    between atoms: O_23  and  C_24
REMARK    6  A    between atoms: C_24  and  C_25
REMARK                            x       y       z     vdW  Elec       q    Type
REMARK                         _______ _______ _______ _____ _____    ______ ____
ROOT
ATOM      9  C   UNL     1       0.985   0.236  23.332  0.00  0.00    +0.086 A 
ATOM     10  C   UNL     1       0.687  -0.521  23.469  0.00  0.00    +0.040 A 
ATOM     11  C   UNL     1      -0.083  -0.616  23.751  0.00  0.00    +0.103 A 
ATOM     12  N   UNL     1      -0.554   0.045  23.897  0.00  0.00    -0.211 NA
ATOM     13  C   UNL     1      -0.255   0.803  23.760  0.00  0.00    +0.237 A 
ATOM     14  N   UNL     1      -0.726   1.464  23.906  0.00  0.00    -0.200 NA
ATOM     30  N   UNL     1       0.514   0.897  23.478  0.00  0.00    -0.212 NA
ENDROOT
BRANCH  14  15
ATOM     15  C   UNL     1      -1.495   1.369  24.188  0.00  0.00    +0.154 C 
ATOM     16  C   UNL     1      -1.722   0.900  24.828  0.00  0.00    +0.166 C 
ATOM     17  O   UNL     1      -2.539   0.968  24.915  0.00  0.00    -0.349 OA
ATOM     18  C   UNL     1      -2.818   1.478  24.331  0.00  0.00    +0.173 C 
ATOM     19  C   UNL     1      -3.494   1.836  24.022  0.00  0.00    +0.175 C 
ATOM     20  C   UNL     1      -3.267   2.305  23.383  0.00  0.00    +0.174 C 
ATOM     21  O   UNL     1      -2.450   2.237  23.296  0.00  0.00    -0.349 OA
ATOM     22  C   UNL     1      -2.172   1.726  23.881  0.00  0.00    +0.167 C 
BRANCH  19  23
ATOM     23  O   UNL     1      -4.264   1.741  24.305  0.00  0.00    -0.342 OA
BRANCH  23  24
ATOM     24  C   UNL     1      -4.687   2.394  24.579  0.00  0.00    +0.227 C 
BRANCH  24  25
ATOM     25  C   UNL     1      -5.397   2.286  24.983  0.00  0.00    +0.256 C 
ATOM     26  O   UNL     1      -5.848   1.608  24.851  0.00  0.00    -0.272 OA
ATOM     27  N   UNL     1      -5.658   2.856  25.519  0.00  0.00    -0.274 N 
ATOM     28  C   UNL     1      -6.369   2.748  25.923  0.00  0.00    +0.115 C 
ATOM     29  C   UNL     1      -5.208   3.535  25.651  0.00  0.00    +0.115 C 
ENDBRANCH  24  25
ENDBRANCH  23  24
ENDBRANCH  19  23
ENDBRANCH  14  15
BRANCH   9   6
ATOM      3  C   UNL     1       3.293   0.520  22.485  0.00  0.00    +0.139 A 
ATOM      4  C   UNL     1       2.784  -0.021  22.124  0.00  0.00    +0.037 A 
ATOM      5  C   UNL     1       2.016  -0.115  22.406  0.00  0.00    +0.005 A 
ATOM      6  C   UNL     1       1.754   0.330  23.049  0.00  0.00    +0.018 A 
ATOM      7  C   UNL     1       2.262   0.871  23.410  0.00  0.00    +0.005 A 
ATOM      8  C   UNL     1       3.032   0.966  23.128  0.00  0.00    +0.037 A 
BRANCH   3   2
ATOM      1  C   UNL     1       4.704   0.500  22.708  0.00  0.00    +0.252 C 
ATOM      2  O   UNL     1       4.062   0.615  22.202  0.00  0.00    -0.471 OA
ENDBRANCH   3   2
ENDBRANCH   9   6
TORSDOF 6
ENDMDL
MODEL 4
REMARK VINA RESULT:      -6.3     16.675     17.502
REMARK  Name = 
REMARK  6 active torsions:
REMARK  status: ('A' for Active; 'I' for Inactive)
REMARK    1  A    between atoms: O_2  and  C_3
REMARK    2  A    between atoms: C_6  and  C_9
REMARK    3  A    between atoms: N_14  and  C_15
REMARK    4  A    between atoms: C_19  and  O_23
REMARK    5  A    between atoms: O_23  and  C_24
REMARK    6  A    between atoms: C_24  and  C_25
REMARK                            x       y       z     vdW  Elec       q    Type
REMARK                         _______ _______ _______ _____ _____    ______ ____
ROOT
ATOM      9  C   UNL     1      -6.380  -8.946   9.864  0.00  0.00    +0.086 A 
ATOM     10  C   UNL     1      -5.852  -8.328   9.723  0.00  0.00    +0.040 A 
ATOM     11  C   UNL     1      -5.105  -8.335  10.076  0.00  0.00    +0.103 A 
ATOM     12  N   UNL     1      -4.888  -8.959  10.569  0.00  0.00    -0.211 NA
ATOM     13  C   UNL     1      -5.417  -9.577  10.710  0.00  0.00    +0.237 A 
ATOM     14  N   UNL     1      -5.199 -10.201  11.203  0.00  0.00    -0.200 NA
ATOM     30  N   UNL     1      -6.162  -9.570  10.357  0.00  0.00    -0.212 NA
ENDROOT
BRANCH  14  15
ATOM     15  C   UNL     1      -4.453 -10.208  11.556  0.00  0.00    +0.154 C 
ATOM     16  C   UNL     1      -3.735 -10.064  11.176  0.00  0.00    +0.166 C 
ATOM     17  O   UNL     1      -3.133 -10.127  11.736  0.00  0.00    -0.349 OA
ATOM     18  C   UNL     1      -3.478 -10.309  12.462  0.00  0.00    +0.173 C 
ATOM     19  C   UNL     1      -3.320 -10.461  13.257  0.00  0.00    +0.175 C 
ATOM     20  C   UNL     1      -4.037 -10.605  13.638  0.00  0.00    +0.174 C 
ATOM     21  O   UNL     1      -4.639 -10.543  13.078  0.00  0.00    -0.349 OA
ATOM     22  C   UNL     1      -4.294 -10.360  12.351  0.00  0.00    +0.167 C 
BRANCH  19  23
ATOM     23  O   UNL     1      -2.574 -10.468  13.610  0.00  0.00    -0.342 OA
BRANCH  23  24
ATOM     24  C   UNL     1      -2.505 -10.539  14.429  0.00  0.00    +0.227 C 
BRANCH  24  25
ATOM     25  C   UNL     1      -1.781 -10.397  14.797  0.00  0.00    +0.256 C 
ATOM     26  O   UNL     1      -1.138 -10.134  14.353  0.00  0.00    -0.272 OA
ATOM     27  N   UNL     1      -1.699 -10.518  15.609  0.00  0.00    -0.274 N 
ATOM     28  C   UNL     1      -0.975 -10.376  15.977  0.00  0.00    +0.115 C 
ATOM     29  C   UNL     1      -2.342 -10.781  16.053  0.00  0.00    +0.115 C 
ENDBRANCH  24  25
ENDBRANCH  23  24
ENDBRANCH  19  23
ENDBRANCH  14  15
BRANCH   9   6
ATOM      3  C   UNL     1      -8.617  -8.926   8.805  0.00  0.00    +0.139 A 
ATOM      4  C   UNL     1      -7.956  -9.158   8.369  0.00  0.00    +0.037 A 
ATOM      5  C   UNL     1      -7.211  -9.165   8.722  0.00  0.00    +0.005 A 
ATOM      6  C   UNL     1      -7.125  -8.939   9.511  0.00  0.00    +0.018 A 
ATOM      7  C   UNL     1      -7.785  -8.707   9.947  0.00  0.00    +0.005 A 
ATOM      8  C   UNL     1      -8.531  -8.700   9.594  0.00  0.00    +0.037 A 
BRANCH   3   2
ATOM      1  C   UNL     1      -9.807  -8.224   8.443  0.00  0.00    +0.252 C 
ATOM      2  O   UNL     1      -9.362  -8.919   8.453  0.00  0.00    -0.471 OA
ENDBRANCH   3   2
ENDBRANCH   9   6
TORSDOF 6
ENDMDL
MODEL 5
REMARK VINA RESULT:      -5.9     15.017     17.026
REMARK  Name = 
REMARK  6 active torsions:
REMARK  status: ('A' for Active; 'I' for Inactive)
REMARK    1  A    between atoms: O_2  and  C_3
REMARK    2  A    between atoms: C_6  and  C_9
REMARK    3  A    between atoms: N_14  and  C_15
REMARK    4  A    between atoms: C_19  and  O_23
REMARK    5  A    between atoms: O_23  and  C_24
REMARK    6  A    between atoms: C_24  and  C_25
REMARK                            x       y       z     vdW  Elec       q    Type
REMARK                         _______ _______ _______ _____ _____    ______ ____
ROOT
ATOM      9  C   UNL     1      -4.292 -10.411  12.657  0.00  0.00    +0.086 A 
ATOM     10  C   UNL     1      -4.931 -10.679  12.210  0.00  0.00    +0.040 A 
ATOM     11  C   UNL     1      -5.669 -10.781  12.565  0.00  0.00    +0.103 A 
ATOM     12  N   UNL     1      -5.768 -10.614  13.368  0.00  0.00    -0.211 NA
ATOM     13  C   UNL     1      -5.127 -10.346  13.814  0.00  0.00    +0.237 A 
ATOM     14  N   UNL     1      -5.226 -10.180  14.616  0.00  0.00    -0.200 NA
ATOM     30  N   UNL     1      -4.390 -10.245  13.459  0.00  0.00    -0.212 NA
ENDROOT
BRANCH  14  15
ATOM     15  C   UNL     1      -5.964 -10.281  14.972  0.00  0.00    +0.154 C 
ATOM     16  C   UNL     1      -6.565 -10.780  14.707  0.00  0.00    +0.166 C 
ATOM     17  O   UNL     1      -7.202 -10.709  15.226  0.00  0.00    -0.349 OA
ATOM     18  C   UNL     1      -6.995 -10.166  15.811  0.00  0.00    +0.173 C 
ATOM     19  C   UNL     1      -7.261  -9.786  16.493  0.00  0.00    +0.175 C 
ATOM     20  C   UNL     1      -6.660  -9.287  16.758  0.00  0.00    +0.174 C 
ATOM     21  O   UNL     1      -6.023  -9.358  16.239  0.00  0.00    -0.349 OA
ATOM     22  C   UNL     1      -6.230  -9.902  15.654  0.00  0.00    +0.167 C 
BRANCH  19  23
ATOM     23  O   UNL     1      -7.999  -9.888  16.849  0.00  0.00    -0.342 OA
BRANCH  23  24
ATOM     24  C   UNL     1      -8.418  -9.233  17.124  0.00  0.00    +0.227 C 
BRANCH  24  25
ATOM     25  C   UNL     1      -9.130  -9.338  17.527  0.00  0.00    +0.256 C 
ATOM     26  O   UNL     1      -9.250 -10.016  17.981  0.00  0.00    -0.272 OA
ATOM     27  N   UNL     1      -9.722  -8.765  17.476  0.00  0.00    -0.274 N 
ATOM     28  C   UNL     1     -10.434  -8.870  17.878  0.00  0.00    +0.115 C 
ATOM     29  C   UNL     1      -9.601  -8.087  17.022  0.00  0.00    +0.115 C 
ENDBRANCH  24  25
ENDBRANCH  23  24
ENDBRANCH  19  23
ENDBRANCH  14  15
BRANCH   9   6
ATOM      3  C   UNL     1      -2.080 -10.106  11.590  0.00  0.00    +0.139 A 
ATOM      4  C   UNL     1      -2.129 -10.313  12.388  0.00  0.00    +0.037 A 
ATOM      5  C   UNL     1      -2.866 -10.415  12.743  0.00  0.00    +0.005 A 
ATOM      6  C   UNL     1      -3.555 -10.310  12.302  0.00  0.00    +0.018 A 
ATOM      7  C   UNL     1      -3.507 -10.103  11.505  0.00  0.00    +0.005 A 
ATOM      8  C   UNL     1      -2.769 -10.001  11.149  0.00  0.00    +0.037 A 
BRANCH   3   2
ATOM      1  C   UNL     1      -0.844  -9.398  11.486  0.00  0.00    +0.252 C 
ATOM      2  O   UNL     1      -1.343 -10.005  11.235  0.00  0.00    -0.471 OA
ENDBRANCH   3   2
ENDBRANCH   9   6
TORSDOF 6
ENDMDL
MODEL 6
REMARK VINA RESULT:      -5.3     17.523     18.244
REMARK  Name = 
REMARK  6 active torsions:
REMARK  status: ('A' for Active; 'I' for Inactive)
REMARK    1  A    between atoms: O_2  and  C_3
REMARK    2  A    between atoms: C_6  and  C_9
REMARK    3  A    between atoms: N_14  and  C_15
REMARK    4  A    between atoms: C_19  and  O_23
REMARK    5  A    between atoms: O_23  and  C_24
REMARK    6  A    between atoms: C_24  and  C_25
REMARK                            x       y       z     vdW  Elec       q    Type
REMARK                         _______ _______ _______ _____ _____    ______ ____
ROOT
ATOM      9  C   UNL     1      -8.121  -7.603   8.785  0.00  0.00    +0.086 A 
ATOM     10  C   UNL     1      -7.658  -7.780   8.126  0.00  0.00    +0.040 A 
ATOM     11  C   UNL     1      -7.017  -8.294   8.198  0.00  0.00    +0.103 A 
ATOM     12  N   UNL     1      -6.838  -8.631   8.930  0.00  0.00    -0.211 NA
ATOM     13  C   UNL     1      -7.302  -8.453   9.589  0.00  0.00    +0.237 A 
ATOM     14  N   UNL     1      -7.123  -8.790  10.321  0.00  0.00    -0.200 NA
ATOM     30  N   UNL     1      -7.943  -7.939   9.517  0.00  0.00    -0.212 NA
ENDROOT
BRANCH  14  15
ATOM     15  C   UNL     1      -6.482  -9.304  10.394  0.00  0.00    +0.154 C 
ATOM     16  C   UNL     1      -6.270  -9.893   9.857  0.00  0.00    +0.166 C 
ATOM     17  O   UNL     1      -5.598 -10.272  10.148  0.00  0.00    -0.349 OA
ATOM     18  C   UNL     1      -5.394  -9.918  10.863  0.00  0.00    +0.173 C 
ATOM     19  C   UNL     1      -4.853  -9.932  11.486  0.00  0.00    +0.175 C 
ATOM     20  C   UNL     1      -5.065  -9.343  12.023  0.00  0.00    +0.174 C 
ATOM     21  O   UNL     1      -5.737  -8.964  11.732  0.00  0.00    -0.349 OA
ATOM     22  C   UNL     1      -5.941  -9.319  11.016  0.00  0.00    +0.167 C 
BRANCH  19  23
ATOM     23  O   UNL     1      -4.211 -10.446  11.559  0.00  0.00    -0.342 OA
BRANCH  23  24
ATOM     24  C   UNL     1      -3.721 -10.405  12.221  0.00  0.00    +0.227 C 
BRANCH  24  25
ATOM     25  C   UNL     1      -2.919 -10.582  12.153  0.00  0.00    +0.256 C 
ATOM     26  O   UNL     1      -2.593 -10.740  11.412  0.00  0.00    -0.272 OA
ATOM     27  N   UNL     1      -2.442 -10.603  12.826  0.00  0.00    -0.274 N 
ATOM     28  C   UNL     1      -1.640 -10.781  12.758  0.00  0.00    +0.115 C 
ATOM     29  C   UNL     1      -2.768 -10.446  13.567  0.00  0.00    +0.115 C 
ENDBRANCH  24  25
ENDBRANCH  23  24
ENDBRANCH  19  23
ENDBRANCH  14  15
BRANCH   9   6
ATOM      3  C   UNL     1     -10.044  -6.060   8.566  0.00  0.00    +0.139 A 
ATOM      4  C   UNL     1     -10.172  -6.859   8.728  0.00  0.00    +0.037 A 
ATOM      5  C   UNL     1      -9.531  -7.373   8.800  0.00  0.00    +0.005 A 
ATOM      6  C   UNL     1      -8.762  -7.089   8.712  0.00  0.00    +0.018 A 
ATOM      7  C   UNL     1      -8.633  -6.290   8.551  0.00  0.00    +0.005 A 
ATOM      8  C   UNL     1      -9.274  -5.775   8.478  0.00  0.00    +0.037 A 
BRANCH   3   2
ATOM      1  C   UNL     1     -10.672  -4.814   8.874  0.00  0.00    +0.252 C 
ATOM      2  O   UNL     1     -10.685  -5.546   8.493  0.00  0.00    -0.471 OA
ENDBRANCH   3   2
ENDBRANCH   9   6
TORSDOF 6
ENDMDL
MODEL 7
REMARK VINA RESULT:      -5.0     17.621     19.401
REMARK  Name = 
REMARK  6 active torsions:
REMARK  status: ('A' for Active; 'I' for Inactive)
REMARK    1  A    between atoms: O_2  and  C_3
REMARK    2  A    between atoms: C_6  and  C_9
REMARK    3  A    between atoms: N_14  and  C_15
REMARK    4  A    between atoms: C_19  and  O_23
REMARK    5  A    between atoms: O_23  and  C_24
REMARK    6  A    between atoms: C_24  and  C_25
REMARK                            x       y       z     vdW  Elec       q    Type
REMARK                         _______ _______ _______ _____ _____    ______ ____
ROOT
ATOM      9  C   UNL     1      -2.766  -9.664  10.565  0.00  0.00    +0.086 A 
ATOM     10  C   UNL     1      -3.052 -10.415  10.751  0.00  0.00    +0.040 A 
ATOM     11  C   UNL     1      -3.779 -10.666  10.451  0.00  0.00    +0.103 A 
ATOM     12  N   UNL     1      -4.220 -10.166   9.965  0.00  0.00    -0.211 NA
ATOM     13  C   UNL     1      -3.933  -9.415   9.779  0.00  0.00    +0.237 A 
ATOM     14  N   UNL     1      -4.374  -8.915   9.292  0.00  0.00    -0.200 NA
ATOM     30  N   UNL     1      -3.207  -9.164  10.078  0.00  0.00    -0.212 NA
ENDROOT
BRANCH  14  15
ATOM     15  C   UNL     1      -5.101  -9.166   8.993  0.00  0.00    +0.154 C 
ATOM     16  C   UNL     1      -5.227  -9.830   8.519  0.00  0.00    +0.166 C 
ATOM     17  O   UNL     1      -6.032  -9.871   8.348  0.00  0.00    -0.349 OA
ATOM     18  C   UNL     1      -6.405  -9.234   8.715  0.00  0.00    +0.173 C 
ATOM     19  C   UNL     1      -7.132  -8.865   8.836  0.00  0.00    +0.175 C 
ATOM     20  C   UNL     1      -7.007  -8.201   9.309  0.00  0.00    +0.174 C 
ATOM     21  O   UNL     1      -6.201  -8.160   9.481  0.00  0.00    -0.349 OA
ATOM     22  C   UNL     1      -5.829  -8.798   9.113  0.00  0.00    +0.167 C 
BRANCH  19  23
ATOM     23  O   UNL     1      -7.859  -9.116   8.536  0.00  0.00    -0.342 OA
BRANCH  23  24
ATOM     24  C   UNL     1      -8.560  -8.797   8.832  0.00  0.00    +0.227 C 
BRANCH  24  25
ATOM     25  C   UNL     1      -9.287  -9.081   8.566  0.00  0.00    +0.256 C 
ATOM     26  O   UNL     1      -9.321  -9.776   8.124  0.00  0.00    -0.272 OA
ATOM     27  N   UNL     1      -9.981  -8.670   8.742  0.00  0.00    -0.274 N 
ATOM     28  C   UNL     1     -10.708  -8.953   8.476  0.00  0.00    +0.115 C 
ATOM     29  C   UNL     1      -9.947  -7.974   9.184  0.00  0.00    +0.115 C 
ENDBRANCH  24  25
ENDBRANCH  23  24
ENDBRANCH  19  23
ENDBRANCH  14  15
BRANCH   9   6
ATOM      3  C   UNL     1      -0.587  -8.911  11.464  0.00  0.00    +0.139 A 
ATOM      4  C   UNL     1      -1.072  -9.404  11.915  0.00  0.00    +0.037 A 
ATOM      5  C   UNL     1      -1.798  -9.654  11.615  0.00  0.00    +0.005 A 
ATOM      6  C   UNL     1      -2.040  -9.413  10.864  0.00  0.00    +0.018 A 
ATOM      7  C   UNL     1      -1.556  -8.921  10.413  0.00  0.00    +0.005 A 
ATOM      8  C   UNL     1      -0.829  -8.670  10.713  0.00  0.00    +0.037 A 
BRANCH   3   2
ATOM      1  C   UNL     1       0.197  -7.934  12.151  0.00  0.00    +0.252 C 
ATOM      2  O   UNL     1       0.139  -8.660  11.764  0.00  0.00    -0.471 OA
ENDBRANCH   3   2
ENDBRANCH   9   6
TORSDOF 6
ENDMDL
MODEL 8
REMARK VINA RESULT:      -4.8     16.590     17.518
REMARK  Name = 
REMARK  6 active torsions:
REMARK  status: ('A' for Active; 'I' for Inactive)
REMARK    1  A    between atoms: O_2  and  C_3
REMARK    2  A    between atoms: C_6  and  C_9
REMARK    3  A    between atoms: N_14  and  C_15
REMARK    4  A    between atoms: C_19  and  O_23
REMARK    5  A    between atoms: O_23  and  C_24
REMARK    6  A    between atoms: C_24  and  C_25
REMARK                            x       y       z     vdW  Elec       q    Type
REMARK                         _______ _______ _______ _____ _____    ______ ____
ROOT
ATOM      9  C   UNL     1      -7.422  -9.106  10.555  0.00  0.00    +0.086 A 
ATOM     10  C   UNL     1      -6.632  -8.919  10.411  0.00  0.00    +0.040 A 
ATOM     11  C   UNL     1      -6.070  -9.012  11.008  0.00  0.00    +0.103 A 
ATOM     12  N   UNL     1      -6.298  -9.292  11.749  0.00  0.00    -0.211 NA
ATOM     13  C   UNL     1      -7.089  -9.480  11.894  0.00  0.00    +0.237 A 
ATOM     14  N   UNL     1      -7.317  -9.760  12.636  0.00  0.00    -0.200 NA
ATOM     30  N   UNL     1      -7.650  -9.387  11.297  0.00  0.00    -0.212 NA
ENDROOT
BRANCH  14  15
ATOM     15  C   UNL     1      -6.754  -9.853  13.233  0.00  0.00    +0.154 C 
ATOM     16  C   UNL     1      -5.936  -9.861  13.130  0.00  0.00    +0.166 C 
ATOM     17  O   UNL     1      -5.588  -9.967  13.871  0.00  0.00    -0.349 OA
ATOM     18  C   UNL     1      -6.191 -10.024  14.430  0.00  0.00    +0.173 C 
ATOM     19  C   UNL     1      -6.350 -10.125  15.234  0.00  0.00    +0.175 C 
ATOM     20  C   UNL     1      -7.168 -10.117  15.336  0.00  0.00    +0.174 C 
ATOM     21  O   UNL     1      -7.516 -10.011  14.595  0.00  0.00    -0.349 OA
ATOM     22  C   UNL     1      -6.912  -9.954  14.036  0.00  0.00    +0.167 C 
BRANCH  19  23
ATOM     23  O   UNL     1      -5.787 -10.218  15.831  0.00  0.00    -0.342 OA
BRANCH  23  24
ATOM     24  C   UNL     1      -6.029 -10.312  16.614  0.00  0.00    +0.227 C 
BRANCH  24  25
ATOM     25  C   UNL     1      -5.471 -10.459  17.203  0.00  0.00    +0.256 C 
ATOM     26  O   UNL     1      -4.667 -10.458  17.019  0.00  0.00    -0.272 OA
ATOM     27  N   UNL     1      -5.716 -10.608  17.977  0.00  0.00    -0.274 N 
ATOM     28  C   UNL     1      -5.158 -10.756  18.565  0.00  0.00    +0.115 C 
ATOM     29  C   UNL     1      -6.520 -10.609  18.161  0.00  0.00    +0.115 C 
ENDBRANCH  24  25
ENDBRANCH  23  24
ENDBRANCH  19  23
ENDBRANCH  14  15
BRANCH   9   6
ATOM      3  C   UNL     1      -9.108  -8.828   8.765  0.00  0.00    +0.139 A 
ATOM      4  C   UNL     1      -8.714  -8.168   9.068  0.00  0.00    +0.037 A 
ATOM      5  C   UNL     1      -8.153  -8.261   9.664  0.00  0.00    +0.005 A 
ATOM      6  C   UNL     1      -7.984  -9.013   9.959  0.00  0.00    +0.018 A 
ATOM      7  C   UNL     1      -8.377  -9.672   9.657  0.00  0.00    +0.005 A 
ATOM      8  C   UNL     1      -8.939  -9.580   9.060  0.00  0.00    +0.037 A 
BRANCH   3   2
ATOM      1  C   UNL     1     -10.314  -9.248   8.125  0.00  0.00    +0.252 C 
ATOM      2  O   UNL     1      -9.670  -8.735   8.168  0.00  0.00    -0.471 OA
ENDBRANCH   3   2
ENDBRANCH   9   6
TORSDOF 6
ENDMDL
