MODEL 1
REMARK VINA RESULT:     -13.2      0.000      0.000
REMARK  Name = 
REMARK  4 active torsions:
REMARK  status: ('A' for Active; 'I' for Inactive)
REMARK    1  A    between atoms: O_2  and  C_3
REMARK    2  A    between atoms: C_4  and  C_10
REMARK    3  A    between atoms: C_18  and  N_24
REMARK    4  A    between atoms: C_25  and  C_27
REMARK                            x       y       z     vdW  Elec       q    Type
REMARK                         _______ _______ _______ _____ _____    ______ ____
ROOT
ATOM     10  C   UNL     1      -1.241   3.001  25.404  0.00  0.00    +0.003 A 
ATOM     11  C   UNL     1      -1.665   2.470  24.936  0.00  0.00    +0.006 A 
ATOM     12  C   UNL     1      -1.539   1.658  25.016  0.00  0.00    +0.069 A 
ATOM     13  C   UNL     1      -0.991   1.378  25.564  0.00  0.00    +0.078 A 
ATOM     14  N   UNL     1      -0.783   0.597  25.731  0.00  0.00    -0.178 NA
ATOM     15  C   UNL     1      -1.073  -0.096  25.391  0.00  0.00    +0.265 C 
ATOM     16  O   UNL     1      -0.752  -0.799  25.680  0.00  0.00    -0.271 OA
ATOM     17  C   UNL     1      -1.643  -0.179  24.800  0.00  0.00    +0.174 C 
ATOM     18  C   UNL     1      -1.887  -0.910  24.504  0.00  0.00    +0.124 C 
ATOM     19  C   UNL     1      -2.458  -0.773  23.925  0.00  0.00    +0.045 C 
ATOM     20  C   UNL     1      -2.566   0.043  23.862  0.00  0.00    +0.096 C 
ATOM     21  N   UNL     1      -2.062   0.409  24.403  0.00  0.00    -0.268 N 
ATOM     22  C   UNL     1      -2.017   1.227  24.499  0.00  0.00    +0.251 C 
ATOM     23  O   UNL     1      -2.513   1.674  24.014  0.00  0.00    -0.270 OA
ATOM     32  C   UNL     1      -0.567   1.909  26.033  0.00  0.00    +0.017 A 
ATOM     33  C   UNL     1      -0.692   2.720  25.953  0.00  0.00    +0.001 A 
ENDROOT
BRANCH  10   4
ATOM      3  C   UNL     1      -2.018   4.168  25.685  0.00  0.00    +0.139 A 
ATOM      4  C   UNL     1      -1.366   3.812  25.323  0.00  0.00    +0.035 A 
ATOM      5  C   UNL     1      -0.840   4.269  24.881  0.00  0.00    +0.014 A 
ATOM      6  C   UNL     1      -0.966   5.081  24.802  0.00  0.00    +0.058 A 
ATOM      7 CL   UNL     1      -0.440   5.538  24.360  0.00  0.00    -0.082 Cl
ATOM      8  C   UNL     1      -1.617   5.435  25.164  0.00  0.00    +0.015 A 
ATOM      9  C   UNL     1      -2.143   4.979  25.605  0.00  0.00    +0.038 A 
BRANCH   3   2
ATOM      1  C   UNL     1      -3.211   4.059  26.465  0.00  0.00    +0.252 C 
ATOM      2  O   UNL     1      -2.543   3.710  26.127  0.00  0.00    -0.471 OA
ENDBRANCH   3   2
ENDBRANCH  10   4
BRANCH  18  24
ATOM     24  N   UNL     1      -1.610  -1.649  24.746  0.00  0.00    -0.205 NA
ATOM     25  C   UNL     1      -2.130  -2.287  24.803  0.00  0.00    +0.241 C 
ATOM     26  O   UNL     1      -1.852  -3.025  25.044  0.00  0.00    -0.273 OA
BRANCH  25  27
ATOM     27  C   UNL     1      -2.927  -2.186  24.618  0.00  0.00    +0.078 C 
ATOM     28  C   UNL     1      -3.274  -2.315  23.881  0.00  0.00    +0.009 C 
ATOM     29  C   UNL     1      -4.079  -2.147  23.944  0.00  0.00    +0.001 C 
ATOM     30  C   UNL     1      -4.230  -1.914  24.721  0.00  0.00    +0.001 C 
ATOM     31  C   UNL     1      -3.518  -1.938  25.138  0.00  0.00    +0.009 C 
ENDBRANCH  25  27
ENDBRANCH  18  24
TORSDOF 4
ENDMDL
MODEL 2
REMARK VINA RESULT:     -12.9      2.250      5.690
REMARK  Name = 
REMARK  4 active torsions:
REMARK  status: ('A' for Active; 'I' for Inactive)
REMARK    1  A    between atoms: O_2  and  C_3
REMARK    2  A    between atoms: C_4  and  C_10
REMARK    3  A    between atoms: C_18  and  N_24
REMARK    4  A    between atoms: C_25  and  C_27
REMARK                            x       y       z     vdW  Elec       q    Type
REMARK                         _______ _______ _______ _____ _____    ______ ____
ROOT
ATOM     10  C   UNL     1      -3.970  -0.482  24.691  0.00  0.00    +0.003 A 
ATOM     11  C   UNL     1      -3.357   0.006  24.434  0.00  0.00    +0.006 A 
ATOM     12  C   UNL     1      -3.399   0.821  24.560  0.00  0.00    +0.069 A 
ATOM     13  C   UNL     1      -4.053   1.146  24.943  0.00  0.00    +0.078 A 
ATOM     14  N   UNL     1      -4.204   1.937  25.122  0.00  0.00    -0.178 NA
ATOM     15  C   UNL     1      -3.737   2.598  24.963  0.00  0.00    +0.265 C 
ATOM     16  O   UNL     1      -4.042   3.322  25.215  0.00  0.00    -0.271 OA
ATOM     17  C   UNL     1      -3.004   2.631  24.586  0.00  0.00    +0.174 C 
ATOM     18  C   UNL     1      -2.589   3.334  24.460  0.00  0.00    +0.124 C 
ATOM     19  C   UNL     1      -1.886   3.149  24.070  0.00  0.00    +0.045 C 
ATOM     20  C   UNL     1      -1.867   2.331  23.955  0.00  0.00    +0.096 C 
ATOM     21  N   UNL     1      -2.557   2.012  24.274  0.00  0.00    -0.268 N 
ATOM     22  C   UNL     1      -2.732   1.206  24.262  0.00  0.00    +0.251 C 
ATOM     23  O   UNL     1      -2.168   0.721  23.906  0.00  0.00    -0.270 OA
ATOM     32  C   UNL     1      -4.666   0.657  25.199  0.00  0.00    +0.017 A 
ATOM     33  C   UNL     1      -4.625  -0.157  25.074  0.00  0.00    +0.001 A 
ENDROOT
BRANCH  10   4
ATOM      3  C   UNL     1      -3.579  -1.785  25.132  0.00  0.00    +0.139 A 
ATOM      4  C   UNL     1      -3.928  -1.296  24.565  0.00  0.00    +0.035 A 
ATOM      5  C   UNL     1      -4.236  -1.623  23.872  0.00  0.00    +0.014 A 
ATOM      6  C   UNL     1      -4.194  -2.438  23.747  0.00  0.00    +0.058 A 
ATOM      7 CL   UNL     1      -4.501  -2.765  23.055  0.00  0.00    -0.082 Cl
ATOM      8  C   UNL     1      -3.845  -2.925  24.314  0.00  0.00    +0.015 A 
ATOM      9  C   UNL     1      -3.538  -2.599  25.006  0.00  0.00    +0.038 A 
BRANCH   3   2
ATOM      1  C   UNL     1      -2.916  -1.944  26.388  0.00  0.00    +0.252 C 
ATOM      2  O   UNL     1      -3.272  -1.457  25.824  0.00  0.00    -0.471 OA
ENDBRANCH   3   2
ENDBRANCH  10   4
BRANCH  18  24
ATOM     24  N   UNL     1      -2.834   4.089  24.684  0.00  0.00    -0.205 NA
ATOM     25  C   UNL     1      -2.293   4.618  25.014  0.00  0.00    +0.241 C 
ATOM     26  O   UNL     1      -2.538   5.372  25.239  0.00  0.00    -0.273 OA
BRANCH  25  27
ATOM     27  C   UNL     1      -1.508   4.390  25.120  0.00  0.00    +0.078 C 
ATOM     28  C   UNL     1      -0.885   4.544  24.602  0.00  0.00    +0.009 C 
ATOM     29  C   UNL     1      -0.198   4.218  24.924  0.00  0.00    +0.001 C 
ATOM     30  C   UNL     1      -0.397   3.863  25.641  0.00  0.00    +0.001 C 
ATOM     31  C   UNL     1      -1.206   3.969  25.763  0.00  0.00    +0.009 C 
ENDBRANCH  25  27
ENDBRANCH  18  24
TORSDOF 4
ENDMDL
MODEL 3
REMARK VINA RESULT:     -12.4      1.332      1.996
REMARK  Name = 
REMARK  4 active torsions:
REMARK  status: ('A' for Active; 'I' for Inactive)
REMARK    1  A    between atoms: O_2  and  C_3
REMARK    2  A    between atoms: C_4  and  C_10
REMARK    3  A    between atoms: C_18  and  N_24
REMARK    4  A    between atoms: C_25  and  C_27
REMARK                            x       y       z     vdW  Elec       q    Type
REMARK                         _______ _______ _______ _____ _____    ______ ____
ROOT
ATOM     10  C   UNL     1      -2.621   3.016  24.677  0.00  0.00    +0.003 A 
ATOM     11  C   UNL     1      -2.424   2.287  25.008  0.00  0.00    +0.006 A 
ATOM     12  C   UNL     1      -2.857   1.613  24.808  0.00  0.00    +0.069 A 
ATOM     13  C   UNL     1      -3.486   1.668  24.277  0.00  0.00    +0.078 A 
ATOM     14  N   UNL     1      -3.984   1.070  24.006  0.00  0.00    -0.178 NA
ATOM     15  C   UNL     1      -3.977   0.268  24.198  0.00  0.00    +0.265 C 
ATOM     16  O   UNL     1      -4.553  -0.194  23.831  0.00  0.00    -0.271 OA
ATOM     17  C   UNL     1      -3.469  -0.133  24.710  0.00  0.00    +0.174 C 
ATOM     18  C   UNL     1      -3.519  -0.944  24.857  0.00  0.00    +0.124 C 
ATOM     19  C   UNL     1      -2.925  -1.144  25.393  0.00  0.00    +0.045 C 
ATOM     20  C   UNL     1      -2.507  -0.456  25.577  0.00  0.00    +0.096 C 
ATOM     21  N   UNL     1      -2.843   0.167  25.155  0.00  0.00    -0.268 N 
ATOM     22  C   UNL     1      -2.571   0.945  25.200  0.00  0.00    +0.251 C 
ATOM     23  O   UNL     1      -1.927   1.071  25.700  0.00  0.00    -0.270 OA
ATOM     32  C   UNL     1      -3.682   2.398  23.946  0.00  0.00    +0.017 A 
ATOM     33  C   UNL     1      -3.250   3.072  24.145  0.00  0.00    +0.001 A 
ENDROOT
BRANCH  10   4
ATOM      3  C   UNL     1      -2.468   4.201  25.462  0.00  0.00    +0.139 A 
ATOM      4  C   UNL     1      -2.189   3.690  24.876  0.00  0.00    +0.035 A 
ATOM      5  C   UNL     1      -1.478   3.854  24.491  0.00  0.00    +0.014 A 
ATOM      6  C   UNL     1      -1.046   4.528  24.691  0.00  0.00    +0.058 A 
ATOM      7 CL   UNL     1      -0.336   4.691  24.305  0.00  0.00    -0.082 Cl
ATOM      8  C   UNL     1      -1.325   5.038  25.276  0.00  0.00    +0.015 A 
ATOM      9  C   UNL     1      -2.036   4.875  25.661  0.00  0.00    +0.038 A 
BRANCH   3   2
ATOM      1  C   UNL     1      -3.408   4.488  26.499  0.00  0.00    +0.252 C 
ATOM      2  O   UNL     1      -3.179   4.036  25.847  0.00  0.00    -0.471 OA
ENDBRANCH   3   2
ENDBRANCH  10   4
BRANCH  18  24
ATOM     24  N   UNL     1      -4.068  -1.464  24.526  0.00  0.00    -0.205 NA
ATOM     25  C   UNL     1      -3.838  -2.228  24.316  0.00  0.00    +0.241 C 
ATOM     26  O   UNL     1      -4.386  -2.748  23.985  0.00  0.00    -0.273 OA
BRANCH  25  27
ATOM     27  C   UNL     1      -3.060  -2.472  24.438  0.00  0.00    +0.078 C 
ATOM     28  C   UNL     1      -2.442  -2.411  23.895  0.00  0.00    +0.009 C 
ATOM     29  C   UNL     1      -1.762  -2.721  24.244  0.00  0.00    +0.001 C 
ATOM     30  C   UNL     1      -1.959  -2.974  25.005  0.00  0.00    +0.001 C 
ATOM     31  C   UNL     1      -2.762  -2.820  25.124  0.00  0.00    +0.009 C 
ENDBRANCH  25  27
ENDBRANCH  18  24
TORSDOF 4
ENDMDL
MODEL 4
REMARK VINA RESULT:     -11.7      2.290      5.712
REMARK  Name = 
REMARK  4 active torsions:
REMARK  status: ('A' for Active; 'I' for Inactive)
REMARK    1  A    between atoms: O_2  and  C_3
REMARK    2  A    between atoms: C_4  and  C_10
REMARK    3  A    between atoms: C_18  and  N_24
REMARK    4  A    between atoms: C_25  and  C_27
REMARK                            x       y       z     vdW  Elec       q    Type
REMARK                         _______ _______ _______ _____ _____    ______ ____
ROOT
ATOM     10  C   UNL     1      -3.316  -1.078  24.815  0.00  0.00    +0.003 A 
ATOM     11  C   UNL     1      -3.089  -0.359  24.483  0.00  0.00    +0.006 A 
ATOM     12  C   UNL     1      -3.512   0.328  24.659  0.00  0.00    +0.069 A 
ATOM     13  C   UNL     1      -4.162   0.295  25.166  0.00  0.00    +0.078 A 
ATOM     14  N   UNL     1      -4.655   0.908  25.411  0.00  0.00    -0.178 NA
ATOM     15  C   UNL     1      -4.621   1.708  25.210  0.00  0.00    +0.265 C 
ATOM     16  O   UNL     1      -5.199   2.188  25.550  0.00  0.00    -0.271 OA
ATOM     17  C   UNL     1      -4.084   2.090  24.714  0.00  0.00    +0.174 C 
ATOM     18  C   UNL     1      -4.109   2.900  24.556  0.00  0.00    +0.124 C 
ATOM     19  C   UNL     1      -3.490   3.079  24.040  0.00  0.00    +0.045 C 
ATOM     20  C   UNL     1      -3.082   2.379  23.880  0.00  0.00    +0.096 C 
ATOM     21  N   UNL     1      -3.450   1.769  24.296  0.00  0.00    -0.268 N 
ATOM     22  C   UNL     1      -3.195   0.985  24.271  0.00  0.00    +0.251 C 
ATOM     23  O   UNL     1      -2.536   0.836  23.797  0.00  0.00    -0.270 OA
ATOM     32  C   UNL     1      -4.389  -0.426  25.498  0.00  0.00    +0.017 A 
ATOM     33  C   UNL     1      -3.967  -1.112  25.323  0.00  0.00    +0.001 A 
ENDROOT
BRANCH  10   4
ATOM      3  C   UNL     1      -3.254  -2.374  24.215  0.00  0.00    +0.139 A 
ATOM      4  C   UNL     1      -2.894  -1.765  24.641  0.00  0.00    +0.035 A 
ATOM      5  C   UNL     1      -2.111  -1.843  24.890  0.00  0.00    +0.014 A 
ATOM      6  C   UNL     1      -1.689  -2.530  24.715  0.00  0.00    +0.058 A 
ATOM      7 CL   UNL     1      -0.907  -2.608  24.965  0.00  0.00    -0.082 Cl
ATOM      8  C   UNL     1      -2.050  -3.139  24.290  0.00  0.00    +0.015 A 
ATOM      9  C   UNL     1      -2.832  -3.061  24.041  0.00  0.00    +0.038 A 
BRANCH   3   2
ATOM      1  C   UNL     1      -4.381  -2.882  23.499  0.00  0.00    +0.252 C 
ATOM      2  O   UNL     1      -4.036  -2.295  23.966  0.00  0.00    -0.471 OA
ENDBRANCH   3   2
ENDBRANCH  10   4
BRANCH  18  24
ATOM     24  N   UNL     1      -4.656   3.437  24.859  0.00  0.00    -0.205 NA
ATOM     25  C   UNL     1      -4.396   4.114  25.253  0.00  0.00    +0.241 C 
ATOM     26  O   UNL     1      -4.943   4.651  25.557  0.00  0.00    -0.273 OA
BRANCH  25  27
ATOM     27  C   UNL     1      -3.588   4.253  25.343  0.00  0.00    +0.078 C 
ATOM     28  C   UNL     1      -3.135   4.067  26.007  0.00  0.00    +0.009 C 
ATOM     29  C   UNL     1      -2.358   4.301  25.860  0.00  0.00    +0.001 C 
ATOM     30  C   UNL     1      -2.330   4.632  25.105  0.00  0.00    +0.001 C 
ATOM     31  C   UNL     1      -3.091   4.603  24.785  0.00  0.00    +0.009 C 
ENDBRANCH  25  27
ENDBRANCH  18  24
TORSDOF 4
ENDMDL
MODEL 5
REMARK VINA RESULT:     -11.5      2.469      4.525
REMARK  Name = 
REMARK  4 active torsions:
REMARK  status: ('A' for Active; 'I' for Inactive)
REMARK    1  A    between atoms: O_2  and  C_3
REMARK    2  A    between atoms: C_4  and  C_10
REMARK    3  A    between atoms: C_18  and  N_24
REMARK    4  A    between atoms: C_25  and  C_27
REMARK                            x       y       z     vdW  Elec       q    Type
REMARK                         _______ _______ _______ _____ _____    ______ ____
ROOT
ATOM     10  C   UNL     1      -0.652   0.959  24.376  0.00  0.00    +0.003 A 
ATOM     11  C   UNL     1      -1.430   1.033  24.112  0.00  0.00    +0.006 A 
ATOM     12  C   UNL     1      -1.918   1.620  24.425  0.00  0.00    +0.069 A 
ATOM     13  C   UNL     1      -1.629   2.133  25.003  0.00  0.00    +0.078 A 
ATOM     14  N   UNL     1      -2.019   2.750  25.385  0.00  0.00    -0.178 NA
ATOM     15  C   UNL     1      -2.797   3.008  25.284  0.00  0.00    +0.265 C 
ATOM     16  O   UNL     1      -3.027   3.647  25.753  0.00  0.00    -0.271 OA
ATOM     17  C   UNL     1      -3.375   2.711  24.776  0.00  0.00    +0.174 C 
ATOM     18  C   UNL     1      -4.139   3.020  24.726  0.00  0.00    +0.124 C 
ATOM     19  C   UNL     1      -4.555   2.584  24.163  0.00  0.00    +0.045 C 
ATOM     20  C   UNL     1      -4.047   2.005  23.864  0.00  0.00    +0.096 C 
ATOM     21  N   UNL     1      -3.319   2.084  24.243  0.00  0.00    -0.268 N 
ATOM     22  C   UNL     1      -2.671   1.598  24.087  0.00  0.00    +0.251 C 
ATOM     23  O   UNL     1      -2.790   1.013  23.517  0.00  0.00    -0.270 OA
ATOM     32  C   UNL     1      -0.851   2.059  25.267  0.00  0.00    +0.017 A 
ATOM     33  C   UNL     1      -0.362   1.473  24.954  0.00  0.00    +0.001 A 
ENDROOT
BRANCH  10   4
ATOM      3  C   UNL     1      -0.171  -0.387  24.386  0.00  0.00    +0.139 A 
ATOM      4  C   UNL     1      -0.164   0.373  24.063  0.00  0.00    +0.035 A 
ATOM      5  C   UNL     1       0.332   0.545  23.426  0.00  0.00    +0.014 A 
ATOM      6  C   UNL     1       0.821  -0.042  23.114  0.00  0.00    +0.058 A 
ATOM      7 CL   UNL     1       1.317   0.130  22.478  0.00  0.00    -0.082 Cl
ATOM      8  C   UNL     1       0.813  -0.801  23.437  0.00  0.00    +0.015 A 
ATOM      9  C   UNL     1       0.317  -0.973  24.073  0.00  0.00    +0.038 A 
BRANCH   3   2
ATOM      1  C   UNL     1      -0.683  -1.320  25.340  0.00  0.00    +0.252 C 
ATOM      2  O   UNL     1      -0.668  -0.558  25.022  0.00  0.00    -0.471 OA
ENDBRANCH   3   2
ENDBRANCH  10   4
BRANCH  18  24
ATOM     24  N   UNL     1      -4.435   3.654  25.163  0.00  0.00    -0.205 NA
ATOM     25  C   UNL     1      -5.163   3.588  25.545  0.00  0.00    +0.241 C 
ATOM     26  O   UNL     1      -5.459   4.222  25.982  0.00  0.00    -0.273 OA
BRANCH  25  27
ATOM     27  C   UNL     1      -5.594   2.888  25.491  0.00  0.00    +0.078 C 
ATOM     28  C   UNL     1      -5.599   2.276  26.045  0.00  0.00    +0.009 C 
ATOM     29  C   UNL     1      -6.105   1.685  25.770  0.00  0.00    +0.001 C 
ATOM     30  C   UNL     1      -6.413   1.931  25.045  0.00  0.00    +0.001 C 
ATOM     31  C   UNL     1      -6.098   2.674  24.872  0.00  0.00    +0.009 C 
ENDBRANCH  25  27
ENDBRANCH  18  24
TORSDOF 4
ENDMDL
MODEL 6
REMARK VINA RESULT:     -10.8      2.016      5.405
REMARK  Name = 
REMARK  4 active torsions:
REMARK  status: ('A' for Active; 'I' for Inactive)
REMARK    1  A    between atoms: O_2  and  C_3
REMARK    2  A    between atoms: C_4  and  C_10
REMARK    3  A    between atoms: C_18  and  N_24
REMARK    4  A    between atoms: C_25  and  C_27
REMARK                            x       y       z     vdW  Elec       q    Type
REMARK                         _______ _______ _______ _____ _____    ______ ____
ROOT
ATOM     10  C   UNL     1      -2.460  -0.931  24.563  0.00  0.00    +0.003 A 
ATOM     11  C   UNL     1      -2.768  -0.169  24.500  0.00  0.00    +0.006 A 
ATOM     12  C   UNL     1      -2.259   0.480  24.471  0.00  0.00    +0.069 A 
ATOM     13  C   UNL     1      -1.443   0.367  24.504  0.00  0.00    +0.078 A 
ATOM     14  N   UNL     1      -0.843   0.933  24.484  0.00  0.00    -0.178 NA
ATOM     15  C   UNL     1      -0.912   1.753  24.425  0.00  0.00    +0.265 C 
ATOM     16  O   UNL     1      -0.202   2.174  24.418  0.00  0.00    -0.271 OA
ATOM     17  C   UNL     1      -1.598   2.209  24.372  0.00  0.00    +0.174 C 
ATOM     18  C   UNL     1      -1.593   3.033  24.315  0.00  0.00    +0.124 C 
ATOM     19  C   UNL     1      -2.376   3.290  24.272  0.00  0.00    +0.045 C 
ATOM     20  C   UNL     1      -2.864   2.626  24.303  0.00  0.00    +0.096 C 
ATOM     21  N   UNL     1      -2.384   1.958  24.365  0.00  0.00    -0.268 N 
ATOM     22  C   UNL     1      -2.678   1.189  24.409  0.00  0.00    +0.251 C 
ATOM     23  O   UNL     1      -3.500   1.118  24.388  0.00  0.00    -0.270 OA
ATOM     32  C   UNL     1      -1.134  -0.396  24.567  0.00  0.00    +0.017 A 
ATOM     33  C   UNL     1      -1.642  -1.045  24.596  0.00  0.00    +0.001 A 
ENDROOT
BRANCH  10   4
ATOM      3  C   UNL     1      -3.158  -1.923  25.318  0.00  0.00    +0.139 A 
ATOM      4  C   UNL     1      -2.967  -1.580  24.592  0.00  0.00    +0.035 A 
ATOM      5  C   UNL     1      -3.285  -1.887  23.895  0.00  0.00    +0.014 A 
ATOM      6  C   UNL     1      -3.794  -2.537  23.924  0.00  0.00    +0.058 A 
ATOM      7 CL   UNL     1      -4.111  -2.844  23.228  0.00  0.00    -0.082 Cl
ATOM      8  C   UNL     1      -3.984  -2.879  24.651  0.00  0.00    +0.015 A 
ATOM      9  C   UNL     1      -3.666  -2.572  25.347  0.00  0.00    +0.038 A 
BRANCH   3   2
ATOM      1  C   UNL     1      -3.151  -1.841  26.745  0.00  0.00    +0.252 C 
ATOM      2  O   UNL     1      -2.840  -1.615  26.014  0.00  0.00    -0.471 OA
ENDBRANCH   3   2
ENDBRANCH  10   4
BRANCH  18  24
ATOM     24  N   UNL     1      -0.923   3.514  24.302  0.00  0.00    -0.205 NA
ATOM     25  C   UNL     1      -0.903   4.206  24.752  0.00  0.00    +0.241 C 
ATOM     26  O   UNL     1      -0.234   4.687  24.740  0.00  0.00    -0.273 OA
BRANCH  25  27
ATOM     27  C   UNL     1      -1.554   4.415  25.214  0.00  0.00    +0.078 C 
ATOM     28  C   UNL     1      -2.151   4.942  24.999  0.00  0.00    +0.009 C 
ATOM     29  C   UNL     1      -2.688   4.988  25.623  0.00  0.00    +0.001 C 
ATOM     30  C   UNL     1      -2.423   4.490  26.225  0.00  0.00    +0.001 C 
ATOM     31  C   UNL     1      -1.721   4.136  25.972  0.00  0.00    +0.009 C 
ENDBRANCH  25  27
ENDBRANCH  18  24
TORSDOF 4
ENDMDL
