MODEL 1
REMARK VINA RESULT:     -11.3      0.000      0.000
REMARK  Name = 
REMARK  7 active torsions:
REMARK  status: ('A' for Active; 'I' for Inactive)
REMARK    1  A    between atoms: C_2  and  C_4
REMARK    2  A    between atoms: C_4  and  C_5
REMARK    3  A    between atoms: C_10  and  C_11
REMARK    4  A    between atoms: C_11  and  C_12
REMARK    5  A    between atoms: C_12  and  N_13
REMARK    6  A    between atoms: N_16  and  C_19
REMARK    7  A    between atoms: C_26  and  C_28
REMARK                            x       y       z     vdW  Elec       q    Type
REMARK                         _______ _______ _______ _____ _____    ______ ____
ROOT
ATOM      5  C   UNL     1      -4.077   3.563  25.248  0.00  0.00    +0.015 C 
ATOM      6  C   UNL     1      -3.868   4.359  25.314  0.00  0.00    +0.022 C 
ATOM      7  C   UNL     1      -3.073   4.578  25.317  0.00  0.00    +0.094 C 
ATOM      8  N   UNL     1      -2.486   4.002  25.253  0.00  0.00    -0.274 N 
ATOM      9  C   UNL     1      -2.694   3.206  25.187  0.00  0.00    +0.094 C 
ATOM     10  C   UNL     1      -3.490   2.987  25.184  0.00  0.00    +0.022 C 
ATOM     26  C   UNL     1      -1.690   4.221  25.256  0.00  0.00    +0.284 C 
ATOM     27  O   UNL     1      -1.483   5.017  25.322  0.00  0.00    -0.267 OA
ENDROOT
BRANCH  26  28
ATOM     28  C   UNL     1      -1.103   3.645  25.192  0.00  0.00    +0.199 A 
ATOM     29  C   UNL     1      -0.733   3.258  25.821  0.00  0.00    +0.045 A 
ATOM     30  C   UNL     1      -0.185   2.729  25.506  0.00  0.00    +0.044 A 
ATOM     31  C   UNL     1      -0.215   2.788  24.684  0.00  0.00    +0.180 A 
ATOM     32  O   UNL     1      -0.783   3.354  24.490  0.00  0.00    -0.446 OA
ENDBRANCH  26  28
BRANCH   5   4
ATOM      4  C   UNL     1      -4.871   3.344  25.245  0.00  0.00    +0.114 C 
BRANCH   4   2
ATOM      1  O   UNL     1      -5.572   3.503  26.480  0.00  0.00    -0.246 OA
ATOM      2  C   UNL     1      -5.414   3.755  25.711  0.00  0.00    +0.365 C 
ATOM      3  O   UNL     1      -5.800   4.419  25.408  0.00  0.00    -0.246 OA
ENDBRANCH   4   2
ENDBRANCH   5   4
BRANCH  10  11
ATOM     11  C   UNL     1      -3.697   2.191  25.118  0.00  0.00    +0.019 C 
BRANCH  11  12
ATOM     12  C   UNL     1      -3.530   1.778  24.423  0.00  0.00    +0.072 C 
BRANCH  12  13
ATOM     13  N   UNL     1      -3.568   0.954  24.414  0.00  0.00    -0.270 NA
ATOM     14  C   UNL     1      -4.272   0.571  24.612  0.00  0.00    +0.094 C 
ATOM     15  C   UNL     1      -4.309  -0.253  24.603  0.00  0.00    +0.108 C 
ATOM     16  N   UNL     1      -3.643  -0.694  24.397  0.00  0.00    -0.305 N 
ATOM     17  C   UNL     1      -2.940  -0.311  24.199  0.00  0.00    +0.108 C 
ATOM     18  C   UNL     1      -2.901   0.513  24.208  0.00  0.00    +0.094 C 
BRANCH  16  19
ATOM     19  C   UNL     1      -3.681  -1.517  24.388  0.00  0.00    +0.048 A 
ATOM     20  C   UNL     1      -3.290  -1.954  24.969  0.00  0.00    +0.017 A 
ATOM     21  C   UNL     1      -3.327  -2.779  24.960  0.00  0.00    +0.031 A 
ATOM     22  C   UNL     1      -3.755  -3.166  24.371  0.00  0.00    +0.140 A 
ATOM     23  F   UNL     1      -3.793  -3.991  24.362  0.00  0.00    -0.204 F 
ATOM     24  C   UNL     1      -4.146  -2.729  23.790  0.00  0.00    +0.031 A 
ATOM     25  C   UNL     1      -4.109  -1.906  23.799  0.00  0.00    +0.017 A 
ENDBRANCH  16  19
ENDBRANCH  12  13
ENDBRANCH  11  12
ENDBRANCH  10  11
TORSDOF 7
ENDMDL
MODEL 2
REMARK VINA RESULT:     -10.3      0.868      2.865
REMARK  Name = 
REMARK  7 active torsions:
REMARK  status: ('A' for Active; 'I' for Inactive)
REMARK    1  A    between atoms: C_2  and  C_4
REMARK    2  A    between atoms: C_4  and  C_5
REMARK    3  A    between atoms: C_10  and  C_11
REMARK    4  A    between atoms: C_11  and  C_12
REMARK    5  A    between atoms: C_12  and  N_13
REMARK    6  A    between atoms: N_16  and  C_19
REMARK    7  A    between atoms: C_26  and  C_28
REMARK                            x       y       z     vdW  Elec       q    Type
REMARK                         _______ _______ _______ _____ _____    ______ ____
ROOT
ATOM      5  C   UNL     1      -2.222   3.500  25.025  0.00  0.00    +0.015 C 
ATOM      6  C   UNL     1      -2.527   4.259  25.134  0.00  0.00    +0.022 C 
ATOM      7  C   UNL     1      -3.334   4.364  25.266  0.00  0.00    +0.094 C 
ATOM      8  N   UNL     1      -3.837   3.710  25.289  0.00  0.00    -0.274 N 
ATOM      9  C   UNL     1      -3.532   2.951  25.179  0.00  0.00    +0.094 C 
ATOM     10  C   UNL     1      -2.724   2.846  25.047  0.00  0.00    +0.022 C 
ATOM     26  C   UNL     1      -4.645   3.815  25.421  0.00  0.00    +0.284 C 
ATOM     27  O   UNL     1      -4.949   4.574  25.531  0.00  0.00    -0.267 OA
ENDROOT
BRANCH  26  28
ATOM     28  C   UNL     1      -5.148   3.161  25.444  0.00  0.00    +0.199 A 
ATOM     29  C   UNL     1      -5.376   2.748  26.121  0.00  0.00    +0.045 A 
ATOM     30  C   UNL     1      -5.880   2.138  25.889  0.00  0.00    +0.044 A 
ATOM     31  C   UNL     1      -5.962   2.173  25.069  0.00  0.00    +0.180 A 
ATOM     32  O   UNL     1      -5.510   2.805  24.794  0.00  0.00    -0.446 OA
ENDBRANCH  26  28
BRANCH   5   4
ATOM      4  C   UNL     1      -1.415   3.395  24.893  0.00  0.00    +0.114 C 
BRANCH   4   2
ATOM      1  O   UNL     1      -0.518   3.892  25.888  0.00  0.00    -0.246 OA
ATOM      2  C   UNL     1      -0.877   3.966  25.149  0.00  0.00    +0.365 C 
ATOM      3  O   UNL     1      -0.698   4.612  24.667  0.00  0.00    -0.246 OA
ENDBRANCH   4   2
ENDBRANCH   5   4
BRANCH  10  11
ATOM     11  C   UNL     1      -2.420   2.087  24.938  0.00  0.00    +0.019 C 
BRANCH  11  12
ATOM     12  C   UNL     1      -2.572   1.680  24.236  0.00  0.00    +0.072 C 
BRANCH  12  13
ATOM     13  N   UNL     1      -2.753   0.875  24.258  0.00  0.00    -0.270 NA
ATOM     14  C   UNL     1      -2.418   0.393  24.838  0.00  0.00    +0.094 C 
ATOM     15  C   UNL     1      -2.600  -0.412  24.859  0.00  0.00    +0.108 C 
ATOM     16  N   UNL     1      -3.115  -0.734  24.301  0.00  0.00    -0.305 N 
ATOM     17  C   UNL     1      -3.449  -0.252  23.722  0.00  0.00    +0.108 C 
ATOM     18  C   UNL     1      -3.269   0.553  23.700  0.00  0.00    +0.094 C 
BRANCH  16  19
ATOM     19  C   UNL     1      -3.296  -1.538  24.323  0.00  0.00    +0.048 A 
ATOM     20  C   UNL     1      -4.000  -1.811  23.991  0.00  0.00    +0.017 A 
ATOM     21  C   UNL     1      -4.181  -2.616  24.012  0.00  0.00    +0.031 A 
ATOM     22  C   UNL     1      -3.658  -3.147  24.366  0.00  0.00    +0.140 A 
ATOM     23  F   UNL     1      -3.840  -3.952  24.387  0.00  0.00    -0.204 F 
ATOM     24  C   UNL     1      -2.954  -2.874  24.698  0.00  0.00    +0.031 A 
ATOM     25  C   UNL     1      -2.773  -2.070  24.676  0.00  0.00    +0.017 A 
ENDBRANCH  16  19
ENDBRANCH  12  13
ENDBRANCH  11  12
ENDBRANCH  10  11
TORSDOF 7
ENDMDL
MODEL 3
REMARK VINA RESULT:     -10.3      2.927      5.200
REMARK  Name = 
REMARK  7 active torsions:
REMARK  status: ('A' for Active; 'I' for Inactive)
REMARK    1  A    between atoms: C_2  and  C_4
REMARK    2  A    between atoms: C_4  and  C_5
REMARK    3  A    between atoms: C_10  and  C_11
REMARK    4  A    between atoms: C_11  and  C_12
REMARK    5  A    between atoms: C_12  and  N_13
REMARK    6  A    between atoms: N_16  and  C_19
REMARK    7  A    between atoms: C_26  and  C_28
REMARK                            x       y       z     vdW  Elec       q    Type
REMARK                         _______ _______ _______ _____ _____    ______ ____
ROOT
ATOM      5  C   UNL     1      -2.696  -1.781  24.613  0.00  0.00    +0.015 C 
ATOM      6  C   UNL     1      -2.042  -2.267  24.478  0.00  0.00    +0.022 C 
ATOM      7  C   UNL     1      -1.290  -1.936  24.407  0.00  0.00    +0.094 C 
ATOM      8  N   UNL     1      -1.191  -1.119  24.470  0.00  0.00    -0.274 N 
ATOM      9  C   UNL     1      -1.844  -0.633  24.605  0.00  0.00    +0.094 C 
ATOM     10  C   UNL     1      -2.597  -0.965  24.677  0.00  0.00    +0.022 C 
ATOM     26  C   UNL     1      -0.438  -0.788  24.398  0.00  0.00    +0.284 C 
ATOM     27  O   UNL     1       0.214  -1.274  24.263  0.00  0.00    -0.267 OA
ENDROOT
BRANCH  26  28
ATOM     28  C   UNL     1      -0.339   0.029  24.461  0.00  0.00    +0.199 A 
ATOM     29  C   UNL     1      -0.187   0.548  23.838  0.00  0.00    +0.045 A 
ATOM     30  C   UNL     1      -0.129   1.309  24.151  0.00  0.00    +0.044 A 
ATOM     31  C   UNL     1      -0.245   1.260  24.966  0.00  0.00    +0.180 A 
ATOM     32  O   UNL     1      -0.375   0.469  25.158  0.00  0.00    -0.446 OA
ENDBRANCH  26  28
BRANCH   5   4
ATOM      4  C   UNL     1      -3.448  -2.112  24.685  0.00  0.00    +0.114 C 
BRANCH   4   2
ATOM      1  O   UNL     1      -3.701  -3.325  23.972  0.00  0.00    -0.246 OA
ATOM      2  C   UNL     1      -3.540  -2.932  24.679  0.00  0.00    +0.365 C 
ATOM      3  O   UNL     1      -3.471  -3.360  25.382  0.00  0.00    -0.246 OA
ENDBRANCH   4   2
ENDBRANCH   5   4
BRANCH  10  11
ATOM     11  C   UNL     1      -3.249  -0.479  24.811  0.00  0.00    +0.019 C 
BRANCH  11  12
ATOM     12  C   UNL     1      -3.488   0.061  24.234  0.00  0.00    +0.072 C 
BRANCH  12  13
ATOM     13  N   UNL     1      -3.871   0.757  24.454  0.00  0.00    -0.270 NA
ATOM     14  C   UNL     1      -4.386   0.759  25.098  0.00  0.00    +0.094 C 
ATOM     15  C   UNL     1      -4.769   1.457  25.317  0.00  0.00    +0.108 C 
ATOM     16  N   UNL     1      -4.636   2.151  24.893  0.00  0.00    -0.305 N 
ATOM     17  C   UNL     1      -4.121   2.149  24.249  0.00  0.00    +0.108 C 
ATOM     18  C   UNL     1      -3.738   1.453  24.029  0.00  0.00    +0.094 C 
BRANCH  16  19
ATOM     19  C   UNL     1      -5.018   2.848  25.113  0.00  0.00    +0.048 A 
ATOM     20  C   UNL     1      -5.799   2.824  25.380  0.00  0.00    +0.017 A 
ATOM     21  C   UNL     1      -6.182   3.521  25.600  0.00  0.00    +0.031 A 
ATOM     22  C   UNL     1      -5.784   4.242  25.552  0.00  0.00    +0.140 A 
ATOM     23  F   UNL     1      -6.167   4.940  25.772  0.00  0.00    -0.204 F 
ATOM     24  C   UNL     1      -5.003   4.267  25.286  0.00  0.00    +0.031 A 
ATOM     25  C   UNL     1      -4.621   3.570  25.066  0.00  0.00    +0.017 A 
ENDBRANCH  16  19
ENDBRANCH  12  13
ENDBRANCH  11  12
ENDBRANCH  10  11
TORSDOF 7
ENDMDL
MODEL 4
REMARK VINA RESULT:     -10.2      3.136      4.910
REMARK  Name = 
REMARK  7 active torsions:
REMARK  status: ('A' for Active; 'I' for Inactive)
REMARK    1  A    between atoms: C_2  and  C_4
REMARK    2  A    between atoms: C_4  and  C_5
REMARK    3  A    between atoms: C_10  and  C_11
REMARK    4  A    between atoms: C_11  and  C_12
REMARK    5  A    between atoms: C_12  and  N_13
REMARK    6  A    between atoms: N_16  and  C_19
REMARK    7  A    between atoms: C_26  and  C_28
REMARK                            x       y       z     vdW  Elec       q    Type
REMARK                         _______ _______ _______ _____ _____    ______ ____
ROOT
ATOM      5  C   UNL     1      -3.647  -0.557  24.520  0.00  0.00    +0.015 C 
ATOM      6  C   UNL     1      -4.413  -0.485  24.816  0.00  0.00    +0.022 C 
ATOM      7  C   UNL     1      -4.734   0.261  24.956  0.00  0.00    +0.094 C 
ATOM      8  N   UNL     1      -4.288   0.938  24.800  0.00  0.00    -0.274 N 
ATOM      9  C   UNL     1      -3.522   0.868  24.504  0.00  0.00    +0.094 C 
ATOM     10  C   UNL     1      -3.201   0.120  24.364  0.00  0.00    +0.022 C 
ATOM     26  C   UNL     1      -4.609   1.685  24.940  0.00  0.00    +0.284 C 
ATOM     27  O   UNL     1      -5.376   1.755  25.236  0.00  0.00    -0.267 OA
ENDROOT
BRANCH  26  28
ATOM     28  C   UNL     1      -4.163   2.362  24.784  0.00  0.00    +0.199 A 
ATOM     29  C   UNL     1      -4.167   2.793  24.080  0.00  0.00    +0.045 A 
ATOM     30  C   UNL     1      -3.642   3.423  24.166  0.00  0.00    +0.044 A 
ATOM     31  C   UNL     1      -3.313   3.381  24.921  0.00  0.00    +0.180 A 
ATOM     32  O   UNL     1      -3.636   2.725  25.303  0.00  0.00    -0.446 OA
ENDBRANCH  26  28
BRANCH   5   4
ATOM      4  C   UNL     1      -3.326  -1.303  24.380  0.00  0.00    +0.114 C 
BRANCH   4   2
ATOM      1  O   UNL     1      -4.316  -2.195  23.865  0.00  0.00    -0.246 OA
ATOM      2  C   UNL     1      -3.795  -1.976  24.466  0.00  0.00    +0.365 C 
ATOM      3  O   UNL     1      -3.744  -2.431  25.153  0.00  0.00    -0.246 OA
ENDBRANCH   4   2
ENDBRANCH   5   4
BRANCH  10  11
ATOM     11  C   UNL     1      -2.434   0.050  24.068  0.00  0.00    +0.019 C 
BRANCH  11  12
ATOM     12  C   UNL     1      -1.794   0.325  24.511  0.00  0.00    +0.072 C 
BRANCH  12  13
ATOM     13  N   UNL     1      -1.038   0.334  24.182  0.00  0.00    -0.270 NA
ATOM     14  C   UNL     1      -0.563  -0.340  24.219  0.00  0.00    +0.094 C 
ATOM     15  C   UNL     1       0.193  -0.330  23.889  0.00  0.00    +0.108 C 
ATOM     16  N   UNL     1       0.474   0.353  23.522  0.00  0.00    -0.305 N 
ATOM     17  C   UNL     1      -0.001   1.027  23.485  0.00  0.00    +0.108 C 
ATOM     18  C   UNL     1      -0.757   1.018  23.814  0.00  0.00    +0.094 C 
BRANCH  16  19
ATOM     19  C   UNL     1       1.230   0.363  23.192  0.00  0.00    +0.048 A 
ATOM     20  C   UNL     1       1.791   0.903  23.463  0.00  0.00    +0.017 A 
ATOM     21  C   UNL     1       2.548   0.913  23.133  0.00  0.00    +0.031 A 
ATOM     22  C   UNL     1       2.742   0.382  22.532  0.00  0.00    +0.140 A 
ATOM     23  F   UNL     1       3.499   0.392  22.202  0.00  0.00    -0.204 F 
ATOM     24  C   UNL     1       2.180  -0.158  22.261  0.00  0.00    +0.031 A 
ATOM     25  C   UNL     1       1.425  -0.168  22.591  0.00  0.00    +0.017 A 
ENDBRANCH  16  19
ENDBRANCH  12  13
ENDBRANCH  11  12
ENDBRANCH  10  11
TORSDOF 7
ENDMDL
MODEL 5
REMARK VINA RESULT:      -9.3      2.850      5.601
REMARK  Name = 
REMARK  7 active torsions:
REMARK  status: ('A' for Active; 'I' for Inactive)
REMARK    1  A    between atoms: C_2  and  C_4
REMARK    2  A    between atoms: C_4  and  C_5
REMARK    3  A    between atoms: C_10  and  C_11
REMARK    4  A    between atoms: C_11  and  C_12
REMARK    5  A    between atoms: C_12  and  N_13
REMARK    6  A    between atoms: N_16  and  C_19
REMARK    7  A    between atoms: C_26  and  C_28
REMARK                            x       y       z     vdW  Elec       q    Type
REMARK                         _______ _______ _______ _____ _____    ______ ____
ROOT
ATOM      5  C   UNL     1      -0.208   0.112  23.935  0.00  0.00    +0.015 C 
ATOM      6  C   UNL     1       0.127  -0.642  23.918  0.00  0.00    +0.022 C 
ATOM      7  C   UNL     1      -0.293  -1.287  24.212  0.00  0.00    +0.094 C 
ATOM      8  N   UNL     1      -1.050  -1.180  24.522  0.00  0.00    -0.274 N 
ATOM      9  C   UNL     1      -1.386  -0.427  24.539  0.00  0.00    +0.094 C 
ATOM     10  C   UNL     1      -0.965   0.220  24.245  0.00  0.00    +0.022 C 
ATOM     26  C   UNL     1      -1.471  -1.826  24.816  0.00  0.00    +0.284 C 
ATOM     27  O   UNL     1      -1.135  -2.579  24.799  0.00  0.00    -0.267 OA
ENDROOT
BRANCH  26  28
ATOM     28  C   UNL     1      -2.228  -1.719  25.127  0.00  0.00    +0.199 A 
ATOM     29  C   UNL     1      -2.937  -1.939  24.765  0.00  0.00    +0.045 A 
ATOM     30  C   UNL     1      -3.555  -1.729  25.268  0.00  0.00    +0.044 A 
ATOM     31  C   UNL     1      -3.230  -1.378  25.940  0.00  0.00    +0.180 A 
ATOM     32  O   UNL     1      -2.410  -1.372  25.853  0.00  0.00    -0.446 OA
ENDBRANCH  26  28
BRANCH   5   4
ATOM      4  C   UNL     1       0.212   0.758  23.642  0.00  0.00    +0.114 C 
BRANCH   4   2
ATOM      1  O   UNL     1       1.199   0.211  22.764  0.00  0.00    -0.246 OA
ATOM      2  C   UNL     1       1.002   0.670  23.421  0.00  0.00    +0.365 C 
ATOM      3  O   UNL     1       1.597   1.040  23.858  0.00  0.00    -0.246 OA
ENDBRANCH   4   2
ENDBRANCH   5   4
BRANCH  10  11
ATOM     11  C   UNL     1      -1.301   0.973  24.263  0.00  0.00    +0.019 C 
BRANCH  11  12
ATOM     12  C   UNL     1      -1.950   1.145  23.782  0.00  0.00    +0.072 C 
BRANCH  12  13
ATOM     13  N   UNL     1      -2.563   1.615  24.071  0.00  0.00    -0.270 NA
ATOM     14  C   UNL     1      -2.439   2.097  24.729  0.00  0.00    +0.094 C 
ATOM     15  C   UNL     1      -3.054   2.567  25.017  0.00  0.00    +0.108 C 
ATOM     16  N   UNL     1      -3.790   2.555  24.648  0.00  0.00    -0.305 N 
ATOM     17  C   UNL     1      -3.914   2.074  23.989  0.00  0.00    +0.108 C 
ATOM     18  C   UNL     1      -3.301   1.604  23.700  0.00  0.00    +0.094 C 
BRANCH  16  19
ATOM     19  C   UNL     1      -4.404   3.025  24.936  0.00  0.00    +0.048 A 
ATOM     20  C   UNL     1      -4.342   3.847  24.907  0.00  0.00    +0.017 A 
ATOM     21  C   UNL     1      -4.956   4.318  25.195  0.00  0.00    +0.031 A 
ATOM     22  C   UNL     1      -5.631   3.965  25.513  0.00  0.00    +0.140 A 
ATOM     23  F   UNL     1      -6.245   4.436  25.801  0.00  0.00    -0.204 F 
ATOM     24  C   UNL     1      -5.692   3.143  25.542  0.00  0.00    +0.031 A 
ATOM     25  C   UNL     1      -5.079   2.673  25.254  0.00  0.00    +0.017 A 
ENDBRANCH  16  19
ENDBRANCH  12  13
ENDBRANCH  11  12
ENDBRANCH  10  11
TORSDOF 7
ENDMDL
MODEL 6
REMARK VINA RESULT:      -9.2      2.874      4.748
REMARK  Name = 
REMARK  7 active torsions:
REMARK  status: ('A' for Active; 'I' for Inactive)
REMARK    1  A    between atoms: C_2  and  C_4
REMARK    2  A    between atoms: C_4  and  C_5
REMARK    3  A    between atoms: C_10  and  C_11
REMARK    4  A    between atoms: C_11  and  C_12
REMARK    5  A    between atoms: C_12  and  N_13
REMARK    6  A    between atoms: N_16  and  C_19
REMARK    7  A    between atoms: C_26  and  C_28
REMARK                            x       y       z     vdW  Elec       q    Type
REMARK                         _______ _______ _______ _____ _____    ______ ____
ROOT
ATOM      5  C   UNL     1      -3.234   2.366  24.643  0.00  0.00    +0.015 C 
ATOM      6  C   UNL     1      -4.003   2.405  24.938  0.00  0.00    +0.022 C 
ATOM      7  C   UNL     1      -4.420   1.712  25.098  0.00  0.00    +0.094 C 
ATOM      8  N   UNL     1      -4.067   0.978  24.963  0.00  0.00    -0.274 N 
ATOM      9  C   UNL     1      -3.298   0.938  24.668  0.00  0.00    +0.094 C 
ATOM     10  C   UNL     1      -2.881   1.632  24.508  0.00  0.00    +0.022 C 
ATOM     26  C   UNL     1      -4.484   0.284  25.123  0.00  0.00    +0.284 C 
ATOM     27  O   UNL     1      -5.254   0.324  25.418  0.00  0.00    -0.267 OA
ENDROOT
BRANCH  26  28
ATOM     28  C   UNL     1      -4.132  -0.450  24.988  0.00  0.00    +0.199 A 
ATOM     29  C   UNL     1      -4.193  -0.898  24.298  0.00  0.00    +0.045 A 
ATOM     30  C   UNL     1      -3.756  -1.589  24.403  0.00  0.00    +0.044 A 
ATOM     31  C   UNL     1      -3.423  -1.568  25.158  0.00  0.00    +0.180 A 
ATOM     32  O   UNL     1      -3.656  -0.864  25.519  0.00  0.00    -0.446 OA
ENDBRANCH  26  28
BRANCH   5   4
ATOM      4  C   UNL     1      -2.817   3.059  24.483  0.00  0.00    +0.114 C 
BRANCH   4   2
ATOM      1  O   UNL     1      -3.659   4.164  24.148  0.00  0.00    -0.246 OA
ATOM      2  C   UNL     1      -3.145   3.791  24.675  0.00  0.00    +0.365 C 
ATOM      3  O   UNL     1      -2.960   4.150  25.395  0.00  0.00    -0.246 OA
ENDBRANCH   4   2
ENDBRANCH   5   4
BRANCH  10  11
ATOM     11  C   UNL     1      -2.112   1.592  24.213  0.00  0.00    +0.019 C 
BRANCH  11  12
ATOM     12  C   UNL     1      -1.534   1.170  24.626  0.00  0.00    +0.072 C 
BRANCH  12  13
ATOM     13  N   UNL     1      -0.800   1.029  24.277  0.00  0.00    -0.270 NA
ATOM     14  C   UNL     1      -0.207   1.601  24.315  0.00  0.00    +0.094 C 
ATOM     15  C   UNL     1       0.527   1.458  23.965  0.00  0.00    +0.108 C 
ATOM     16  N   UNL     1       0.668   0.743  23.578  0.00  0.00    -0.305 N 
ATOM     17  C   UNL     1       0.075   0.171  23.540  0.00  0.00    +0.108 C 
ATOM     18  C   UNL     1      -0.659   0.313  23.889  0.00  0.00    +0.094 C 
BRANCH  16  19
ATOM     19  C   UNL     1       1.401   0.601  23.230  0.00  0.00    +0.048 A 
ATOM     20  C   UNL     1       1.482  -0.001  22.672  0.00  0.00    +0.017 A 
ATOM     21  C   UNL     1       2.216  -0.145  22.322  0.00  0.00    +0.031 A 
ATOM     22  C   UNL     1       2.868   0.315  22.531  0.00  0.00    +0.140 A 
ATOM     23  F   UNL     1       3.602   0.172  22.181  0.00  0.00    -0.204 F 
ATOM     24  C   UNL     1       2.787   0.917  23.089  0.00  0.00    +0.031 A 
ATOM     25  C   UNL     1       2.054   1.060  23.438  0.00  0.00    +0.017 A 
ENDBRANCH  16  19
ENDBRANCH  12  13
ENDBRANCH  11  12
ENDBRANCH  10  11
TORSDOF 7
ENDMDL
MODEL 7
REMARK VINA RESULT:      -9.1      3.033      6.127
REMARK  Name = 
REMARK  7 active torsions:
REMARK  status: ('A' for Active; 'I' for Inactive)
REMARK    1  A    between atoms: C_2  and  C_4
REMARK    2  A    between atoms: C_4  and  C_5
REMARK    3  A    between atoms: C_10  and  C_11
REMARK    4  A    between atoms: C_11  and  C_12
REMARK    5  A    between atoms: C_12  and  N_13
REMARK    6  A    between atoms: N_16  and  C_19
REMARK    7  A    between atoms: C_26  and  C_28
REMARK                            x       y       z     vdW  Elec       q    Type
REMARK                         _______ _______ _______ _____ _____    ______ ____
ROOT
ATOM      5  C   UNL     1      -1.323  -1.487  24.921  0.00  0.00    +0.015 C 
ATOM      6  C   UNL     1      -1.775  -2.165  24.796  0.00  0.00    +0.022 C 
ATOM      7  C   UNL     1      -2.594  -2.108  24.721  0.00  0.00    +0.094 C 
ATOM      8  N   UNL     1      -2.962  -1.371  24.771  0.00  0.00    -0.274 N 
ATOM      9  C   UNL     1      -2.511  -0.692  24.896  0.00  0.00    +0.094 C 
ATOM     10  C   UNL     1      -1.691  -0.750  24.971  0.00  0.00    +0.022 C 
ATOM     26  C   UNL     1      -3.782  -1.314  24.696  0.00  0.00    +0.284 C 
ATOM     27  O   UNL     1      -4.233  -1.993  24.572  0.00  0.00    -0.267 OA
ENDROOT
BRANCH  26  28
ATOM     28  C   UNL     1      -4.150  -0.577  24.746  0.00  0.00    +0.199 A 
ATOM     29  C   UNL     1      -4.416  -0.123  24.110  0.00  0.00    +0.045 A 
ATOM     30  C   UNL     1      -4.747   0.569  24.412  0.00  0.00    +0.044 A 
ATOM     31  C   UNL     1      -4.686   0.543  25.234  0.00  0.00    +0.180 A 
ATOM     32  O   UNL     1      -4.317  -0.164  25.441  0.00  0.00    -0.446 OA
ENDBRANCH  26  28
BRANCH   5   4
ATOM      4  C   UNL     1      -0.504  -1.544  24.995  0.00  0.00    +0.114 C 
BRANCH   4   2
ATOM      1  O   UNL     1       0.184  -2.184  26.072  0.00  0.00    -0.246 OA
ATOM      2  C   UNL     1      -0.166  -2.220  25.326  0.00  0.00    +0.365 C 
ATOM      3  O   UNL     1      -0.179  -2.934  24.911  0.00  0.00    -0.246 OA
ENDBRANCH   4   2
ENDBRANCH   5   4
BRANCH  10  11
ATOM     11  C   UNL     1      -1.240  -0.071  25.095  0.00  0.00    +0.019 C 
BRANCH  11  12
ATOM     12  C   UNL     1      -1.079   0.439  24.466  0.00  0.00    +0.072 C 
BRANCH  12  13
ATOM     13  N   UNL     1      -1.124   1.255  24.574  0.00  0.00    -0.270 NA
ATOM     14  C   UNL     1      -0.994   1.580  25.321  0.00  0.00    +0.094 C 
ATOM     15  C   UNL     1      -1.039   2.397  25.429  0.00  0.00    +0.108 C 
ATOM     16  N   UNL     1      -1.215   2.888  24.791  0.00  0.00    -0.305 N 
ATOM     17  C   UNL     1      -1.346   2.563  24.044  0.00  0.00    +0.108 C 
ATOM     18  C   UNL     1      -1.301   1.747  23.935  0.00  0.00    +0.094 C 
BRANCH  16  19
ATOM     19  C   UNL     1      -1.260   3.704  24.899  0.00  0.00    +0.048 A 
ATOM     20  C   UNL     1      -0.629   4.186  24.675  0.00  0.00    +0.017 A 
ATOM     21  C   UNL     1      -0.674   5.003  24.783  0.00  0.00    +0.031 A 
ATOM     22  C   UNL     1      -1.351   5.338  25.115  0.00  0.00    +0.140 A 
ATOM     23  F   UNL     1      -1.396   6.155  25.223  0.00  0.00    -0.204 F 
ATOM     24  C   UNL     1      -1.982   4.856  25.339  0.00  0.00    +0.031 A 
ATOM     25  C   UNL     1      -1.937   4.040  25.231  0.00  0.00    +0.017 A 
ENDBRANCH  16  19
ENDBRANCH  12  13
ENDBRANCH  11  12
ENDBRANCH  10  11
TORSDOF 7
ENDMDL
