MODEL 1
REMARK VINA RESULT:     -12.2      0.000      0.000
REMARK  Name = 
REMARK  4 active torsions:
REMARK  status: ('A' for Active; 'I' for Inactive)
REMARK    1  A    between atoms: S_2  and  C_5
REMARK    2  A    between atoms: C_8  and  C_9
REMARK    3  A    between atoms: C_9  and  N_10
REMARK    4  A    between atoms: C_13  and  C_15
REMARK                            x       y       z     vdW  Elec       q    Type
REMARK                         _______ _______ _______ _____ _____    ______ ____
ROOT
ATOM     10  N   UNL     1      -4.340   1.280  24.913  0.00  0.00    -0.269 NA
ATOM     11  C   UNL     1      -4.664   1.721  24.296  0.00  0.00    +0.073 C 
ATOM     12  C   UNL     1      -4.190   2.387  24.183  0.00  0.00    +0.025 C 
ATOM     13  C   UNL     1      -3.573   2.357  24.731  0.00  0.00    +0.064 C 
ATOM     14  C   UNL     1      -3.666   1.673  25.182  0.00  0.00    +0.079 C 
ENDROOT
BRANCH  13  15
ATOM     15  C   UNL     1      -2.970   2.914  24.813  0.00  0.00    +0.089 A 
ATOM     16  N   UNL     1      -2.168   2.784  24.672  0.00  0.00    -0.243 NA
ATOM     17  C   UNL     1      -1.765   3.488  24.822  0.00  0.00    +0.087 A 
ATOM     18  C   UNL     1      -2.319   4.053  25.055  0.00  0.00    +0.048 A 
ATOM     19  S   UNL     1      -3.063   3.699  25.050  0.00  0.00    -0.071 S 
ATOM     20  C   UNL     1      -2.072   4.818  25.243  0.00  0.00    +0.008 A 
ATOM     21  C   UNL     1      -1.274   5.017  25.197  0.00  0.00    +0.001 A 
ATOM     22  C   UNL     1      -0.720   4.452  24.963  0.00  0.00    +0.002 A 
ATOM     23  C   UNL     1      -0.965   3.687  24.776  0.00  0.00    +0.020 A 
ENDBRANCH  13  15
BRANCH  10   9
ATOM      9  C   UNL     1      -4.638   0.570  25.210  0.00  0.00    +0.099 C 
BRANCH   9   8
ATOM      5  C   UNL     1      -3.449  -1.554  24.765  0.00  0.00    +0.106 A 
ATOM      6  C   UNL     1      -3.374  -1.186  25.498  0.00  0.00    +0.018 A 
ATOM      7  C   UNL     1      -3.770  -0.477  25.647  0.00  0.00    -0.002 A 
ATOM      8  C   UNL     1      -4.242  -0.138  25.061  0.00  0.00    -0.006 A 
ATOM     24  C   UNL     1      -4.317  -0.507  24.327  0.00  0.00    -0.002 A 
ATOM     25  C   UNL     1      -3.920  -1.215  24.179  0.00  0.00    +0.018 A 
BRANCH   5   2
ATOM      1  C   UNL     1      -2.655  -2.970  24.468  0.00  0.00    +0.182 C 
ATOM      2  S   UNL     1      -3.052  -2.263  24.616  0.00  0.00    +0.010 S 
ATOM      3  O   UNL     1      -2.415  -1.841  24.304  0.00  0.00    -0.169 OA
ATOM      4  O   UNL     1      -3.688  -2.684  24.929  0.00  0.00    -0.169 OA
ENDBRANCH   5   2
ENDBRANCH   9   8
ENDBRANCH  10   9
TORSDOF 4
ENDMDL
MODEL 2
REMARK VINA RESULT:     -12.2      1.995      5.168
REMARK  Name = 
REMARK  4 active torsions:
REMARK  status: ('A' for Active; 'I' for Inactive)
REMARK    1  A    between atoms: S_2  and  C_5
REMARK    2  A    between atoms: C_8  and  C_9
REMARK    3  A    between atoms: C_9  and  N_10
REMARK    4  A    between atoms: C_13  and  C_15
REMARK                            x       y       z     vdW  Elec       q    Type
REMARK                         _______ _______ _______ _____ _____    ______ ____
ROOT
ATOM     10  N   UNL     1      -4.584   1.980  24.701  0.00  0.00    -0.269 NA
ATOM     11  C   UNL     1      -5.137   1.759  25.273  0.00  0.00    +0.073 C 
ATOM     12  C   UNL     1      -5.092   0.940  25.368  0.00  0.00    +0.025 C 
ATOM     13  C   UNL     1      -4.512   0.655  24.854  0.00  0.00    +0.064 C 
ATOM     14  C   UNL     1      -4.198   1.297  24.443  0.00  0.00    +0.079 C 
ENDROOT
BRANCH  13  15
ATOM     15  C   UNL     1      -4.286  -0.134  24.768  0.00  0.00    +0.089 A 
ATOM     16  N   UNL     1      -4.489  -0.631  24.143  0.00  0.00    -0.243 NA
ATOM     17  C   UNL     1      -4.145  -1.368  24.281  0.00  0.00    +0.087 A 
ATOM     18  C   UNL     1      -3.730  -1.326  24.992  0.00  0.00    +0.048 A 
ATOM     19  S   UNL     1      -3.816  -0.564  25.294  0.00  0.00    -0.071 S 
ATOM     20  C   UNL     1      -3.326  -1.989  25.273  0.00  0.00    +0.008 A 
ATOM     21  C   UNL     1      -3.338  -2.692  24.843  0.00  0.00    +0.001 A 
ATOM     22  C   UNL     1      -3.754  -2.734  24.132  0.00  0.00    +0.002 A 
ATOM     23  C   UNL     1      -4.157  -2.072  23.850  0.00  0.00    +0.020 A 
ENDBRANCH  13  15
BRANCH  10   9
ATOM      9  C   UNL     1      -4.442   2.747  24.435  0.00  0.00    +0.099 C 
BRANCH   9   8
ATOM      5  C   UNL     1      -2.305   3.871  24.979  0.00  0.00    +0.106 A 
ATOM      6  C   UNL     1      -2.387   3.464  24.266  0.00  0.00    +0.018 A 
ATOM      7  C   UNL     1      -3.099   3.089  24.085  0.00  0.00    -0.002 A 
ATOM      8  C   UNL     1      -3.730   3.122  24.617  0.00  0.00    -0.006 A 
ATOM     24  C   UNL     1      -3.647   3.529  25.329  0.00  0.00    -0.002 A 
ATOM     25  C   UNL     1      -2.935   3.903  25.510  0.00  0.00    +0.018 A 
BRANCH   5   2
ATOM      1  C   UNL     1      -0.880   4.621  25.341  0.00  0.00    +0.182 C 
ATOM      2  S   UNL     1      -1.592   4.245  25.160  0.00  0.00    +0.010 S 
ATOM      3  O   UNL     1      -1.933   4.977  24.988  0.00  0.00    -0.169 OA
ATOM      4  O   UNL     1      -1.251   3.515  25.332  0.00  0.00    -0.169 OA
ENDBRANCH   5   2
ENDBRANCH   9   8
ENDBRANCH  10   9
TORSDOF 4
ENDMDL
MODEL 3
REMARK VINA RESULT:     -11.5      1.654      2.175
REMARK  Name = 
REMARK  4 active torsions:
REMARK  status: ('A' for Active; 'I' for Inactive)
REMARK    1  A    between atoms: S_2  and  C_5
REMARK    2  A    between atoms: C_8  and  C_9
REMARK    3  A    between atoms: C_9  and  N_10
REMARK    4  A    between atoms: C_13  and  C_15
REMARK                            x       y       z     vdW  Elec       q    Type
REMARK                         _______ _______ _______ _____ _____    ______ ____
ROOT
ATOM     10  N   UNL     1      -1.093   0.210  25.425  0.00  0.00    -0.269 NA
ATOM     11  C   UNL     1      -0.516   0.300  24.843  0.00  0.00    +0.073 C 
ATOM     12  C   UNL     1      -0.452   1.105  24.671  0.00  0.00    +0.025 C 
ATOM     13  C   UNL     1      -0.989   1.511  25.148  0.00  0.00    +0.064 C 
ATOM     14  C   UNL     1      -1.385   0.958  25.614  0.00  0.00    +0.079 C 
ENDROOT
BRANCH  13  15
ATOM     15  C   UNL     1      -1.109   2.328  25.157  0.00  0.00    +0.089 A 
ATOM     16  N   UNL     1      -1.774   2.717  25.450  0.00  0.00    -0.243 NA
ATOM     17  C   UNL     1      -1.661   3.527  25.348  0.00  0.00    +0.087 A 
ATOM     18  C   UNL     1      -0.925   3.639  24.992  0.00  0.00    +0.048 A 
ATOM     19  S   UNL     1      -0.584   2.898  24.873  0.00  0.00    -0.071 S 
ATOM     20  C   UNL     1      -0.661   4.402  24.822  0.00  0.00    +0.008 A 
ATOM     21  C   UNL     1      -1.132   5.053  25.007  0.00  0.00    +0.001 A 
ATOM     22  C   UNL     1      -1.868   4.941  25.364  0.00  0.00    +0.002 A 
ATOM     23  C   UNL     1      -2.133   4.179  25.534  0.00  0.00    +0.020 A 
ENDBRANCH  13  15
BRANCH  10   9
ATOM      9  C   UNL     1      -1.336  -0.504  25.761  0.00  0.00    +0.099 C 
BRANCH   9   8
ATOM      5  C   UNL     1      -3.117  -1.839  24.679  0.00  0.00    +0.106 A 
ATOM      6  C   UNL     1      -3.312  -1.277  25.250  0.00  0.00    +0.018 A 
ATOM      7  C   UNL     1      -2.718  -0.831  25.611  0.00  0.00    -0.002 A 
ATOM      8  C   UNL     1      -1.929  -0.949  25.400  0.00  0.00    -0.006 A 
ATOM     24  C   UNL     1      -1.734  -1.511  24.829  0.00  0.00    -0.002 A 
ATOM     25  C   UNL     1      -2.328  -1.956  24.468  0.00  0.00    +0.018 A 
BRANCH   5   2
ATOM      1  C   UNL     1      -4.305  -2.728  23.957  0.00  0.00    +0.182 C 
ATOM      2  S   UNL     1      -3.711  -2.284  24.318  0.00  0.00    +0.010 S 
ATOM      3  O   UNL     1      -3.905  -1.638  23.842  0.00  0.00    -0.169 OA
ATOM      4  O   UNL     1      -3.518  -2.928  24.794  0.00  0.00    -0.169 OA
ENDBRANCH   5   2
ENDBRANCH   9   8
ENDBRANCH  10   9
TORSDOF 4
ENDMDL
MODEL 4
REMARK VINA RESULT:     -11.3      2.533      5.650
REMARK  Name = 
REMARK  4 active torsions:
REMARK  status: ('A' for Active; 'I' for Inactive)
REMARK    1  A    between atoms: S_2  and  C_5
REMARK    2  A    between atoms: C_8  and  C_9
REMARK    3  A    between atoms: C_9  and  N_10
REMARK    4  A    between atoms: C_13  and  C_15
REMARK                            x       y       z     vdW  Elec       q    Type
REMARK                         _______ _______ _______ _____ _____    ______ ____
ROOT
ATOM     10  N   UNL     1      -0.760   0.783  25.017  0.00  0.00    -0.269 NA
ATOM     11  C   UNL     1      -0.756   0.443  25.768  0.00  0.00    +0.073 C 
ATOM     12  C   UNL     1      -1.315  -0.165  25.776  0.00  0.00    +0.025 C 
ATOM     13  C   UNL     1      -1.663  -0.201  25.029  0.00  0.00    +0.064 C 
ATOM     14  C   UNL     1      -1.320   0.385  24.560  0.00  0.00    +0.079 C 
ENDROOT
BRANCH  13  15
ATOM     15  C   UNL     1      -2.251  -0.729  24.793  0.00  0.00    +0.089 A 
ATOM     16  N   UNL     1      -2.967  -0.530  24.434  0.00  0.00    -0.243 NA
ATOM     17  C   UNL     1      -3.384  -1.227  24.294  0.00  0.00    +0.087 A 
ATOM     18  C   UNL     1      -2.926  -1.858  24.566  0.00  0.00    +0.048 A 
ATOM     19  S   UNL     1      -2.226  -1.550  24.874  0.00  0.00    -0.071 S 
ATOM     20  C   UNL     1      -3.207  -2.630  24.497  0.00  0.00    +0.008 A 
ATOM     21  C   UNL     1      -3.945  -2.773  24.157  0.00  0.00    +0.001 A 
ATOM     22  C   UNL     1      -4.402  -2.142  23.885  0.00  0.00    +0.002 A 
ATOM     23  C   UNL     1      -4.122  -1.370  23.954  0.00  0.00    +0.020 A 
ENDBRANCH  13  15
BRANCH  10   9
ATOM      9  C   UNL     1      -0.287   1.410  24.766  0.00  0.00    +0.099 C 
BRANCH   9   8
ATOM      5  C   UNL     1      -1.078   3.740  25.026  0.00  0.00    +0.106 A 
ATOM      6  C   UNL     1      -1.213   3.335  24.320  0.00  0.00    +0.018 A 
ATOM      7  C   UNL     1      -0.950   2.558  24.233  0.00  0.00    -0.002 A 
ATOM      8  C   UNL     1      -0.550   2.187  24.853  0.00  0.00    -0.006 A 
ATOM     24  C   UNL     1      -0.415   2.591  25.558  0.00  0.00    -0.002 A 
ATOM     25  C   UNL     1      -0.679   3.369  25.645  0.00  0.00    +0.018 A 
BRANCH   5   2
ATOM      1  C   UNL     1      -1.606   5.294  25.198  0.00  0.00    +0.182 C 
ATOM      2  S   UNL     1      -1.342   4.517  25.112  0.00  0.00    +0.010 S 
ATOM      3  O   UNL     1      -0.614   4.795  24.842  0.00  0.00    -0.169 OA
ATOM      4  O   UNL     1      -2.070   4.240  25.382  0.00  0.00    -0.169 OA
ENDBRANCH   5   2
ENDBRANCH   9   8
ENDBRANCH  10   9
TORSDOF 4
ENDMDL
