MODEL 1
REMARK VINA RESULT:     -11.3      0.000      0.000
REMARK  Name = 
REMARK  8 active torsions:
REMARK  status: ('A' for Active; 'I' for Inactive)
REMARK    1  A    between atoms: C_2  and  N_3
REMARK    2  A    between atoms: N_3  and  C_4
REMARK    3  A    between atoms: C_6  and  C_8
REMARK    4  A    between atoms: C_8  and  C_9
REMARK    5  A    between atoms: C_9  and  C_10
REMARK    6  A    between atoms: C_17  and  N_20
REMARK    7  A    between atoms: N_20  and  C_21
REMARK    8  A    between atoms: C_21  and  C_22
REMARK                            x       y       z     vdW  Elec       q    Type
REMARK                         _______ _______ _______ _____ _____    ______ ____
ROOT
ATOM     10  C   UNL     1      -4.020   2.856  24.817  0.00  0.00    +0.080 C 
ATOM     11  C   UNL     1      -4.424   3.529  25.067  0.00  0.00    +0.131 C 
ATOM     12  N   UNL     1      -5.160   3.455  25.433  0.00  0.00    -0.203 NA
ATOM     13  C   UNL     1      -5.491   2.708  25.547  0.00  0.00    +0.256 C 
ATOM     14  O   UNL     1      -6.227   2.635  25.913  0.00  0.00    -0.272 OA
ATOM     15  C   UNL     1      -5.086   2.035  25.296  0.00  0.00    +0.138 C 
ATOM     16  C   UNL     1      -5.272   1.232  25.334  0.00  0.00    +0.044 C 
ATOM     17  C   UNL     1      -4.652   0.810  24.993  0.00  0.00    +0.091 C 
ATOM     18  C   UNL     1      -4.082   1.351  24.743  0.00  0.00    +0.090 C 
ATOM     19  N   UNL     1      -4.351   2.109  24.931  0.00  0.00    -0.265 NA
ENDROOT
BRANCH  10   9
ATOM      9  C   UNL     1      -3.283   2.929  24.451  0.00  0.00    +0.027 C 
BRANCH   9   8
ATOM      8  C   UNL     1      -2.732   3.472  24.739  0.00  0.00    +0.087 C 
BRANCH   8   6
ATOM      3  N   UNL     1      -1.387   3.946  24.815  0.00  0.00    -0.280 N 
ATOM      6  C   UNL     1      -1.936   3.395  24.541  0.00  0.00    +0.226 C 
ATOM      7  O   UNL     1      -1.686   2.766  24.068  0.00  0.00    -0.275 OA
BRANCH   3   2
ATOM      1  C   UNL     1      -0.059   3.546  25.161  0.00  0.00    +0.023 C 
ATOM      2  C   UNL     1      -0.589   3.869  24.618  0.00  0.00    +0.093 C 
ENDBRANCH   3   2
BRANCH   3   4
ATOM      4  C   UNL     1      -1.635   4.575  25.288  0.00  0.00    +0.093 C 
ATOM      5  C   UNL     1      -1.348   5.336  25.145  0.00  0.00    +0.023 C 
ENDBRANCH   3   4
ENDBRANCH   8   6
ENDBRANCH   9   8
ENDBRANCH  10   9
BRANCH  17  20
ATOM     20  N   UNL     1      -4.609  -0.011  24.914  0.00  0.00    -0.213 NA
BRANCH  20  21
ATOM     21  C   UNL     1      -3.959  -0.355  24.539  0.00  0.00    +0.115 C 
BRANCH  21  22
ATOM     22  C   UNL     1      -3.891  -1.177  24.505  0.00  0.00    -0.005 A 
ATOM     23  C   UNL     1      -3.486  -1.581  25.100  0.00  0.00    -0.001 A 
ATOM     24  C   UNL     1      -3.417  -2.403  25.066  0.00  0.00    +0.029 A 
ATOM     25  C   UNL     1      -3.754  -2.820  24.439  0.00  0.00    +0.140 A 
ATOM     26  F   UNL     1      -3.685  -3.641  24.406  0.00  0.00    -0.204 F 
ATOM     27  C   UNL     1      -4.159  -2.415  23.845  0.00  0.00    +0.029 A 
ATOM     28  C   UNL     1      -4.228  -1.594  23.878  0.00  0.00    -0.001 A 
ENDBRANCH  21  22
ENDBRANCH  20  21
ENDBRANCH  17  20
TORSDOF 8
ENDMDL
MODEL 2
REMARK VINA RESULT:     -11.3      2.180      5.176
REMARK  Name = 
REMARK  8 active torsions:
REMARK  status: ('A' for Active; 'I' for Inactive)
REMARK    1  A    between atoms: C_2  and  N_3
REMARK    2  A    between atoms: N_3  and  C_4
REMARK    3  A    between atoms: C_6  and  C_8
REMARK    4  A    between atoms: C_8  and  C_9
REMARK    5  A    between atoms: C_9  and  C_10
REMARK    6  A    between atoms: C_17  and  N_20
REMARK    7  A    between atoms: N_20  and  C_21
REMARK    8  A    between atoms: C_21  and  C_22
REMARK                            x       y       z     vdW  Elec       q    Type
REMARK                         _______ _______ _______ _____ _____    ______ ____
ROOT
ATOM     10  C   UNL     1      -4.923   1.288  24.987  0.00  0.00    +0.080 C 
ATOM     11  C   UNL     1      -5.658   1.104  25.310  0.00  0.00    +0.131 C 
ATOM     12  N   UNL     1      -6.082   1.678  25.723  0.00  0.00    -0.203 NA
ATOM     13  C   UNL     1      -5.771   2.437  25.812  0.00  0.00    +0.256 C 
ATOM     14  O   UNL     1      -6.196   3.011  26.225  0.00  0.00    -0.272 OA
ATOM     15  C   UNL     1      -5.035   2.621  25.488  0.00  0.00    +0.138 C 
ATOM     16  C   UNL     1      -4.591   3.316  25.486  0.00  0.00    +0.044 C 
ATOM     17  C   UNL     1      -3.893   3.172  25.072  0.00  0.00    +0.091 C 
ATOM     18  C   UNL     1      -3.904   2.387  24.818  0.00  0.00    +0.090 C 
ATOM     19  N   UNL     1      -4.611   2.047  25.075  0.00  0.00    -0.265 NA
ENDROOT
BRANCH  10   9
ATOM      9  C   UNL     1      -4.498   0.713  24.574  0.00  0.00    +0.027 C 
BRANCH   9   8
ATOM      8  C   UNL     1      -4.372  -0.029  24.911  0.00  0.00    +0.087 C 
BRANCH   8   6
ATOM      3  N   UNL     1      -3.683  -1.277  24.831  0.00  0.00    -0.280 N 
ATOM      6  C   UNL     1      -4.049  -0.638  24.460  0.00  0.00    +0.226 C 
ATOM      7  O   UNL     1      -4.090  -0.608  23.636  0.00  0.00    -0.275 OA
BRANCH   3   2
ATOM      1  C   UNL     1      -3.666  -2.651  24.435  0.00  0.00    +0.023 C 
ATOM      2  C   UNL     1      -3.359  -1.887  24.378  0.00  0.00    +0.093 C 
ENDBRANCH   3   2
BRANCH   3   4
ATOM      4  C   UNL     1      -3.640  -1.308  25.654  0.00  0.00    +0.093 C 
ATOM      5  C   UNL     1      -2.929  -1.507  26.023  0.00  0.00    +0.023 C 
ENDBRANCH   3   4
ENDBRANCH   8   6
ENDBRANCH   9   8
ENDBRANCH  10   9
BRANCH  17  20
ATOM     20  N   UNL     1      -3.287   3.716  24.936  0.00  0.00    -0.213 NA
BRANCH  20  21
ATOM     21  C   UNL     1      -2.651   3.763  25.458  0.00  0.00    +0.115 C 
BRANCH  21  22
ATOM     22  C   UNL     1      -1.984   4.207  25.257  0.00  0.00    -0.005 A 
ATOM     23  C   UNL     1      -2.025   5.031  25.248  0.00  0.00    -0.001 A 
ATOM     24  C   UNL     1      -1.359   5.475  25.046  0.00  0.00    +0.029 A 
ATOM     25  C   UNL     1      -0.652   5.095  24.854  0.00  0.00    +0.140 A 
ATOM     26  F   UNL     1       0.013   5.538  24.653  0.00  0.00    -0.204 F 
ATOM     27  C   UNL     1      -0.612   4.270  24.864  0.00  0.00    +0.029 A 
ATOM     28  C   UNL     1      -1.278   3.827  25.065  0.00  0.00    -0.001 A 
ENDBRANCH  21  22
ENDBRANCH  20  21
ENDBRANCH  17  20
TORSDOF 8
ENDMDL
MODEL 3
REMARK VINA RESULT:     -10.0      1.668      3.203
REMARK  Name = 
REMARK  8 active torsions:
REMARK  status: ('A' for Active; 'I' for Inactive)
REMARK    1  A    between atoms: C_2  and  N_3
REMARK    2  A    between atoms: N_3  and  C_4
REMARK    3  A    between atoms: C_6  and  C_8
REMARK    4  A    between atoms: C_8  and  C_9
REMARK    5  A    between atoms: C_9  and  C_10
REMARK    6  A    between atoms: C_17  and  N_20
REMARK    7  A    between atoms: N_20  and  C_21
REMARK    8  A    between atoms: C_21  and  C_22
REMARK                            x       y       z     vdW  Elec       q    Type
REMARK                         _______ _______ _______ _____ _____    ______ ____
ROOT
ATOM     10  C   UNL     1      -1.545   2.470  24.194  0.00  0.00    +0.080 C 
ATOM     11  C   UNL     1      -0.921   3.007  24.236  0.00  0.00    +0.131 C 
ATOM     12  N   UNL     1      -0.148   2.733  24.331  0.00  0.00    -0.203 NA
ATOM     13  C   UNL     1      -0.001   1.923  24.384  0.00  0.00    +0.256 C 
ATOM     14  O   UNL     1       0.772   1.650  24.478  0.00  0.00    -0.272 OA
ATOM     15  C   UNL     1      -0.626   1.387  24.342  0.00  0.00    +0.138 C 
ATOM     16  C   UNL     1      -0.650   0.563  24.377  0.00  0.00    +0.044 C 
ATOM     17  C   UNL     1      -1.436   0.327  24.305  0.00  0.00    +0.091 C 
ATOM     18  C   UNL     1      -1.900   1.005  24.224  0.00  0.00    +0.090 C 
ATOM     19  N   UNL     1      -1.398   1.660  24.247  0.00  0.00    -0.265 NA
ENDROOT
BRANCH  10   9
ATOM      9  C   UNL     1      -2.319   2.743  24.099  0.00  0.00    +0.027 C 
BRANCH   9   8
ATOM      8  C   UNL     1      -2.642   3.266  24.650  0.00  0.00    +0.087 C 
BRANCH   8   6
ATOM      3  N   UNL     1      -3.847   3.709  25.274  0.00  0.00    -0.280 N 
ATOM      6  C   UNL     1      -3.436   3.481  24.597  0.00  0.00    +0.226 C 
ATOM      7  O   UNL     1      -3.820   3.468  23.866  0.00  0.00    -0.275 OA
BRANCH   3   2
ATOM      1  C   UNL     1      -5.219   3.469  25.596  0.00  0.00    +0.023 C 
ATOM      2  C   UNL     1      -4.643   3.925  25.222  0.00  0.00    +0.093 C 
ENDBRANCH   3   2
BRANCH   3   4
ATOM      4  C   UNL     1      -3.465   3.723  26.005  0.00  0.00    +0.093 C 
ATOM      5  C   UNL     1      -3.505   4.398  26.479  0.00  0.00    +0.023 C 
ENDBRANCH   3   4
ENDBRANCH   8   6
ENDBRANCH   9   8
ENDBRANCH  10   9
BRANCH  17  20
ATOM     20  N   UNL     1      -1.713  -0.451  24.311  0.00  0.00    -0.213 NA
BRANCH  20  21
ATOM     21  C   UNL     1      -2.348  -0.658  24.794  0.00  0.00    +0.115 C 
BRANCH  21  22
ATOM     22  C   UNL     1      -2.763  -1.358  24.652  0.00  0.00    -0.005 A 
ATOM     23  C   UNL     1      -2.406  -2.086  24.801  0.00  0.00    -0.001 A 
ATOM     24  C   UNL     1      -2.820  -2.786  24.658  0.00  0.00    +0.029 A 
ATOM     25  C   UNL     1      -3.592  -2.756  24.367  0.00  0.00    +0.140 A 
ATOM     26  F   UNL     1      -4.006  -3.455  24.225  0.00  0.00    -0.204 F 
ATOM     27  C   UNL     1      -3.948  -2.027  24.218  0.00  0.00    +0.029 A 
ATOM     28  C   UNL     1      -3.535  -1.328  24.360  0.00  0.00    -0.001 A 
ENDBRANCH  21  22
ENDBRANCH  20  21
ENDBRANCH  17  20
TORSDOF 8
ENDMDL
MODEL 4
REMARK VINA RESULT:      -9.8      3.110      6.295
REMARK  Name = 
REMARK  8 active torsions:
REMARK  status: ('A' for Active; 'I' for Inactive)
REMARK    1  A    between atoms: C_2  and  N_3
REMARK    2  A    between atoms: N_3  and  C_4
REMARK    3  A    between atoms: C_6  and  C_8
REMARK    4  A    between atoms: C_8  and  C_9
REMARK    5  A    between atoms: C_9  and  C_10
REMARK    6  A    between atoms: C_17  and  N_20
REMARK    7  A    between atoms: N_20  and  C_21
REMARK    8  A    between atoms: C_21  and  C_22
REMARK                            x       y       z     vdW  Elec       q    Type
REMARK                         _______ _______ _______ _____ _____    ______ ____
ROOT
ATOM     10  C   UNL     1      -0.558  -0.425  24.395  0.00  0.00    +0.080 C 
ATOM     11  C   UNL     1      -0.097  -0.924  23.926  0.00  0.00    +0.131 C 
ATOM     12  N   UNL     1       0.516  -0.611  23.471  0.00  0.00    -0.203 NA
ATOM     13  C   UNL     1       0.667   0.200  23.484  0.00  0.00    +0.256 C 
ATOM     14  O   UNL     1       1.280   0.513  23.029  0.00  0.00    -0.272 OA
ATOM     15  C   UNL     1       0.206   0.698  23.953  0.00  0.00    +0.138 C 
ATOM     16  C   UNL     1       0.225   1.513  24.077  0.00  0.00    +0.044 C 
ATOM     17  C   UNL     1      -0.376   1.704  24.609  0.00  0.00    +0.091 C 
ATOM     18  C   UNL     1      -0.767   1.008  24.814  0.00  0.00    +0.090 C 
ATOM     19  N   UNL     1      -0.406   0.385  24.408  0.00  0.00    -0.265 NA
ENDROOT
BRANCH  10   9
ATOM      9  C   UNL     1      -1.171  -0.739  24.850  0.00  0.00    +0.027 C 
BRANCH   9   8
ATOM      8  C   UNL     1      -1.797  -1.133  24.485  0.00  0.00    +0.087 C 
BRANCH   8   6
ATOM      3  N   UNL     1      -3.045  -1.799  24.679  0.00  0.00    -0.280 N 
ATOM      6  C   UNL     1      -2.271  -1.646  24.922  0.00  0.00    +0.226 C 
ATOM      7  O   UNL     1      -1.974  -2.007  25.601  0.00  0.00    -0.275 OA
BRANCH   3   2
ATOM      1  C   UNL     1      -3.670  -3.075  24.838  0.00  0.00    +0.023 C 
ATOM      2  C   UNL     1      -3.521  -2.313  25.117  0.00  0.00    +0.093 C 
ENDBRANCH   3   2
BRANCH   3   4
ATOM      4  C   UNL     1      -3.344  -1.439  24.000  0.00  0.00    +0.093 C 
ATOM      5  C   UNL     1      -4.153  -1.283  23.938  0.00  0.00    +0.023 C 
ENDBRANCH   3   4
ENDBRANCH   8   6
ENDBRANCH   9   8
ENDBRANCH  10   9
BRANCH  17  20
ATOM     20  N   UNL     1      -0.555   2.460  24.888  0.00  0.00    -0.213 NA
BRANCH  20  21
ATOM     21  C   UNL     1      -1.096   2.932  24.481  0.00  0.00    +0.115 C 
BRANCH  21  22
ATOM     22  C   UNL     1      -1.254   3.699  24.743  0.00  0.00    -0.005 A 
ATOM     23  C   UNL     1      -1.934   3.852  25.182  0.00  0.00    -0.001 A 
ATOM     24  C   UNL     1      -2.092   4.619  25.445  0.00  0.00    +0.029 A 
ATOM     25  C   UNL     1      -1.568   5.231  25.267  0.00  0.00    +0.140 A 
ATOM     26  F   UNL     1      -1.726   5.997  25.529  0.00  0.00    -0.204 F 
ATOM     27  C   UNL     1      -0.888   5.077  24.827  0.00  0.00    +0.029 A 
ATOM     28  C   UNL     1      -0.730   4.311  24.565  0.00  0.00    -0.001 A 
ENDBRANCH  21  22
ENDBRANCH  20  21
ENDBRANCH  17  20
TORSDOF 8
ENDMDL
MODEL 5
REMARK VINA RESULT:      -9.6      2.757      4.484
REMARK  Name = 
REMARK  8 active torsions:
REMARK  status: ('A' for Active; 'I' for Inactive)
REMARK    1  A    between atoms: C_2  and  N_3
REMARK    2  A    between atoms: N_3  and  C_4
REMARK    3  A    between atoms: C_6  and  C_8
REMARK    4  A    between atoms: C_8  and  C_9
REMARK    5  A    between atoms: C_9  and  C_10
REMARK    6  A    between atoms: C_17  and  N_20
REMARK    7  A    between atoms: N_20  and  C_21
REMARK    8  A    between atoms: C_21  and  C_22
REMARK                            x       y       z     vdW  Elec       q    Type
REMARK                         _______ _______ _______ _____ _____    ______ ____
ROOT
ATOM     10  C   UNL     1      -2.114  -1.146  24.842  0.00  0.00    +0.080 C 
ATOM     11  C   UNL     1      -1.947  -1.915  24.593  0.00  0.00    +0.131 C 
ATOM     12  N   UNL     1      -2.559  -2.412  24.352  0.00  0.00    -0.203 NA
ATOM     13  C   UNL     1      -3.338  -2.141  24.360  0.00  0.00    +0.256 C 
ATOM     14  O   UNL     1      -3.950  -2.640  24.120  0.00  0.00    -0.272 OA
ATOM     15  C   UNL     1      -3.505  -1.374  24.609  0.00  0.00    +0.138 C 
ATOM     16  C   UNL     1      -4.214  -0.956  24.677  0.00  0.00    +0.044 C 
ATOM     17  C   UNL     1      -4.040  -0.202  24.959  0.00  0.00    +0.091 C 
ATOM     18  C   UNL     1      -3.224  -0.151  25.066  0.00  0.00    +0.090 C 
ATOM     19  N   UNL     1      -2.894  -0.876  24.850  0.00  0.00    -0.265 NA
ENDROOT
BRANCH  10   9
ATOM      9  C   UNL     1      -1.502  -0.648  25.083  0.00  0.00    +0.027 C 
BRANCH   9   8
ATOM      8  C   UNL     1      -0.901  -0.448  24.554  0.00  0.00    +0.087 C 
BRANCH   8   6
ATOM      3  N   UNL     1       0.093   0.484  24.126  0.00  0.00    -0.280 N 
ATOM      6  C   UNL     1      -0.411   0.197  24.712  0.00  0.00    +0.226 C 
ATOM      7  O   UNL     1      -0.426   0.555  25.455  0.00  0.00    -0.275 OA
BRANCH   3   2
ATOM      1  C   UNL     1       0.395   1.874  23.983  0.00  0.00    +0.023 C 
ATOM      2  C   UNL     1       0.584   1.130  24.283  0.00  0.00    +0.093 C 
ENDBRANCH   3   2
BRANCH   3   4
ATOM      4  C   UNL     1       0.109   0.127  23.382  0.00  0.00    +0.093 C 
ATOM      5  C   UNL     1       0.831  -0.018  23.009  0.00  0.00    +0.023 C 
ENDBRANCH   3   4
ENDBRANCH   8   6
ENDBRANCH   9   8
ENDBRANCH  10   9
BRANCH  17  20
ATOM     20  N   UNL     1      -4.587   0.399  25.107  0.00  0.00    -0.213 NA
BRANCH  20  21
ATOM     21  C   UNL     1      -4.595   1.075  24.635  0.00  0.00    +0.115 C 
BRANCH  21  22
ATOM     22  C   UNL     1      -4.922   1.776  24.924  0.00  0.00    -0.005 A 
ATOM     23  C   UNL     1      -5.666   1.767  25.279  0.00  0.00    -0.001 A 
ATOM     24  C   UNL     1      -5.993   2.468  25.568  0.00  0.00    +0.029 A 
ATOM     25  C   UNL     1      -5.576   3.177  25.501  0.00  0.00    +0.140 A 
ATOM     26  F   UNL     1      -5.903   3.876  25.789  0.00  0.00    -0.204 F 
ATOM     27  C   UNL     1      -4.831   3.184  25.145  0.00  0.00    +0.029 A 
ATOM     28  C   UNL     1      -4.504   2.484  24.856  0.00  0.00    -0.001 A 
ENDBRANCH  21  22
ENDBRANCH  20  21
ENDBRANCH  17  20
TORSDOF 8
ENDMDL
MODEL 6
REMARK VINA RESULT:      -9.3      2.470      4.460
REMARK  Name = 
REMARK  8 active torsions:
REMARK  status: ('A' for Active; 'I' for Inactive)
REMARK    1  A    between atoms: C_2  and  N_3
REMARK    2  A    between atoms: N_3  and  C_4
REMARK    3  A    between atoms: C_6  and  C_8
REMARK    4  A    between atoms: C_8  and  C_9
REMARK    5  A    between atoms: C_9  and  C_10
REMARK    6  A    between atoms: C_17  and  N_20
REMARK    7  A    between atoms: N_20  and  C_21
REMARK    8  A    between atoms: C_21  and  C_22
REMARK                            x       y       z     vdW  Elec       q    Type
REMARK                         _______ _______ _______ _____ _____    ______ ____
ROOT
ATOM     10  C   UNL     1      -0.851   2.547  25.420  0.00  0.00    +0.080 C 
ATOM     11  C   UNL     1      -0.125   2.912  25.281  0.00  0.00    +0.131 C 
ATOM     12  N   UNL     1      -0.094   3.720  25.120  0.00  0.00    -0.203 NA
ATOM     13  C   UNL     1      -0.789   4.163  25.098  0.00  0.00    +0.256 C 
ATOM     14  O   UNL     1      -0.758   4.972  24.936  0.00  0.00    -0.272 OA
ATOM     15  C   UNL     1      -1.515   3.798  25.236  0.00  0.00    +0.138 C 
ATOM     16  C   UNL     1      -2.287   4.091  25.250  0.00  0.00    +0.044 C 
ATOM     17  C   UNL     1      -2.794   3.463  25.420  0.00  0.00    +0.091 C 
ATOM     18  C   UNL     1      -2.338   2.783  25.511  0.00  0.00    +0.090 C 
ATOM     19  N   UNL     1      -1.547   2.990  25.397  0.00  0.00    -0.265 NA
ENDROOT
BRANCH  10   9
ATOM      9  C   UNL     1      -0.883   1.738  25.581  0.00  0.00    +0.027 C 
BRANCH   9   8
ATOM      8  C   UNL     1      -0.563   1.198  25.046  0.00  0.00    +0.087 C 
BRANCH   8   6
ATOM      3  N   UNL     1      -0.450  -0.152  24.592  0.00  0.00    -0.280 N 
ATOM      6  C   UNL     1      -0.625   0.388  25.191  0.00  0.00    +0.226 C 
ATOM      7  O   UNL     1      -0.861   0.118  25.934  0.00  0.00    -0.275 OA
BRANCH   3   2
ATOM      1  C   UNL     1      -1.125  -1.397  24.397  0.00  0.00    +0.023 C 
ATOM      2  C   UNL     1      -0.512  -0.963  24.737  0.00  0.00    +0.093 C 
ENDBRANCH   3   2
BRANCH   3   4
ATOM      4  C   UNL     1      -0.214   0.117  23.849  0.00  0.00    +0.093 C 
ATOM      5  C   UNL     1       0.407  -0.257  23.454  0.00  0.00    +0.023 C 
ENDBRANCH   3   4
ENDBRANCH   8   6
ENDBRANCH   9   8
ENDBRANCH  10   9
BRANCH  17  20
ATOM     20  N   UNL     1      -3.616   3.508  25.487  0.00  0.00    -0.213 NA
BRANCH  20  21
ATOM     21  C   UNL     1      -4.094   3.260  24.863  0.00  0.00    +0.115 C 
BRANCH  21  22
ATOM     22  C   UNL     1      -4.809   2.876  25.019  0.00  0.00    -0.005 A 
ATOM     23  C   UNL     1      -5.333   3.190  25.573  0.00  0.00    -0.001 A 
ATOM     24  C   UNL     1      -6.047   2.806  25.729  0.00  0.00    +0.029 A 
ATOM     25  C   UNL     1      -6.237   2.110  25.330  0.00  0.00    +0.140 A 
ATOM     26  F   UNL     1      -6.950   1.727  25.486  0.00  0.00    -0.204 F 
ATOM     27  C   UNL     1      -5.712   1.796  24.776  0.00  0.00    +0.029 A 
ATOM     28  C   UNL     1      -4.998   2.179  24.620  0.00  0.00    -0.001 A 
ENDBRANCH  21  22
ENDBRANCH  20  21
ENDBRANCH  17  20
TORSDOF 8
ENDMDL
MODEL 7
REMARK VINA RESULT:      -9.1      2.562      5.461
REMARK  Name = 
REMARK  8 active torsions:
REMARK  status: ('A' for Active; 'I' for Inactive)
REMARK    1  A    between atoms: C_2  and  N_3
REMARK    2  A    between atoms: N_3  and  C_4
REMARK    3  A    between atoms: C_6  and  C_8
REMARK    4  A    between atoms: C_8  and  C_9
REMARK    5  A    between atoms: C_9  and  C_10
REMARK    6  A    between atoms: C_17  and  N_20
REMARK    7  A    between atoms: N_20  and  C_21
REMARK    8  A    between atoms: C_21  and  C_22
REMARK                            x       y       z     vdW  Elec       q    Type
REMARK                         _______ _______ _______ _____ _____    ______ ____
ROOT
ATOM     10  C   UNL     1      -1.114   0.020  24.796  0.00  0.00    +0.080 C 
ATOM     11  C   UNL     1      -0.369  -0.161  24.491  0.00  0.00    +0.131 C 
ATOM     12  N   UNL     1       0.108   0.440  24.188  0.00  0.00    -0.203 NA
ATOM     13  C   UNL     1      -0.160   1.220  24.189  0.00  0.00    +0.256 C 
ATOM     14  O   UNL     1       0.318   1.820  23.886  0.00  0.00    -0.272 OA
ATOM     15  C   UNL     1      -0.905   1.400  24.494  0.00  0.00    +0.138 C 
ATOM     16  C   UNL     1      -1.314   2.112  24.568  0.00  0.00    +0.044 C 
ATOM     17  C   UNL     1      -2.044   1.952  24.917  0.00  0.00    +0.091 C 
ATOM     18  C   UNL     1      -2.087   1.141  25.059  0.00  0.00    +0.090 C 
ATOM     19  N   UNL     1      -1.382   0.800  24.797  0.00  0.00    -0.265 NA
ENDROOT
BRANCH  10   9
ATOM      9  C   UNL     1      -1.592  -0.582  25.099  0.00  0.00    +0.027 C 
BRANCH   9   8
ATOM      8  C   UNL     1      -1.996  -1.086  24.587  0.00  0.00    +0.087 C 
BRANCH   8   6
ATOM      3  N   UNL     1      -3.086  -2.009  24.573  0.00  0.00    -0.280 N 
ATOM      6  C   UNL     1      -2.360  -1.766  24.879  0.00  0.00    +0.226 C 
ATOM      7  O   UNL     1      -1.998  -2.203  25.478  0.00  0.00    -0.275 OA
BRANCH   3   2
ATOM      1  C   UNL     1      -3.565  -3.341  24.372  0.00  0.00    +0.023 C 
ATOM      2  C   UNL     1      -3.450  -2.690  24.866  0.00  0.00    +0.093 C 
ENDBRANCH   3   2
BRANCH   3   4
ATOM      4  C   UNL     1      -3.449  -1.573  23.974  0.00  0.00    +0.093 C 
ATOM      5  C   UNL     1      -4.273  -1.526  23.940  0.00  0.00    +0.023 C 
ENDBRANCH   3   4
ENDBRANCH   8   6
ENDBRANCH   9   8
ENDBRANCH  10   9
BRANCH  17  20
ATOM     20  N   UNL     1      -2.629   2.507  25.094  0.00  0.00    -0.213 NA
BRANCH  20  21
ATOM     21  C   UNL     1      -3.295   2.571  24.611  0.00  0.00    +0.115 C 
BRANCH  21  22
ATOM     22  C   UNL     1      -3.983   2.922  24.903  0.00  0.00    -0.005 A 
ATOM     23  C   UNL     1      -4.685   2.489  24.933  0.00  0.00    -0.001 A 
ATOM     24  C   UNL     1      -5.373   2.840  25.224  0.00  0.00    +0.029 A 
ATOM     25  C   UNL     1      -5.359   3.623  25.485  0.00  0.00    +0.140 A 
ATOM     26  F   UNL     1      -6.046   3.973  25.776  0.00  0.00    -0.204 F 
ATOM     27  C   UNL     1      -4.656   4.054  25.454  0.00  0.00    +0.029 A 
ATOM     28  C   UNL     1      -3.969   3.705  25.163  0.00  0.00    -0.001 A 
ENDBRANCH  21  22
ENDBRANCH  20  21
ENDBRANCH  17  20
TORSDOF 8
ENDMDL
MODEL 8
REMARK VINA RESULT:      -8.1      3.004      4.740
REMARK  Name = 
REMARK  8 active torsions:
REMARK  status: ('A' for Active; 'I' for Inactive)
REMARK    1  A    between atoms: C_2  and  N_3
REMARK    2  A    between atoms: N_3  and  C_4
REMARK    3  A    between atoms: C_6  and  C_8
REMARK    4  A    between atoms: C_8  and  C_9
REMARK    5  A    between atoms: C_9  and  C_10
REMARK    6  A    between atoms: C_17  and  N_20
REMARK    7  A    between atoms: N_20  and  C_21
REMARK    8  A    between atoms: C_21  and  C_22
REMARK                            x       y       z     vdW  Elec       q    Type
REMARK                         _______ _______ _______ _____ _____    ______ ____
ROOT
ATOM     10  C   UNL     1      -3.508  -0.094  24.546  0.00  0.00    +0.080 C 
ATOM     11  C   UNL     1      -4.078  -0.654  24.747  0.00  0.00    +0.131 C 
ATOM     12  N   UNL     1      -3.849  -1.424  24.935  0.00  0.00    -0.203 NA
ATOM     13  C   UNL     1      -3.051  -1.633  24.921  0.00  0.00    +0.256 C 
ATOM     14  O   UNL     1      -2.823  -2.404  25.110  0.00  0.00    -0.272 OA
ATOM     15  C   UNL     1      -2.482  -1.072  24.720  0.00  0.00    +0.138 C 
ATOM     16  C   UNL     1      -1.660  -1.116  24.659  0.00  0.00    +0.044 C 
ATOM     17  C   UNL     1      -1.381  -0.373  24.434  0.00  0.00    +0.091 C 
ATOM     18  C   UNL     1      -2.029   0.130  24.355  0.00  0.00    +0.090 C 
ATOM     19  N   UNL     1      -2.710  -0.302  24.532  0.00  0.00    -0.265 NA
ENDROOT
BRANCH  10   9
ATOM      9  C   UNL     1      -3.736   0.677  24.357  0.00  0.00    +0.027 C 
BRANCH   9   8
ATOM      8  C   UNL     1      -4.353   1.037  24.770  0.00  0.00    +0.087 C 
BRANCH   8   6
ATOM      3  N   UNL     1      -5.067   2.222  25.127  0.00  0.00    -0.280 N 
ATOM      6  C   UNL     1      -4.530   1.831  24.638  0.00  0.00    +0.226 C 
ATOM      7  O   UNL     1      -4.168   2.237  24.016  0.00  0.00    -0.275 OA
BRANCH   3   2
ATOM      1  C   UNL     1      -4.961   3.594  25.511  0.00  0.00    +0.023 C 
ATOM      2  C   UNL     1      -5.244   3.017  24.994  0.00  0.00    +0.093 C 
ENDBRANCH   3   2
BRANCH   3   4
ATOM      4  C   UNL     1      -5.429   1.817  25.748  0.00  0.00    +0.093 C 
ATOM      5  C   UNL     1      -6.186   2.035  25.997  0.00  0.00    +0.023 C 
ENDBRANCH   3   4
ENDBRANCH   8   6
ENDBRANCH   9   8
ENDBRANCH  10   9
BRANCH  17  20
ATOM     20  N   UNL     1      -0.591  -0.169  24.309  0.00  0.00    -0.213 NA
BRANCH  20  21
ATOM     21  C   UNL     1      -0.280  -0.174  23.545  0.00  0.00    +0.115 C 
BRANCH  21  22
ATOM     22  C   UNL     1       0.477   0.125  23.406  0.00  0.00    -0.005 A 
ATOM     23  C   UNL     1       0.711   0.833  23.760  0.00  0.00    -0.001 A 
ATOM     24  C   UNL     1       1.468   1.133  23.621  0.00  0.00    +0.029 A 
ATOM     25  C   UNL     1       1.989   0.725  23.129  0.00  0.00    +0.140 A 
ATOM     26  F   UNL     1       2.745   1.024  22.990  0.00  0.00    -0.204 F 
ATOM     27  C   UNL     1       1.754   0.016  22.776  0.00  0.00    +0.029 A 
ATOM     28  C   UNL     1       0.999  -0.283  22.915  0.00  0.00    -0.001 A 
ENDBRANCH  21  22
ENDBRANCH  20  21
ENDBRANCH  17  20
TORSDOF 8
ENDMDL
MODEL 9
REMARK VINA RESULT:      -8.1      2.569      5.414
REMARK  Name = 
REMARK  8 active torsions:
REMARK  status: ('A' for Active; 'I' for Inactive)
REMARK    1  A    between atoms: C_2  and  N_3
REMARK    2  A    between atoms: N_3  and  C_4
REMARK    3  A    between atoms: C_6  and  C_8
REMARK    4  A    between atoms: C_8  and  C_9
REMARK    5  A    between atoms: C_9  and  C_10
REMARK    6  A    between atoms: C_17  and  N_20
REMARK    7  A    between atoms: N_20  and  C_21
REMARK    8  A    between atoms: C_21  and  C_22
REMARK                            x       y       z     vdW  Elec       q    Type
REMARK                         _______ _______ _______ _____ _____    ______ ____
ROOT
ATOM     10  C   UNL     1      -2.833   0.056  24.947  0.00  0.00    +0.080 C 
ATOM     11  C   UNL     1      -2.815  -0.736  25.175  0.00  0.00    +0.131 C 
ATOM     12  N   UNL     1      -2.129  -1.055  25.504  0.00  0.00    -0.203 NA
ATOM     13  C   UNL     1      -1.461  -0.581  25.604  0.00  0.00    +0.256 C 
ATOM     14  O   UNL     1      -0.775  -0.900  25.933  0.00  0.00    -0.272 OA
ATOM     15  C   UNL     1      -1.480   0.211  25.376  0.00  0.00    +0.138 C 
ATOM     16  C   UNL     1      -0.911   0.808  25.408  0.00  0.00    +0.044 C 
ATOM     17  C   UNL     1      -1.246   1.496  25.099  0.00  0.00    +0.091 C 
ATOM     18  C   UNL     1      -2.021   1.324  24.876  0.00  0.00    +0.090 C 
ATOM     19  N   UNL     1      -2.165   0.530  25.048  0.00  0.00    -0.265 NA
ENDROOT
BRANCH  10   9
ATOM      9  C   UNL     1      -3.520   0.375  24.618  0.00  0.00    +0.027 C 
BRANCH   9   8
ATOM      8  C   UNL     1      -4.111   0.677  25.109  0.00  0.00    +0.087 C 
BRANCH   8   6
ATOM      3  N   UNL     1      -5.265   1.518  25.076  0.00  0.00    -0.280 N 
ATOM      6  C   UNL     1      -4.851   0.861  24.797  0.00  0.00    +0.226 C 
ATOM      7  O   UNL     1      -5.179   0.388  24.205  0.00  0.00    -0.275 OA
BRANCH   3   2
ATOM      1  C   UNL     1      -6.670   1.710  25.253  0.00  0.00    +0.023 C 
ATOM      2  C   UNL     1      -6.006   1.703  24.763  0.00  0.00    +0.093 C 
ENDBRANCH   3   2
BRANCH   3   4
ATOM      4  C   UNL     1      -4.937   1.992  25.667  0.00  0.00    +0.093 C 
ATOM      5  C   UNL     1      -5.160   2.784  25.730  0.00  0.00    +0.023 C 
ENDBRANCH   3   4
ENDBRANCH   8   6
ENDBRANCH   9   8
ENDBRANCH  10   9
BRANCH  17  20
ATOM     20  N   UNL     1      -0.870   2.227  25.025  0.00  0.00    -0.213 NA
BRANCH  20  21
ATOM     21  C   UNL     1      -0.964   2.799  25.612  0.00  0.00    +0.115 C 
BRANCH  21  22
ATOM     22  C   UNL     1      -1.037   3.595  25.404  0.00  0.00    -0.005 A 
ATOM     23  C   UNL     1      -1.708   4.019  25.629  0.00  0.00    -0.001 A 
ATOM     24  C   UNL     1      -1.781   4.815  25.421  0.00  0.00    +0.029 A 
ATOM     25  C   UNL     1      -1.184   5.185  24.990  0.00  0.00    +0.140 A 
ATOM     26  F   UNL     1      -1.257   5.980  24.783  0.00  0.00    -0.204 F 
ATOM     27  C   UNL     1      -0.513   4.760  24.766  0.00  0.00    +0.029 A 
ATOM     28  C   UNL     1      -0.439   3.965  24.973  0.00  0.00    -0.001 A 
ENDBRANCH  21  22
ENDBRANCH  20  21
ENDBRANCH  17  20
TORSDOF 8
ENDMDL
