MODEL 1
REMARK VINA RESULT:     -15.2      0.000      0.000
REMARK  Name = 
REMARK  6 active torsions:
REMARK  status: ('A' for Active; 'I' for Inactive)
REMARK    1  A    between atoms: O_2  and  C_3
REMARK    2  A    between atoms: C_6  and  N_7
REMARK    3  A    between atoms: C_19  and  N_20
REMARK    4  A    between atoms: N_20  and  S_21
REMARK    5  A    between atoms: S_21  and  C_24
REMARK    6  A    between atoms: C_24  and  C_25
REMARK                            x       y       z     vdW  Elec       q    Type
REMARK                         _______ _______ _______ _____ _____    ______ ____
ROOT
ATOM      7  N   UNL     1      -1.238   2.096  24.866  0.00  0.00    -0.162 NA
ATOM      8  C   UNL     1      -0.622   2.641  24.931  0.00  0.00    +0.327 C 
ATOM      9  O   UNL     1       0.161   2.388  24.871  0.00  0.00    -0.250 OA
ATOM     10  N   UNL     1      -0.789   3.440  25.055  0.00  0.00    -0.262 N 
ATOM     11  C   UNL     1      -0.651   4.255  25.174  0.00  0.00    +0.097 C 
ATOM     12  C   UNL     1      -1.584   4.572  25.248  0.00  0.00    +0.043 C 
ATOM     13  C   UNL     1      -2.281   4.986  25.330  0.00  0.00    +0.011 C 
ATOM     14  C   UNL     1      -2.081   4.321  25.224  0.00  0.00    +0.058 C 
ATOM     15  C   UNL     1      -1.174   4.031  25.155  0.00  0.00    +0.101 C 
ATOM     16  C   UNL     1      -2.423   3.476  25.106  0.00  0.00    +0.041 A 
ATOM     17  C   UNL     1      -3.143   3.076  25.066  0.00  0.00    +0.014 A 
ATOM     18  C   UNL     1      -3.155   2.260  24.944  0.00  0.00    +0.024 A 
ATOM     19  C   UNL     1      -2.447   1.845  24.862  0.00  0.00    +0.147 A 
ATOM     31  C   UNL     1      -1.727   2.245  24.902  0.00  0.00    +0.277 A 
ATOM     32  O   UNL     1      -1.403   1.496  24.780  0.00  0.00    -0.266 OA
ATOM     33  N   UNL     1      -1.715   3.060  25.024  0.00  0.00    -0.298 N 
ATOM     34  C   UNL     1      -1.931   3.686  25.124  0.00  0.00    +0.110 C 
ENDROOT
BRANCH   7   6
ATOM      3  C   UNL     1      -0.737  -0.298  24.490  0.00  0.00    +0.139 A 
ATOM      4  C   UNL     1      -0.829   0.210  23.846  0.00  0.00    +0.038 A 
ATOM      5  C   UNL     1      -0.996   1.008  23.972  0.00  0.00    +0.020 A 
ATOM      6  C   UNL     1      -1.071   1.298  24.741  0.00  0.00    +0.075 A 
ATOM     35  C   UNL     1      -0.979   0.790  25.384  0.00  0.00    +0.020 A 
ATOM     36  C   UNL     1      -0.812  -0.008  25.259  0.00  0.00    +0.038 A 
BRANCH   3   2
ATOM      1  C   UNL     1      -0.187  -1.534  24.949  0.00  0.00    +0.252 C 
ATOM      2  O   UNL     1      -0.570  -1.096  24.364  0.00  0.00    -0.471 OA
ENDBRANCH   3   2
ENDBRANCH   7   6
BRANCH  19  20
ATOM     20  N   UNL     1      -2.460   1.029  24.739  0.00  0.00    -0.095 NA
BRANCH  20  21
ATOM     21  S   UNL     1      -3.181   0.630  24.696  0.00  0.00    +0.078 S 
ATOM     22  O   UNL     1      -3.196   0.747  23.880  0.00  0.00    -0.153 OA
ATOM     23  O   UNL     1      -3.165   0.512  25.512  0.00  0.00    -0.153 OA
BRANCH  21  24
ATOM     24  C   UNL     1      -3.902   0.230  24.653  0.00  0.00    +0.201 C 
BRANCH  24  25
ATOM     25  C   UNL     1      -3.914  -0.589  24.559  0.00  0.00    +0.003 A 
ATOM     26  C   UNL     1      -3.838  -1.082  25.217  0.00  0.00    -0.003 A 
ATOM     27  C   UNL     1      -3.851  -1.901  25.122  0.00  0.00    -0.000 A 
ATOM     28  C   UNL     1      -3.939  -2.228  24.370  0.00  0.00    -0.000 A 
ATOM     29  C   UNL     1      -4.015  -1.736  23.713  0.00  0.00    -0.000 A 
ATOM     30  C   UNL     1      -4.002  -0.917  23.807  0.00  0.00    -0.003 A 
ENDBRANCH  24  25
ENDBRANCH  21  24
ENDBRANCH  20  21
ENDBRANCH  19  20
TORSDOF 6
ENDMDL
MODEL 2
REMARK VINA RESULT:     -15.2      1.384      4.340
REMARK  Name = 
REMARK  6 active torsions:
REMARK  status: ('A' for Active; 'I' for Inactive)
REMARK    1  A    between atoms: O_2  and  C_3
REMARK    2  A    between atoms: C_6  and  N_7
REMARK    3  A    between atoms: C_19  and  N_20
REMARK    4  A    between atoms: N_20  and  S_21
REMARK    5  A    between atoms: S_21  and  C_24
REMARK    6  A    between atoms: C_24  and  C_25
REMARK                            x       y       z     vdW  Elec       q    Type
REMARK                         _______ _______ _______ _____ _____    ______ ____
ROOT
ATOM      7  N   UNL     1      -2.143  -0.523  24.623  0.00  0.00    -0.162 NA
ATOM      8  C   UNL     1      -1.691  -1.211  24.678  0.00  0.00    +0.327 C 
ATOM      9  O   UNL     1      -0.878  -1.162  24.809  0.00  0.00    -0.250 OA
ATOM     10  N   UNL     1      -2.052  -1.949  24.602  0.00  0.00    -0.262 N 
ATOM     11  C   UNL     1      -2.127  -2.781  24.569  0.00  0.00    +0.097 C 
ATOM     12  C   UNL     1      -3.099  -2.854  24.411  0.00  0.00    +0.043 C 
ATOM     13  C   UNL     1      -3.871  -3.082  24.282  0.00  0.00    +0.011 C 
ATOM     14  C   UNL     1      -3.512  -2.483  24.354  0.00  0.00    +0.058 C 
ATOM     15  C   UNL     1      -2.570  -2.429  24.507  0.00  0.00    +0.101 C 
ATOM     16  C   UNL     1      -3.625  -1.571  24.359  0.00  0.00    +0.041 A 
ATOM     17  C   UNL     1      -4.212  -0.998  24.279  0.00  0.00    +0.014 A 
ATOM     18  C   UNL     1      -4.018  -0.198  24.330  0.00  0.00    +0.024 A 
ATOM     19  C   UNL     1      -3.235   0.029  24.462  0.00  0.00    +0.147 A 
ATOM     31  C   UNL     1      -2.647  -0.544  24.541  0.00  0.00    +0.277 A 
ATOM     32  O   UNL     1      -2.148   0.105  24.638  0.00  0.00    -0.266 OA
ATOM     33  N   UNL     1      -2.842  -1.344  24.490  0.00  0.00    -0.298 N 
ATOM     34  C   UNL     1      -3.207  -1.900  24.418  0.00  0.00    +0.110 C 
ENDROOT
BRANCH   7   6
ATOM      3  C   UNL     1      -1.057   1.689  24.854  0.00  0.00    +0.139 A 
ATOM      4  C   UNL     1      -1.330   1.292  25.523  0.00  0.00    +0.038 A 
ATOM      5  C   UNL     1      -1.692   0.554  25.446  0.00  0.00    +0.020 A 
ATOM      6  C   UNL     1      -1.781   0.214  24.699  0.00  0.00    +0.075 A 
ATOM     35  C   UNL     1      -1.508   0.612  24.031  0.00  0.00    +0.020 A 
ATOM     36  C   UNL     1      -1.146   1.349  24.107  0.00  0.00    +0.038 A 
BRANCH   3   2
ATOM      1  C   UNL     1      -0.230   2.591  25.592  0.00  0.00    +0.252 C 
ATOM      2  O   UNL     1      -0.695   2.427  24.931  0.00  0.00    -0.471 OA
ENDBRANCH   3   2
ENDBRANCH   7   6
BRANCH  19  20
ATOM     20  N   UNL     1      -3.041   0.829  24.513  0.00  0.00    -0.095 NA
BRANCH  20  21
ATOM     21  S   UNL     1      -3.627   1.402  24.421  0.00  0.00    +0.078 S 
ATOM     22  O   UNL     1      -3.819   1.335  25.220  0.00  0.00    -0.153 OA
ATOM     23  O   UNL     1      -3.436   1.470  23.621  0.00  0.00    -0.153 OA
BRANCH  21  24
ATOM     24  C   UNL     1      -4.213   1.976  24.328  0.00  0.00    +0.201 C 
BRANCH  24  25
ATOM     25  C   UNL     1      -4.083   2.746  24.595  0.00  0.00    +0.003 A 
ATOM     26  C   UNL     1      -4.219   2.938  25.386  0.00  0.00    -0.003 A 
ATOM     27  C   UNL     1      -4.088   3.707  25.651  0.00  0.00    -0.000 A 
ATOM     28  C   UNL     1      -3.822   4.285  25.127  0.00  0.00    -0.000 A 
ATOM     29  C   UNL     1      -3.687   4.094  24.337  0.00  0.00    -0.000 A 
ATOM     30  C   UNL     1      -3.817   3.324  24.070  0.00  0.00    -0.003 A 
ENDBRANCH  24  25
ENDBRANCH  21  24
ENDBRANCH  20  21
ENDBRANCH  19  20
TORSDOF 6
ENDMDL
MODEL 3
REMARK VINA RESULT:     -14.7      1.299      4.868
REMARK  Name = 
REMARK  6 active torsions:
REMARK  status: ('A' for Active; 'I' for Inactive)
REMARK    1  A    between atoms: O_2  and  C_3
REMARK    2  A    between atoms: C_6  and  N_7
REMARK    3  A    between atoms: C_19  and  N_20
REMARK    4  A    between atoms: N_20  and  S_21
REMARK    5  A    between atoms: S_21  and  C_24
REMARK    6  A    between atoms: C_24  and  C_25
REMARK                            x       y       z     vdW  Elec       q    Type
REMARK                         _______ _______ _______ _____ _____    ______ ____
ROOT
ATOM      7  N   UNL     1      -3.402  -0.045  24.384  0.00  0.00    -0.162 NA
ATOM      8  C   UNL     1      -3.991  -0.606  24.241  0.00  0.00    +0.327 C 
ATOM      9  O   UNL     1      -4.757  -0.362  24.055  0.00  0.00    -0.250 OA
ATOM     10  N   UNL     1      -3.813  -1.411  24.283  0.00  0.00    -0.262 N 
ATOM     11  C   UNL     1      -3.931  -2.237  24.253  0.00  0.00    +0.097 C 
ATOM     12  C   UNL     1      -3.018  -2.543  24.474  0.00  0.00    +0.043 C 
ATOM     13  C   UNL     1      -2.332  -2.950  24.639  0.00  0.00    +0.011 C 
ATOM     14  C   UNL     1      -2.539  -2.282  24.590  0.00  0.00    +0.058 C 
ATOM     15  C   UNL     1      -3.427  -2.002  24.375  0.00  0.00    +0.101 C 
ATOM     16  C   UNL     1      -2.224  -1.422  24.668  0.00  0.00    +0.041 A 
ATOM     17  C   UNL     1      -1.532  -1.006  24.837  0.00  0.00    +0.014 A 
ATOM     18  C   UNL     1      -1.536  -0.181  24.837  0.00  0.00    +0.024 A 
ATOM     19  C   UNL     1      -2.233   0.228  24.669  0.00  0.00    +0.147 A 
ATOM     31  C   UNL     1      -2.925  -0.188  24.500  0.00  0.00    +0.277 A 
ATOM     32  O   UNL     1      -3.254   0.564  24.421  0.00  0.00    -0.266 OA
ATOM     33  N   UNL     1      -2.921  -1.012  24.500  0.00  0.00    -0.298 N 
ATOM     34  C   UNL     1      -2.698  -1.641  24.553  0.00  0.00    +0.110 C 
ENDROOT
BRANCH   7   6
ATOM      3  C   UNL     1      -3.938   2.368  24.261  0.00  0.00    +0.139 A 
ATOM      4  C   UNL     1      -4.038   1.960  24.970  0.00  0.00    +0.038 A 
ATOM      5  C   UNL     1      -3.859   1.155  25.011  0.00  0.00    +0.020 A 
ATOM      6  C   UNL     1      -3.581   0.759  24.343  0.00  0.00    +0.075 A 
ATOM     35  C   UNL     1      -3.481   1.168  23.634  0.00  0.00    +0.020 A 
ATOM     36  C   UNL     1      -3.659   1.972  23.592  0.00  0.00    +0.038 A 
BRANCH   3   2
ATOM      1  C   UNL     1      -4.649   3.505  24.754  0.00  0.00    +0.252 C 
ATOM      2  O   UNL     1      -4.116   3.173  24.219  0.00  0.00    -0.471 OA
ENDBRANCH   3   2
ENDBRANCH   7   6
BRANCH  19  20
ATOM     20  N   UNL     1      -2.236   1.053  24.669  0.00  0.00    -0.095 NA
BRANCH  20  21
ATOM     21  S   UNL     1      -1.544   1.468  24.839  0.00  0.00    +0.078 S 
ATOM     22  O   UNL     1      -1.353   1.477  24.036  0.00  0.00    -0.153 OA
ATOM     23  O   UNL     1      -1.735   1.459  25.641  0.00  0.00    -0.153 OA
BRANCH  21  24
ATOM     24  C   UNL     1      -0.851   1.884  25.009  0.00  0.00    +0.201 C 
BRANCH  24  25
ATOM     25  C   UNL     1      -0.857   2.709  25.019  0.00  0.00    +0.003 A 
ATOM     26  C   UNL     1      -1.053   3.111  25.713  0.00  0.00    -0.003 A 
ATOM     27  C   UNL     1      -1.059   3.936  25.723  0.00  0.00    -0.000 A 
ATOM     28  C   UNL     1      -0.869   4.358  25.040  0.00  0.00    -0.000 A 
ATOM     29  C   UNL     1      -0.673   3.956  24.348  0.00  0.00    -0.000 A 
ATOM     30  C   UNL     1      -0.667   3.131  24.337  0.00  0.00    -0.003 A 
ENDBRANCH  24  25
ENDBRANCH  21  24
ENDBRANCH  20  21
ENDBRANCH  19  20
TORSDOF 6
ENDMDL
MODEL 4
REMARK VINA RESULT:     -14.7      1.328      2.705
REMARK  Name = 
REMARK  6 active torsions:
REMARK  status: ('A' for Active; 'I' for Inactive)
REMARK    1  A    between atoms: O_2  and  C_3
REMARK    2  A    between atoms: C_6  and  N_7
REMARK    3  A    between atoms: C_19  and  N_20
REMARK    4  A    between atoms: N_20  and  S_21
REMARK    5  A    between atoms: S_21  and  C_24
REMARK    6  A    between atoms: C_24  and  C_25
REMARK                            x       y       z     vdW  Elec       q    Type
REMARK                         _______ _______ _______ _____ _____    ______ ____
ROOT
ATOM      7  N   UNL     1      -3.026   3.228  24.916  0.00  0.00    -0.162 NA
ATOM      8  C   UNL     1      -3.058   4.037  25.076  0.00  0.00    +0.327 C 
ATOM      9  O   UNL     1      -3.785   4.407  25.192  0.00  0.00    -0.250 OA
ATOM     10  N   UNL     1      -2.360   4.476  25.121  0.00  0.00    -0.262 N 
ATOM     11  C   UNL     1      -1.862   5.139  25.221  0.00  0.00    +0.097 C 
ATOM     12  C   UNL     1      -0.983   4.708  25.085  0.00  0.00    +0.043 C 
ATOM     13  C   UNL     1      -0.198   4.510  24.999  0.00  0.00    +0.011 C 
ATOM     14  C   UNL     1      -0.821   4.187  24.973  0.00  0.00    +0.058 C 
ATOM     15  C   UNL     1      -1.662   4.618  25.107  0.00  0.00    +0.101 C 
ATOM     16  C   UNL     1      -1.199   3.361  24.834  0.00  0.00    +0.041 A 
ATOM     17  C   UNL     1      -0.990   2.580  24.669  0.00  0.00    +0.014 A 
ATOM     18  C   UNL     1      -1.576   2.004  24.591  0.00  0.00    +0.024 A 
ATOM     19  C   UNL     1      -2.370   2.209  24.678  0.00  0.00    +0.147 A 
ATOM     31  C   UNL     1      -2.579   2.990  24.843  0.00  0.00    +0.277 A 
ATOM     32  O   UNL     1      -3.349   2.695  24.831  0.00  0.00    -0.266 OA
ATOM     33  N   UNL     1      -1.994   3.566  24.921  0.00  0.00    -0.298 N 
ATOM     34  C   UNL     1      -1.388   3.850  24.941  0.00  0.00    +0.110 C 
ENDROOT
BRANCH   7   6
ATOM      3  C   UNL     1      -5.119   1.912  24.785  0.00  0.00    +0.139 A 
ATOM      4  C   UNL     1      -4.740   2.014  25.511  0.00  0.00    +0.038 A 
ATOM      5  C   UNL     1      -4.043   2.453  25.555  0.00  0.00    +0.020 A 
ATOM      6  C   UNL     1      -3.724   2.790  24.872  0.00  0.00    +0.075 A 
ATOM     35  C   UNL     1      -4.102   2.688  24.147  0.00  0.00    +0.020 A 
ATOM     36  C   UNL     1      -4.799   2.249  24.102  0.00  0.00    +0.038 A 
BRANCH   3   2
ATOM      1  C   UNL     1      -6.471   1.694  25.193  0.00  0.00    +0.252 C 
ATOM      2  O   UNL     1      -5.816   1.474  24.741  0.00  0.00    -0.471 OA
ENDBRANCH   3   2
ENDBRANCH   7   6
BRANCH  19  20
ATOM     20  N   UNL     1      -2.955   1.633  24.600  0.00  0.00    -0.095 NA
BRANCH  20  21
ATOM     21  S   UNL     1      -2.747   0.855  24.426  0.00  0.00    +0.078 S 
ATOM     22  O   UNL     1      -2.621   0.709  25.228  0.00  0.00    -0.153 OA
ATOM     23  O   UNL     1      -2.873   1.001  23.624  0.00  0.00    -0.153 OA
BRANCH  21  24
ATOM     24  C   UNL     1      -2.538   0.075  24.251  0.00  0.00    +0.201 C 
BRANCH  24  25
ATOM     25  C   UNL     1      -3.073  -0.537  24.391  0.00  0.00    +0.003 A 
ATOM     26  C   UNL     1      -3.113  -0.887  25.137  0.00  0.00    -0.003 A 
ATOM     27  C   UNL     1      -3.648  -1.499  25.277  0.00  0.00    -0.000 A 
ATOM     28  C   UNL     1      -4.144  -1.760  24.672  0.00  0.00    -0.000 A 
ATOM     29  C   UNL     1      -4.104  -1.410  23.927  0.00  0.00    -0.000 A 
ATOM     30  C   UNL     1      -3.569  -0.798  23.786  0.00  0.00    -0.003 A 
ENDBRANCH  24  25
ENDBRANCH  21  24
ENDBRANCH  20  21
ENDBRANCH  19  20
TORSDOF 6
ENDMDL
MODEL 5
REMARK VINA RESULT:     -13.9      1.499      3.230
REMARK  Name = 
REMARK  6 active torsions:
REMARK  status: ('A' for Active; 'I' for Inactive)
REMARK    1  A    between atoms: O_2  and  C_3
REMARK    2  A    between atoms: C_6  and  N_7
REMARK    3  A    between atoms: C_19  and  N_20
REMARK    4  A    between atoms: N_20  and  S_21
REMARK    5  A    between atoms: S_21  and  C_24
REMARK    6  A    between atoms: C_24  and  C_25
REMARK                            x       y       z     vdW  Elec       q    Type
REMARK                         _______ _______ _______ _____ _____    ______ ____
ROOT
ATOM      7  N   UNL     1      -4.332   1.225  24.927  0.00  0.00    -0.162 NA
ATOM      8  C   UNL     1      -5.108   1.500  24.987  0.00  0.00    +0.327 C 
ATOM      9  O   UNL     1      -5.739   0.974  24.910  0.00  0.00    -0.250 OA
ATOM     10  N   UNL     1      -5.253   2.300  25.125  0.00  0.00    -0.262 N 
ATOM     11  C   UNL     1      -5.687   3.003  25.252  0.00  0.00    +0.097 C 
ATOM     12  C   UNL     1      -4.940   3.644  25.347  0.00  0.00    +0.043 C 
ATOM     13  C   UNL     1      -4.449   4.286  25.447  0.00  0.00    +0.011 C 
ATOM     14  C   UNL     1      -4.385   3.597  25.329  0.00  0.00    +0.058 C 
ATOM     15  C   UNL     1      -5.117   2.990  25.240  0.00  0.00    +0.101 C 
ATOM     16  C   UNL     1      -3.752   2.942  25.206  0.00  0.00    +0.041 A 
ATOM     17  C   UNL     1      -2.934   2.841  25.174  0.00  0.00    +0.014 A 
ATOM     18  C   UNL     1      -2.616   2.091  25.041  0.00  0.00    +0.024 A 
ATOM     19  C   UNL     1      -3.117   1.443  24.941  0.00  0.00    +0.147 A 
ATOM     31  C   UNL     1      -3.935   1.544  24.973  0.00  0.00    +0.277 A 
ATOM     32  O   UNL     1      -3.954   0.732  24.836  0.00  0.00    -0.266 OA
ATOM     33  N   UNL     1      -4.252   2.294  25.106  0.00  0.00    -0.298 N 
ATOM     34  C   UNL     1      -4.286   2.953  25.218  0.00  0.00    +0.110 C 
ENDROOT
BRANCH   7   6
ATOM      3  C   UNL     1      -3.899  -1.176  24.514  0.00  0.00    +0.139 A 
ATOM      4  C   UNL     1      -3.982  -0.899  25.286  0.00  0.00    +0.038 A 
ATOM      5  C   UNL     1      -4.127  -0.098  25.424  0.00  0.00    +0.020 A 
ATOM      6  C   UNL     1      -4.188   0.425  24.789  0.00  0.00    +0.075 A 
ATOM     35  C   UNL     1      -4.105   0.147  24.017  0.00  0.00    +0.020 A 
ATOM     36  C   UNL     1      -3.960  -0.653  23.879  0.00  0.00    +0.038 A 
BRANCH   3   2
ATOM      1  C   UNL     1      -4.233  -2.398  23.853  0.00  0.00    +0.252 C 
ATOM      2  O   UNL     1      -3.755  -1.977  24.377  0.00  0.00    -0.471 OA
ENDBRANCH   3   2
ENDBRANCH   7   6
BRANCH  19  20
ATOM     20  N   UNL     1      -2.799   0.694  24.808  0.00  0.00    -0.095 NA
BRANCH  20  21
ATOM     21  S   UNL     1      -1.981   0.588  24.798  0.00  0.00    +0.078 S 
ATOM     22  O   UNL     1      -1.983   0.493  25.617  0.00  0.00    -0.153 OA
ATOM     23  O   UNL     1      -1.979   0.683  23.978  0.00  0.00    -0.153 OA
BRANCH  21  24
ATOM     24  C   UNL     1      -1.162   0.483  24.786  0.00  0.00    +0.201 C 
BRANCH  24  25
ATOM     25  C   UNL     1      -0.844  -0.278  24.812  0.00  0.00    +0.003 A 
ATOM     26  C   UNL     1      -0.775  -0.673  25.533  0.00  0.00    -0.003 A 
ATOM     27  C   UNL     1      -0.457  -1.433  25.557  0.00  0.00    -0.000 A 
ATOM     28  C   UNL     1      -0.206  -1.798  24.862  0.00  0.00    -0.000 A 
ATOM     29  C   UNL     1      -0.275  -1.403  24.142  0.00  0.00    -0.000 A 
ATOM     30  C   UNL     1      -0.593  -0.643  24.116  0.00  0.00    -0.003 A 
ENDBRANCH  24  25
ENDBRANCH  21  24
ENDBRANCH  20  21
ENDBRANCH  19  20
TORSDOF 6
ENDMDL
