MODEL 1
REMARK VINA RESULT:     -10.7      0.000      0.000
REMARK  Name = 
REMARK  5 active torsions:
REMARK  status: ('A' for Active; 'I' for Inactive)
REMARK    1  A    between atoms: S_2  and  N_5
REMARK    2  A    between atoms: C_8  and  C_10
REMARK    3  A    between atoms: N_12  and  N_13
REMARK    4  A    between atoms: C_14  and  C_16
REMARK    5  A    between atoms: C_16  and  C_17
REMARK                            x       y       z     vdW  Elec       q    Type
REMARK                         _______ _______ _______ _____ _____    ______ ____
ROOT
ATOM     10  C   UNL     1      -4.122   2.106  24.969  0.00  0.00    +0.262 C 
ATOM     11  O   UNL     1      -4.786   2.085  25.457  0.00  0.00    -0.272 OA
ATOM     12  N   UNL     1      -3.879   1.424  24.572  0.00  0.00    -0.088 NA
ENDROOT
BRANCH  10   8
ATOM      5  N   UNL     1      -2.745   3.738  24.965  0.00  0.00    -0.159 NA
ATOM      6  C   UNL     1      -3.357   4.044  24.503  0.00  0.00    +0.096 C 
ATOM      7  C   UNL     1      -3.947   3.470  24.449  0.00  0.00    +0.030 C 
ATOM      8  C   UNL     1      -3.700   2.809  24.877  0.00  0.00    +0.099 C 
ATOM      9  C   UNL     1      -2.957   2.975  25.196  0.00  0.00    +0.105 C 
BRANCH   5   2
ATOM      1  C   UNL     1      -1.345   4.516  25.358  0.00  0.00    +0.196 C 
ATOM      2  S   UNL     1      -2.044   4.127  25.161  0.00  0.00    +0.046 S 
ATOM      3  O   UNL     1      -2.432   4.511  25.781  0.00  0.00    -0.157 OA
ATOM      4  O   UNL     1      -1.658   3.743  24.542  0.00  0.00    -0.157 OA
ENDBRANCH   5   2
ENDBRANCH  10   8
BRANCH  12  13
ATOM     13  N   UNL     1      -4.301   0.722  24.665  0.00  0.00    -0.087 NA
ATOM     14  C   UNL     1      -4.083   0.051  24.235  0.00  0.00    +0.265 C 
ATOM     15  O   UNL     1      -3.444   0.084  23.715  0.00  0.00    -0.271 OA
BRANCH  14  16
ATOM     16  C   UNL     1      -4.505  -0.652  24.328  0.00  0.00    +0.115 C 
BRANCH  16  17
ATOM     17  C   UNL     1      -4.104  -1.355  24.493  0.00  0.00    -0.013 A 
ATOM     18  C   UNL     1      -4.085  -1.959  23.931  0.00  0.00    -0.004 A 
ATOM     19  C   UNL     1      -3.684  -2.662  24.096  0.00  0.00    -0.000 A 
ATOM     20  C   UNL     1      -3.303  -2.759  24.822  0.00  0.00    -0.000 A 
ATOM     21  C   UNL     1      -3.324  -2.154  25.382  0.00  0.00    -0.000 A 
ATOM     22  C   UNL     1      -3.724  -1.452  25.218  0.00  0.00    -0.004 A 
ENDBRANCH  16  17
ENDBRANCH  14  16
ENDBRANCH  12  13
TORSDOF 5
ENDMDL
MODEL 2
REMARK VINA RESULT:     -10.1      0.734      1.172
REMARK  Name = 
REMARK  5 active torsions:
REMARK  status: ('A' for Active; 'I' for Inactive)
REMARK    1  A    between atoms: S_2  and  N_5
REMARK    2  A    between atoms: C_8  and  C_10
REMARK    3  A    between atoms: N_12  and  N_13
REMARK    4  A    between atoms: C_14  and  C_16
REMARK    5  A    between atoms: C_16  and  C_17
REMARK                            x       y       z     vdW  Elec       q    Type
REMARK                         _______ _______ _______ _____ _____    ______ ____
ROOT
ATOM     10  C   UNL     1      -3.343   1.923  23.879  0.00  0.00    +0.262 C 
ATOM     11  O   UNL     1      -3.222   1.762  23.080  0.00  0.00    -0.272 OA
ATOM     12  N   UNL     1      -3.678   1.350  24.370  0.00  0.00    -0.088 NA
ENDROOT
BRANCH  10   8
ATOM      5  N   UNL     1      -2.421   3.645  24.741  0.00  0.00    -0.159 NA
ATOM      6  C   UNL     1      -3.182   3.929  24.591  0.00  0.00    +0.096 C 
ATOM      7  C   UNL     1      -3.619   3.318  24.250  0.00  0.00    +0.030 C 
ATOM      8  C   UNL     1      -3.129   2.657  24.189  0.00  0.00    +0.099 C 
ATOM      9  C   UNL     1      -2.389   2.859  24.492  0.00  0.00    +0.105 C 
BRANCH   5   2
ATOM      1  C   UNL     1      -1.183   4.499  25.418  0.00  0.00    +0.196 C 
ATOM      2  S   UNL     1      -1.802   4.072  25.080  0.00  0.00    +0.046 S 
ATOM      3  O   UNL     1      -1.301   3.826  24.473  0.00  0.00    -0.157 OA
ATOM      4  O   UNL     1      -2.304   4.318  25.686  0.00  0.00    -0.157 OA
ENDBRANCH   5   2
ENDBRANCH  10   8
BRANCH  12  13
ATOM     13  N   UNL     1      -3.891   0.616  24.059  0.00  0.00    -0.087 NA
ATOM     14  C   UNL     1      -4.260   0.056  24.541  0.00  0.00    +0.265 C 
ATOM     15  O   UNL     1      -4.415   0.231  25.333  0.00  0.00    -0.271 OA
BRANCH  14  16
ATOM     16  C   UNL     1      -4.473  -0.678  24.231  0.00  0.00    +0.115 C 
BRANCH  16  17
ATOM     17  C   UNL     1      -4.069  -1.358  24.466  0.00  0.00    -0.013 A 
ATOM     18  C   UNL     1      -3.712  -1.389  25.209  0.00  0.00    -0.004 A 
ATOM     19  C   UNL     1      -3.307  -2.069  25.443  0.00  0.00    -0.000 A 
ATOM     20  C   UNL     1      -3.260  -2.717  24.935  0.00  0.00    -0.000 A 
ATOM     21  C   UNL     1      -3.617  -2.685  24.192  0.00  0.00    -0.000 A 
ATOM     22  C   UNL     1      -4.021  -2.006  23.957  0.00  0.00    -0.004 A 
ENDBRANCH  16  17
ENDBRANCH  14  16
ENDBRANCH  12  13
TORSDOF 5
ENDMDL
MODEL 3
REMARK VINA RESULT:     -10.0      1.120      1.641
REMARK  Name = 
REMARK  5 active torsions:
REMARK  status: ('A' for Active; 'I' for Inactive)
REMARK    1  A    between atoms: S_2  and  N_5
REMARK    2  A    between atoms: C_8  and  C_10
REMARK    3  A    between atoms: N_12  and  N_13
REMARK    4  A    between atoms: C_14  and  C_16
REMARK    5  A    between atoms: C_16  and  C_17
REMARK                            x       y       z     vdW  Elec       q    Type
REMARK                         _______ _______ _______ _____ _____    ______ ____
ROOT
ATOM     10  C   UNL     1      -2.274   1.675  24.359  0.00  0.00    +0.262 C 
ATOM     11  O   UNL     1      -2.012   1.440  23.614  0.00  0.00    -0.272 OA
ATOM     12  N   UNL     1      -2.908   1.285  24.716  0.00  0.00    -0.088 NA
ENDROOT
BRANCH  10   8
ATOM      5  N   UNL     1      -1.535   3.532  25.109  0.00  0.00    -0.159 NA
ATOM      6  C   UNL     1      -1.129   2.994  25.586  0.00  0.00    +0.096 C 
ATOM      7  C   UNL     1      -1.357   2.233  25.363  0.00  0.00    +0.030 C 
ATOM      8  C   UNL     1      -1.903   2.301  24.748  0.00  0.00    +0.099 C 
ATOM      9  C   UNL     1      -2.014   3.104  24.591  0.00  0.00    +0.105 C 
BRANCH   5   2
ATOM      1  C   UNL     1      -1.411   5.175  25.180  0.00  0.00    +0.196 C 
ATOM      2  S   UNL     1      -1.473   4.354  25.145  0.00  0.00    +0.046 S 
ATOM      3  O   UNL     1      -0.759   4.317  24.733  0.00  0.00    -0.157 OA
ATOM      4  O   UNL     1      -2.187   4.390  25.556  0.00  0.00    -0.157 OA
ENDBRANCH   5   2
ENDBRANCH  10   8
BRANCH  12  13
ATOM     13  N   UNL     1      -3.279   0.659  24.327  0.00  0.00    -0.087 NA
ATOM     14  C   UNL     1      -3.891   0.248  24.698  0.00  0.00    +0.265 C 
ATOM     15  O   UNL     1      -4.132   0.463  25.457  0.00  0.00    -0.271 OA
BRANCH  14  16
ATOM     16  C   UNL     1      -4.262  -0.378  24.309  0.00  0.00    +0.115 C 
BRANCH  16  17
ATOM     17  C   UNL     1      -4.019  -1.154  24.451  0.00  0.00    -0.013 A 
ATOM     18  C   UNL     1      -3.726  -1.363  25.193  0.00  0.00    -0.004 A 
ATOM     19  C   UNL     1      -3.483  -2.140  25.336  0.00  0.00    -0.000 A 
ATOM     20  C   UNL     1      -3.534  -2.705  24.737  0.00  0.00    -0.000 A 
ATOM     21  C   UNL     1      -3.827  -2.493  23.995  0.00  0.00    -0.000 A 
ATOM     22  C   UNL     1      -4.069  -1.719  23.852  0.00  0.00    -0.004 A 
ENDBRANCH  16  17
ENDBRANCH  14  16
ENDBRANCH  12  13
TORSDOF 5
ENDMDL
MODEL 4
REMARK VINA RESULT:      -9.8      1.916      5.074
REMARK  Name = 
REMARK  5 active torsions:
REMARK  status: ('A' for Active; 'I' for Inactive)
REMARK    1  A    between atoms: S_2  and  N_5
REMARK    2  A    between atoms: C_8  and  C_10
REMARK    3  A    between atoms: N_12  and  N_13
REMARK    4  A    between atoms: C_14  and  C_16
REMARK    5  A    between atoms: C_16  and  C_17
REMARK                            x       y       z     vdW  Elec       q    Type
REMARK                         _______ _______ _______ _____ _____    ______ ____
ROOT
ATOM     10  C   UNL     1      -4.241   0.297  24.814  0.00  0.00    +0.262 C 
ATOM     11  O   UNL     1      -4.751   0.435  25.446  0.00  0.00    -0.272 OA
ATOM     12  N   UNL     1      -3.904   0.933  24.409  0.00  0.00    -0.088 NA
ENDROOT
BRANCH  10   8
ATOM      5  N   UNL     1      -3.479  -1.671  24.491  0.00  0.00    -0.159 NA
ATOM      6  C   UNL     1      -4.119  -1.659  23.969  0.00  0.00    +0.096 C 
ATOM      7  C   UNL     1      -4.481  -0.921  24.027  0.00  0.00    +0.030 C 
ATOM      8  C   UNL     1      -4.066  -0.476  24.584  0.00  0.00    +0.099 C 
ATOM      9  C   UNL     1      -3.447  -0.939  24.871  0.00  0.00    +0.105 C 
BRANCH   5   2
ATOM      1  C   UNL     1      -2.446  -2.934  24.732  0.00  0.00    +0.196 C 
ATOM      2  S   UNL     1      -2.962  -2.303  24.612  0.00  0.00    +0.046 S 
ATOM      3  O   UNL     1      -2.390  -1.921  24.157  0.00  0.00    -0.157 OA
ATOM      4  O   UNL     1      -3.536  -2.684  25.066  0.00  0.00    -0.157 OA
ENDBRANCH   5   2
ENDBRANCH  10   8
BRANCH  12  13
ATOM     13  N   UNL     1      -4.078   1.706  24.638  0.00  0.00    -0.087 NA
ATOM     14  C   UNL     1      -3.721   2.342  24.251  0.00  0.00    +0.265 C 
ATOM     15  O   UNL     1      -3.189   2.203  23.636  0.00  0.00    -0.271 OA
BRANCH  14  16
ATOM     16  C   UNL     1      -3.895   3.114  24.481  0.00  0.00    +0.115 C 
BRANCH  16  17
ATOM     17  C   UNL     1      -3.354   3.541  24.936  0.00  0.00    -0.013 A 
ATOM     18  C   UNL     1      -3.528   3.717  25.723  0.00  0.00    -0.004 A 
ATOM     19  C   UNL     1      -2.987   4.144  26.179  0.00  0.00    -0.000 A 
ATOM     20  C   UNL     1      -2.274   4.394  25.847  0.00  0.00    -0.000 A 
ATOM     21  C   UNL     1      -2.102   4.217  25.059  0.00  0.00    -0.000 A 
ATOM     22  C   UNL     1      -2.642   3.791  24.604  0.00  0.00    -0.004 A 
ENDBRANCH  16  17
ENDBRANCH  14  16
ENDBRANCH  12  13
TORSDOF 5
ENDMDL
MODEL 5
REMARK VINA RESULT:      -9.6      2.503      5.592
REMARK  Name = 
REMARK  5 active torsions:
REMARK  status: ('A' for Active; 'I' for Inactive)
REMARK    1  A    between atoms: S_2  and  N_5
REMARK    2  A    between atoms: C_8  and  C_10
REMARK    3  A    between atoms: N_12  and  N_13
REMARK    4  A    between atoms: C_14  and  C_16
REMARK    5  A    between atoms: C_16  and  C_17
REMARK                            x       y       z     vdW  Elec       q    Type
REMARK                         _______ _______ _______ _____ _____    ______ ____
ROOT
ATOM     10  C   UNL     1      -1.421  -0.203  25.566  0.00  0.00    +0.262 C 
ATOM     11  O   UNL     1      -1.189  -0.259  26.355  0.00  0.00    -0.272 OA
ATOM     12  N   UNL     1      -1.344   0.514  25.163  0.00  0.00    -0.088 NA
ENDROOT
BRANCH  10   8
ATOM      5  N   UNL     1      -2.587  -1.752  24.674  0.00  0.00    -0.159 NA
ATOM      6  C   UNL     1      -1.822  -2.001  24.489  0.00  0.00    +0.096 C 
ATOM      7  C   UNL     1      -1.292  -1.451  24.801  0.00  0.00    +0.030 C 
ATOM      8  C   UNL     1      -1.730  -0.862  25.178  0.00  0.00    +0.099 C 
ATOM      9  C   UNL     1      -2.530  -1.048  25.100  0.00  0.00    +0.105 C 
BRANCH   5   2
ATOM      1  C   UNL     1      -3.985  -2.526  24.264  0.00  0.00    +0.196 C 
ATOM      2  S   UNL     1      -3.286  -2.139  24.468  0.00  0.00    +0.046 S 
ATOM      3  O   UNL     1      -3.146  -2.702  25.055  0.00  0.00    -0.157 OA
ATOM      4  O   UNL     1      -3.426  -1.576  23.883  0.00  0.00    -0.157 OA
ENDBRANCH   5   2
ENDBRANCH  10   8
BRANCH  12  13
ATOM     13  N   UNL     1      -1.034   1.173  25.551  0.00  0.00    -0.087 NA
ATOM     14  C   UNL     1      -0.931   1.882  25.141  0.00  0.00    +0.265 C 
ATOM     15  O   UNL     1      -1.137   1.931  24.343  0.00  0.00    -0.271 OA
BRANCH  14  16
ATOM     16  C   UNL     1      -0.622   2.541  25.528  0.00  0.00    +0.115 C 
BRANCH  16  17
ATOM     17  C   UNL     1      -0.993   3.275  25.453  0.00  0.00    -0.013 A 
ATOM     18  C   UNL     1      -0.634   3.874  25.015  0.00  0.00    -0.004 A 
ATOM     19  C   UNL     1      -1.005   4.608  24.940  0.00  0.00    -0.000 A 
ATOM     20  C   UNL     1      -1.734   4.742  25.303  0.00  0.00    -0.000 A 
ATOM     21  C   UNL     1      -2.091   4.141  25.742  0.00  0.00    -0.000 A 
ATOM     22  C   UNL     1      -1.721   3.408  25.817  0.00  0.00    -0.004 A 
ENDBRANCH  16  17
ENDBRANCH  14  16
ENDBRANCH  12  13
TORSDOF 5
ENDMDL
MODEL 6
REMARK VINA RESULT:      -7.7     17.793     19.351
REMARK  Name = 
REMARK  5 active torsions:
REMARK  status: ('A' for Active; 'I' for Inactive)
REMARK    1  A    between atoms: S_2  and  N_5
REMARK    2  A    between atoms: C_8  and  C_10
REMARK    3  A    between atoms: N_12  and  N_13
REMARK    4  A    between atoms: C_14  and  C_16
REMARK    5  A    between atoms: C_16  and  C_17
REMARK                            x       y       z     vdW  Elec       q    Type
REMARK                         _______ _______ _______ _____ _____    ______ ____
ROOT
ATOM     10  C   UNL     1      12.525   7.208  19.116  0.00  0.00    +0.262 C 
ATOM     11  O   UNL     1      12.230   6.469  19.330  0.00  0.00    -0.272 OA
ATOM     12  N   UNL     1      13.302   7.413  19.304  0.00  0.00    -0.088 NA
ENDROOT
BRANCH  10   8
ATOM      5  N   UNL     1      11.415   8.400  17.736  0.00  0.00    -0.159 NA
ATOM      6  C   UNL     1      11.191   8.738  18.455  0.00  0.00    +0.096 C 
ATOM      7  C   UNL     1      11.579   8.333  19.059  0.00  0.00    +0.030 C 
ATOM      8  C   UNL     1      12.043   7.744  18.713  0.00  0.00    +0.099 C 
ATOM      9  C   UNL     1      11.942   7.785  17.895  0.00  0.00    +0.105 C 
BRANCH   5   2
ATOM      1  C   UNL     1      10.898   8.870  16.241  0.00  0.00    +0.196 C 
ATOM      2  S   UNL     1      11.156   8.635  16.988  0.00  0.00    +0.046 S 
ATOM      3  O   UNL     1      10.407   8.332  17.152  0.00  0.00    -0.157 OA
ATOM      4  O   UNL     1      11.906   8.937  16.824  0.00  0.00    -0.157 OA
ENDBRANCH   5   2
ENDBRANCH  10   8
BRANCH  12  13
ATOM     13  N   UNL     1      13.783   6.878  19.706  0.00  0.00    -0.087 NA
ATOM     14  C   UNL     1      14.531   7.111  19.968  0.00  0.00    +0.265 C 
ATOM     15  O   UNL     1      14.796   7.880  19.827  0.00  0.00    -0.271 OA
BRANCH  14  16
ATOM     16  C   UNL     1      15.012   6.576  20.370  0.00  0.00    +0.115 C 
BRANCH  16  17
ATOM     17  C   UNL     1      15.809   6.504  20.167  0.00  0.00    -0.013 A 
ATOM     18  C   UNL     1      16.392   6.776  20.683  0.00  0.00    -0.004 A 
ATOM     19  C   UNL     1      17.189   6.705  20.480  0.00  0.00    -0.000 A 
ATOM     20  C   UNL     1      17.402   6.361  19.761  0.00  0.00    -0.000 A 
ATOM     21  C   UNL     1      16.818   6.089  19.245  0.00  0.00    -0.000 A 
ATOM     22  C   UNL     1      16.022   6.160  19.448  0.00  0.00    -0.004 A 
ENDBRANCH  16  17
ENDBRANCH  14  16
ENDBRANCH  12  13
TORSDOF 5
ENDMDL
MODEL 7
REMARK VINA RESULT:      -7.4     16.427     18.944
REMARK  Name = 
REMARK  5 active torsions:
REMARK  status: ('A' for Active; 'I' for Inactive)
REMARK    1  A    between atoms: S_2  and  N_5
REMARK    2  A    between atoms: C_8  and  C_10
REMARK    3  A    between atoms: N_12  and  N_13
REMARK    4  A    between atoms: C_14  and  C_16
REMARK    5  A    between atoms: C_16  and  C_17
REMARK                            x       y       z     vdW  Elec       q    Type
REMARK                         _______ _______ _______ _____ _____    ______ ____
ROOT
ATOM     10  C   UNL     1      12.550   7.315  19.581  0.00  0.00    +0.262 C 
ATOM     11  O   UNL     1      12.409   6.728  19.020  0.00  0.00    -0.272 OA
ATOM     12  N   UNL     1      13.318   7.589  19.709  0.00  0.00    -0.088 NA
ENDROOT
BRANCH  10   8
ATOM      5  N   UNL     1      11.058   7.875  21.001  0.00  0.00    -0.159 NA
ATOM      6  C   UNL     1      10.858   8.357  20.361  0.00  0.00    +0.096 C 
ATOM      7  C   UNL     1      11.393   8.205  19.752  0.00  0.00    +0.030 C 
ATOM      8  C   UNL     1      11.923   7.630  20.015  0.00  0.00    +0.099 C 
ATOM      9  C   UNL     1      11.716   7.426  20.787  0.00  0.00    +0.105 C 
BRANCH   5   2
ATOM      1  C   UNL     1      10.278   7.819  22.454  0.00  0.00    +0.196 C 
ATOM      2  S   UNL     1      10.668   7.847  21.728  0.00  0.00    +0.046 S 
ATOM      3  O   UNL     1      10.592   7.029  21.655  0.00  0.00    -0.157 OA
ATOM      4  O   UNL     1      10.744   8.665  21.800  0.00  0.00    -0.157 OA
ENDBRANCH   5   2
ENDBRANCH  10   8
BRANCH  12  13
ATOM     13  N   UNL     1      13.945   7.274  19.275  0.00  0.00    -0.087 NA
ATOM     14  C   UNL     1      14.698   7.606  19.338  0.00  0.00    +0.265 C 
ATOM     15  O   UNL     1      14.824   8.252  19.835  0.00  0.00    -0.271 OA
BRANCH  14  16
ATOM     16  C   UNL     1      15.325   7.291  18.904  0.00  0.00    +0.115 C 
BRANCH  16  17
ATOM     17  C   UNL     1      15.985   6.985  19.296  0.00  0.00    -0.013 A 
ATOM     18  C   UNL     1      16.397   7.453  19.836  0.00  0.00    -0.004 A 
ATOM     19  C   UNL     1      17.056   7.148  20.227  0.00  0.00    -0.000 A 
ATOM     20  C   UNL     1      17.303   6.374  20.078  0.00  0.00    -0.000 A 
ATOM     21  C   UNL     1      16.890   5.907  19.538  0.00  0.00    -0.000 A 
ATOM     22  C   UNL     1      16.231   6.212  19.147  0.00  0.00    -0.004 A 
ENDBRANCH  16  17
ENDBRANCH  14  16
ENDBRANCH  12  13
TORSDOF 5
ENDMDL
MODEL 8
REMARK VINA RESULT:      -7.1     16.687     19.008
REMARK  Name = 
REMARK  5 active torsions:
REMARK  status: ('A' for Active; 'I' for Inactive)
REMARK    1  A    between atoms: S_2  and  N_5
REMARK    2  A    between atoms: C_8  and  C_10
REMARK    3  A    between atoms: N_12  and  N_13
REMARK    4  A    between atoms: C_14  and  C_16
REMARK    5  A    between atoms: C_16  and  C_17
REMARK                            x       y       z     vdW  Elec       q    Type
REMARK                         _______ _______ _______ _____ _____    ______ ____
ROOT
ATOM     10  C   UNL     1      13.947   8.108  19.426  0.00  0.00    +0.262 C 
ATOM     11  O   UNL     1      14.020   8.924  19.516  0.00  0.00    -0.272 OA
ATOM     12  N   UNL     1      13.218   7.742  19.553  0.00  0.00    -0.088 NA
ENDROOT
BRANCH  10   8
ATOM      5  N   UNL     1      15.743   6.966  19.263  0.00  0.00    -0.159 NA
ATOM      6  C   UNL     1      15.475   6.955  18.482  0.00  0.00    +0.096 C 
ATOM      7  C   UNL     1      14.770   7.381  18.449  0.00  0.00    +0.030 C 
ATOM      8  C   UNL     1      14.602   7.656  19.209  0.00  0.00    +0.099 C 
ATOM      9  C   UNL     1      15.203   7.399  19.712  0.00  0.00    +0.105 C 
BRANCH   5   2
ATOM      1  C   UNL     1      17.117   6.249  19.828  0.00  0.00    +0.196 C 
ATOM      2  S   UNL     1      16.431   6.607  19.546  0.00  0.00    +0.046 S 
ATOM      3  O   UNL     1      16.721   7.344  19.775  0.00  0.00    -0.157 OA
ATOM      4  O   UNL     1      16.139   5.870  19.316  0.00  0.00    -0.157 OA
ENDBRANCH   5   2
ENDBRANCH  10   8
BRANCH  12  13
ATOM     13  N   UNL     1      12.563   8.194  19.770  0.00  0.00    -0.087 NA
ATOM     14  C   UNL     1      11.847   7.823  19.949  0.00  0.00    +0.265 C 
ATOM     15  O   UNL     1      11.788   7.001  19.911  0.00  0.00    -0.271 OA
BRANCH  14  16
ATOM     16  C   UNL     1      11.192   8.275  20.167  0.00  0.00    +0.115 C 
BRANCH  16  17
ATOM     17  C   UNL     1      10.965   8.317  20.959  0.00  0.00    -0.013 A 
ATOM     18  C   UNL     1      10.687   7.642  21.344  0.00  0.00    -0.004 A 
ATOM     19  C   UNL     1      10.460   7.683  22.137  0.00  0.00    -0.000 A 
ATOM     20  C   UNL     1      10.510   8.399  22.544  0.00  0.00    -0.000 A 
ATOM     21  C   UNL     1      10.789   9.074  22.158  0.00  0.00    -0.000 A 
ATOM     22  C   UNL     1      11.016   9.032  21.366  0.00  0.00    -0.004 A 
ENDBRANCH  16  17
ENDBRANCH  14  16
ENDBRANCH  12  13
TORSDOF 5
ENDMDL
MODEL 9
REMARK VINA RESULT:      -6.9     16.438     18.669
REMARK  Name = 
REMARK  5 active torsions:
REMARK  status: ('A' for Active; 'I' for Inactive)
REMARK    1  A    between atoms: S_2  and  N_5
REMARK    2  A    between atoms: C_8  and  C_10
REMARK    3  A    between atoms: N_12  and  N_13
REMARK    4  A    between atoms: C_14  and  C_16
REMARK    5  A    between atoms: C_16  and  C_17
REMARK                            x       y       z     vdW  Elec       q    Type
REMARK                         _______ _______ _______ _____ _____    ______ ____
ROOT
ATOM     10  C   UNL     1      13.805   7.729  19.030  0.00  0.00    +0.262 C 
ATOM     11  O   UNL     1      14.332   8.096  19.547  0.00  0.00    -0.272 OA
ATOM     12  N   UNL     1      13.173   7.289  19.328  0.00  0.00    -0.088 NA
ENDROOT
BRANCH  10   8
ATOM      5  N   UNL     1      13.803   8.231  16.955  0.00  0.00    -0.159 NA
ATOM      6  C   UNL     1      14.329   7.595  16.965  0.00  0.00    +0.096 C 
ATOM      7  C   UNL     1      14.394   7.330  17.744  0.00  0.00    +0.030 C 
ATOM      8  C   UNL     1      13.907   7.802  18.215  0.00  0.00    +0.099 C 
ATOM      9  C   UNL     1      13.542   8.359  17.727  0.00  0.00    +0.105 C 
BRANCH   5   2
ATOM      1  C   UNL     1      13.352   9.094  15.624  0.00  0.00    +0.196 C 
ATOM      2  S   UNL     1      13.577   8.662  16.289  0.00  0.00    +0.046 S 
ATOM      3  O   UNL     1      14.371   8.796  16.107  0.00  0.00    -0.157 OA
ATOM      4  O   UNL     1      12.784   8.529  16.472  0.00  0.00    -0.157 OA
ENDBRANCH   5   2
ENDBRANCH  10   8
BRANCH  12  13
ATOM     13  N   UNL     1      13.070   7.216  20.143  0.00  0.00    -0.087 NA
ATOM     14  C   UNL     1      12.396   6.844  20.442  0.00  0.00    +0.265 C 
ATOM     15  O   UNL     1      11.826   6.545  19.926  0.00  0.00    -0.271 OA
BRANCH  14  16
ATOM     16  C   UNL     1      12.294   6.771  21.258  0.00  0.00    +0.115 C 
BRANCH  16  17
ATOM     17  C   UNL     1      11.675   7.169  21.632  0.00  0.00    -0.013 A 
ATOM     18  C   UNL     1      11.814   7.895  21.999  0.00  0.00    -0.004 A 
ATOM     19  C   UNL     1      11.195   8.293  22.373  0.00  0.00    -0.000 A 
ATOM     20  C   UNL     1      10.438   7.964  22.380  0.00  0.00    -0.000 A 
ATOM     21  C   UNL     1      10.300   7.238  22.013  0.00  0.00    -0.000 A 
ATOM     22  C   UNL     1      10.918   6.841  21.639  0.00  0.00    -0.004 A 
ENDBRANCH  16  17
ENDBRANCH  14  16
ENDBRANCH  12  13
TORSDOF 5
ENDMDL
