MODEL 1
REMARK VINA RESULT:      -9.4      0.000      0.000
REMARK  Name = 
REMARK  9 active torsions:
REMARK  status: ('A' for Active; 'I' for Inactive)
REMARK    1  A    between atoms: C_2  and  C_3
REMARK    2  A    between atoms: C_3  and  N_4
REMARK    3  A    between atoms: C_5  and  O_7
REMARK    4  A    between atoms: O_7  and  C_8
REMARK    5  A    between atoms: C_8  and  C_9
REMARK    6  A    between atoms: C_16  and  C_17
REMARK    7  A    between atoms: C_19  and  C_23
REMARK    8  A    between atoms: C_26  and  O_27
REMARK    9  A    between atoms: C_29  and  O_30
REMARK                            x       y       z     vdW  Elec       q    Type
REMARK                         _______ _______ _______ _____ _____    ______ ____
ROOT
ATOM      9  C   UNL     1       0.956   0.778  23.541  0.00  0.00    +0.102 C 
ATOM     10  C   UNL     1       0.570   1.327  23.935  0.00  0.00    +0.020 C 
ATOM     11  C   UNL     1      -0.170   1.247  24.254  0.00  0.00    +0.010 C 
ATOM     12  C   UNL     1      -0.438   1.995  24.669  0.00  0.00    +0.018 C 
ATOM     13  C   UNL     1      -0.027   1.617  24.329  0.00  0.00    +0.072 C 
ATOM     14  N   UNL     1       0.202   0.704  23.868  0.00  0.00    -0.270 NA
ATOM     15  C   UNL     1      -0.393   0.011  23.882  0.00  0.00    +0.078 C 
ATOM     16  C   UNL     1      -0.737   0.577  24.263  0.00  0.00    +0.056 C 
ENDROOT
BRANCH  16  17
ATOM     17  C   UNL     1      -1.486   0.561  24.610  0.00  0.00    +0.058 A 
ATOM     18  C   UNL     1      -2.121   1.050  24.415  0.00  0.00    +0.035 A 
ATOM     19  C   UNL     1      -2.757   0.845  24.897  0.00  0.00    +0.102 A 
ATOM     20  N   UNL     1      -2.516   0.229  25.391  0.00  0.00    -0.170 NA
ATOM     21  N   UNL     1      -1.729   0.053  25.213  0.00  0.00    -0.253 N 
ATOM     22  C   UNL     1      -1.268  -0.528  25.574  0.00  0.00    +0.153 C 
BRANCH  19  23
ATOM     23  C   UNL     1      -3.504   1.194  24.889  0.00  0.00    +0.023 A 
ATOM     24  C   UNL     1      -4.175   0.730  24.759  0.00  0.00    +0.005 A 
ATOM     25  C   UNL     1      -4.923   1.078  24.751  0.00  0.00    +0.040 A 
ATOM     26  C   UNL     1      -5.001   1.891  24.872  0.00  0.00    +0.172 A 
ATOM     29  C   UNL     1      -4.330   2.355  25.002  0.00  0.00    +0.172 A 
ATOM     32  C   UNL     1      -3.583   2.006  25.010  0.00  0.00    +0.042 A 
BRANCH  26  27
ATOM     27  O   UNL     1      -5.749   2.239  24.864  0.00  0.00    -0.468 OA
ATOM     28  C   UNL     1      -6.424   1.765  24.854  0.00  0.00    +0.253 C 
ENDBRANCH  26  27
BRANCH  29  30
ATOM     30  O   UNL     1      -4.408   3.167  25.123  0.00  0.00    -0.468 OA
ATOM     31  C   UNL     1      -3.815   3.584  25.516  0.00  0.00    +0.253 C 
ENDBRANCH  29  30
ENDBRANCH  19  23
ENDBRANCH  16  17
BRANCH   9   8
ATOM      8  C   UNL     1       1.607   0.493  23.123  0.00  0.00    +0.226 C 
BRANCH   8   7
ATOM      7  O   UNL     1       2.299   0.940  23.081  0.00  0.00    -0.432 OA
BRANCH   7   5
ATOM      4  N   UNL     1       3.702   0.706  23.211  0.00  0.00    -0.169 NA
ATOM      5  C   UNL     1       2.995   0.597  22.800  0.00  0.00    +0.421 C 
ATOM      6  O   UNL     1       2.983   0.147  22.110  0.00  0.00    -0.225 OA
BRANCH   4   3
ATOM      3  C   UNL     1       4.398   0.364  22.930  0.00  0.00    +0.119 C 
BRANCH   3   2
ATOM      1  C   UNL     1       5.534  -0.124  23.647  0.00  0.00    +0.002 C 
ATOM      2  C   UNL     1       5.112   0.504  23.318  0.00  0.00    +0.024 C 
ENDBRANCH   3   2
ENDBRANCH   4   3
ENDBRANCH   7   5
ENDBRANCH   8   7
ENDBRANCH   9   8
TORSDOF 9
ENDMDL
