MODEL 1
REMARK VINA RESULT:     -17.0      0.000      0.000
REMARK  Name = 
REMARK  2 active torsions:
REMARK  status: ('A' for Active; 'I' for Inactive)
REMARK    1  A    between atoms: C_2  and  C_3
REMARK    2  A    between atoms: C_18  and  C_19
REMARK                            x       y       z     vdW  Elec       q    Type
REMARK                         _______ _______ _______ _____ _____    ______ ____
ROOT
ATOM      1  O   UNL     1      -2.161   1.489  23.057  0.00  0.00    -0.275 OA
ATOM      2  C   UNL     1      -2.833   1.319  23.607  0.00  0.00    +0.225 C 
ATOM      9  N   UNL     1      -3.298   2.012  23.832  0.00  0.00    -0.279 N 
ATOM     10  C   UNL     1      -3.434   2.835  23.780  0.00  0.00    +0.095 C 
ATOM     11  C   UNL     1      -4.222   2.910  24.372  0.00  0.00    +0.043 C 
ATOM     12  C   UNL     1      -4.862   3.137  24.821  0.00  0.00    +0.011 C 
ATOM     13  C   UNL     1      -4.518   2.544  24.670  0.00  0.00    +0.058 C 
ATOM     14  C   UNL     1      -3.758   2.488  24.095  0.00  0.00    +0.099 C 
ATOM     15  C   UNL     1      -4.525   1.642  24.848  0.00  0.00    +0.041 A 
ATOM     16  C   UNL     1      -4.943   1.077  25.278  0.00  0.00    +0.013 A 
ATOM     17  C   UNL     1      -4.713   0.285  25.253  0.00  0.00    +0.006 A 
ATOM     18  C   UNL     1      -4.064   0.059  24.796  0.00  0.00    +0.058 A 
ATOM     25  C   UNL     1      -3.645   0.624  24.366  0.00  0.00    +0.261 A 
ATOM     26  O   UNL     1      -2.832   0.454  23.772  0.00  0.00    -0.267 OA
ATOM     27  N   UNL     1      -3.876   1.415  24.391  0.00  0.00    -0.299 N 
ATOM     28  C   UNL     1      -4.220   1.966  24.551  0.00  0.00    +0.110 C 
ENDROOT
BRANCH   2   3
ATOM      3  C   UNL     1      -3.238   0.601  24.057  0.00  0.00    +0.077 C 
ATOM      4  C   UNL     1      -2.831   0.349  24.728  0.00  0.00    +0.009 C 
ATOM      5  C   UNL     1      -2.989  -0.104  25.103  0.00  0.00    +0.000 C 
ATOM      6  C   UNL     1      -4.030  -0.914  25.064  0.00  0.00    +0.000 C 
ATOM      7  C   UNL     1      -4.301  -0.487  24.318  0.00  0.00    +0.000 C 
ATOM      8  C   UNL     1      -3.938   0.227  23.833  0.00  0.00    +0.009 C 
ENDBRANCH   2   3
BRANCH  18  19
ATOM     19  C   UNL     1      -3.835  -0.733  24.771  0.00  0.00    +0.024 A 
ATOM     20  C   UNL     1      -4.066  -1.209  24.138  0.00  0.00    +0.003 A 
ATOM     21  C   UNL     1      -3.836  -2.001  24.112  0.00  0.00    +0.021 A 
ATOM     22  C   UNL     1      -3.377  -2.317  24.719  0.00  0.00    +0.099 A 
ATOM     23  N   UNL     1      -3.145  -1.842  25.353  0.00  0.00    -0.242 NA
ATOM     24  C   UNL     1      -3.375  -1.049  25.379  0.00  0.00    +0.099 A 
ENDBRANCH  18  19
TORSDOF 2
ENDMDL
MODEL 2
REMARK VINA RESULT:     -15.9      0.900      3.349
REMARK  Name = 
REMARK  2 active torsions:
REMARK  status: ('A' for Active; 'I' for Inactive)
REMARK    1  A    between atoms: C_2  and  C_3
REMARK    2  A    between atoms: C_18  and  C_19
REMARK                            x       y       z     vdW  Elec       q    Type
REMARK                         _______ _______ _______ _____ _____    ______ ____
ROOT
ATOM      1  O   UNL     1      -1.362  -0.569  25.723  0.00  0.00    -0.275 OA
ATOM      2  C   UNL     1      -2.140  -0.636  25.308  0.00  0.00    +0.225 C 
ATOM      9  N   UNL     1      -2.366  -1.443  25.097  0.00  0.00    -0.279 N 
ATOM     10  C   UNL     1      -2.194  -2.260  25.093  0.00  0.00    +0.095 C 
ATOM     11  C   UNL     1      -3.001  -2.597  24.632  0.00  0.00    +0.043 C 
ATOM     12  C   UNL     1      -3.593  -3.026  24.273  0.00  0.00    +0.011 C 
ATOM     13  C   UNL     1      -3.457  -2.354  24.421  0.00  0.00    +0.058 C 
ATOM     14  C   UNL     1      -2.671  -2.044  24.868  0.00  0.00    +0.099 C 
ATOM     15  C   UNL     1      -3.810  -1.510  24.334  0.00  0.00    +0.041 A 
ATOM     16  C   UNL     1      -4.472  -1.122  24.032  0.00  0.00    +0.013 A 
ATOM     17  C   UNL     1      -4.533  -0.301  24.095  0.00  0.00    +0.006 A 
ATOM     18  C   UNL     1      -3.932   0.130  24.459  0.00  0.00    +0.058 A 
ATOM     25  C   UNL     1      -3.270  -0.258  24.761  0.00  0.00    +0.261 A 
ATOM     26  O   UNL     1      -2.472   0.175  25.228  0.00  0.00    -0.267 OA
ATOM     27  N   UNL     1      -3.209  -1.078  24.698  0.00  0.00    -0.299 N 
ATOM     28  C   UNL     1      -3.362  -1.712  24.545  0.00  0.00    +0.110 C 
ENDROOT
BRANCH   2   3
ATOM      3  C   UNL     1      -2.846  -0.100  25.001  0.00  0.00    +0.077 C 
ATOM      4  C   UNL     1      -2.681   0.311  24.305  0.00  0.00    +0.009 C 
ATOM      5  C   UNL     1      -3.053   0.689  24.006  0.00  0.00    +0.000 C 
ATOM      6  C   UNL     1      -4.289   1.058  24.284  0.00  0.00    +0.000 C 
ATOM      7  C   UNL     1      -4.254   0.532  25.014  0.00  0.00    +0.000 C 
ATOM      8  C   UNL     1      -3.582  -0.018  25.364  0.00  0.00    +0.009 C 
ENDBRANCH   2   3
BRANCH  18  19
ATOM     19  C   UNL     1      -3.993   0.950  24.522  0.00  0.00    +0.024 A 
ATOM     20  C   UNL     1      -3.772   1.430  23.888  0.00  0.00    +0.003 A 
ATOM     21  C   UNL     1      -3.833   2.250  23.949  0.00  0.00    +0.021 A 
ATOM     22  C   UNL     1      -4.115   2.591  24.645  0.00  0.00    +0.099 A 
ATOM     23  N   UNL     1      -4.337   2.113  25.280  0.00  0.00    -0.242 NA
ATOM     24  C   UNL     1      -4.275   1.291  25.218  0.00  0.00    +0.099 A 
ENDBRANCH  18  19
TORSDOF 2
ENDMDL
