MODEL 1
REMARK VINA RESULT:     -10.8      0.000      0.000
REMARK  Name = 
REMARK  4 active torsions:
REMARK  status: ('A' for Active; 'I' for Inactive)
REMARK    1  A    between atoms: C_7  and  C_8
REMARK    2  A    between atoms: C_10  and  C_11
REMARK    3  A    between atoms: C_11  and  S_12
REMARK    4  A    between atoms: S_12  and  C_15
REMARK                            x       y       z     vdW  Elec       q    Type
REMARK                         _______ _______ _______ _____ _____    ______ ____
ROOT
ATOM      8  C   UNL     1      -2.665   2.358  24.524  0.00  0.00    +0.251 A 
ATOM      9  N   UNL     1      -3.285   1.941  24.873  0.00  0.00    -0.192 NA
ATOM     10  C   UNL     1      -3.581   1.409  24.316  0.00  0.00    +0.205 A 
ATOM     22  N   UNL     1      -3.144   1.498  23.622  0.00  0.00    -0.059 NA
ATOM     23  O   UNL     1      -2.578   2.084  23.750  0.00  0.00    -0.336 OA
ENDROOT
BRANCH   8   7
ATOM      1  C   UNL     1      -1.090   2.118  25.350  0.00  0.00    +0.090 C 
ATOM      2  N   UNL     1      -1.488   2.836  25.264  0.00  0.00    -0.263 NA
ATOM      3  C   UNL     1      -1.232   3.569  25.543  0.00  0.00    +0.106 C 
ATOM      4  C   UNL     1      -1.798   4.133  25.335  0.00  0.00    +0.170 C 
ATOM      5  O   UNL     1      -1.764   4.939  25.505  0.00  0.00    -0.222 OA
ATOM      6  C   UNL     1      -2.404   3.748  24.928  0.00  0.00    +0.060 C 
ATOM      7  C   UNL     1      -2.212   2.946  24.884  0.00  0.00    +0.140 C 
ENDBRANCH   8   7
BRANCH  10  11
ATOM     11  C   UNL     1      -4.204   0.882  24.432  0.00  0.00    +0.224 C 
BRANCH  11  12
ATOM     12  S   UNL     1      -4.050   0.080  24.553  0.00  0.00    +0.016 S 
ATOM     13  O   UNL     1      -4.181   0.177  25.361  0.00  0.00    -0.168 OA
ATOM     14  O   UNL     1      -3.918  -0.017  23.744  0.00  0.00    -0.168 OA
BRANCH  12  15
ATOM     15  C   UNL     1      -3.896  -0.722  24.674  0.00  0.00    +0.106 A 
ATOM     16  C   UNL     1      -4.084  -1.270  24.088  0.00  0.00    +0.021 A 
ATOM     17  C   UNL     1      -3.930  -2.072  24.209  0.00  0.00    +0.031 A 
ATOM     18  C   UNL     1      -3.587  -2.324  24.915  0.00  0.00    +0.140 A 
ATOM     19  F   UNL     1      -3.433  -3.125  25.036  0.00  0.00    -0.204 F 
ATOM     20  C   UNL     1      -3.398  -1.774  25.501  0.00  0.00    +0.031 A 
ATOM     21  C   UNL     1      -3.553  -0.973  25.380  0.00  0.00    +0.021 A 
ENDBRANCH  12  15
ENDBRANCH  11  12
ENDBRANCH  10  11
TORSDOF 4
ENDMDL
MODEL 2
REMARK VINA RESULT:     -10.2      2.165      4.773
REMARK  Name = 
REMARK  4 active torsions:
REMARK  status: ('A' for Active; 'I' for Inactive)
REMARK    1  A    between atoms: C_7  and  C_8
REMARK    2  A    between atoms: C_10  and  C_11
REMARK    3  A    between atoms: C_11  and  S_12
REMARK    4  A    between atoms: S_12  and  C_15
REMARK                            x       y       z     vdW  Elec       q    Type
REMARK                         _______ _______ _______ _____ _____    ______ ____
ROOT
ATOM      8  C   UNL     1      -4.169   0.092  24.748  0.00  0.00    +0.251 A 
ATOM      9  N   UNL     1      -3.933   0.708  24.253  0.00  0.00    -0.192 NA
ATOM     10  C   UNL     1      -4.230   1.413  24.564  0.00  0.00    +0.205 A 
ATOM     22  N   UNL     1      -4.650   1.232  25.251  0.00  0.00    -0.059 NA
ATOM     23  O   UNL     1      -4.612   0.415  25.365  0.00  0.00    -0.336 OA
ENDROOT
BRANCH   8   7
ATOM      1  C   UNL     1      -2.979  -0.858  25.699  0.00  0.00    +0.090 C 
ATOM      2  N   UNL     1      -3.446  -1.144  25.082  0.00  0.00    -0.263 NA
ATOM      3  C   UNL     1      -3.448  -1.917  24.794  0.00  0.00    +0.106 C 
ATOM      4  C   UNL     1      -3.996  -1.959  24.178  0.00  0.00    +0.170 C 
ATOM      5  O   UNL     1      -4.176  -2.630  23.733  0.00  0.00    -0.222 OA
ATOM      6  C   UNL     1      -4.333  -1.211  24.086  0.00  0.00    +0.060 C 
ATOM      7  C   UNL     1      -3.993  -0.708  24.645  0.00  0.00    +0.140 C 
ENDBRANCH   8   7
BRANCH  10  11
ATOM     11  C   UNL     1      -4.126   2.165  24.244  0.00  0.00    +0.224 C 
BRANCH  11  12
ATOM     12  S   UNL     1      -3.523   2.654  24.526  0.00  0.00    +0.016 S 
ATOM     13  O   UNL     1      -3.033   2.404  23.911  0.00  0.00    -0.168 OA
ATOM     14  O   UNL     1      -4.013   2.905  25.140  0.00  0.00    -0.168 OA
BRANCH  12  15
ATOM     15  C   UNL     1      -2.921   3.143  24.807  0.00  0.00    +0.106 A 
ATOM     16  C   UNL     1      -3.089   3.722  25.369  0.00  0.00    +0.021 A 
ATOM     17  C   UNL     1      -2.487   4.210  25.650  0.00  0.00    +0.031 A 
ATOM     18  C   UNL     1      -1.716   4.120  25.370  0.00  0.00    +0.140 A 
ATOM     19  F   UNL     1      -1.114   4.608  25.651  0.00  0.00    -0.204 F 
ATOM     20  C   UNL     1      -1.548   3.540  24.807  0.00  0.00    +0.031 A 
ATOM     21  C   UNL     1      -2.151   3.051  24.526  0.00  0.00    +0.021 A 
ENDBRANCH  12  15
ENDBRANCH  11  12
ENDBRANCH  10  11
TORSDOF 4
ENDMDL
MODEL 3
REMARK VINA RESULT:     -10.1      1.215      1.573
REMARK  Name = 
REMARK  4 active torsions:
REMARK  status: ('A' for Active; 'I' for Inactive)
REMARK    1  A    between atoms: C_7  and  C_8
REMARK    2  A    between atoms: C_10  and  C_11
REMARK    3  A    between atoms: C_11  and  S_12
REMARK    4  A    between atoms: S_12  and  C_15
REMARK                            x       y       z     vdW  Elec       q    Type
REMARK                         _______ _______ _______ _____ _____    ______ ____
ROOT
ATOM      8  C   UNL     1      -2.037   1.840  24.849  0.00  0.00    +0.251 A 
ATOM      9  N   UNL     1      -2.293   1.225  25.335  0.00  0.00    -0.192 NA
ATOM     10  C   UNL     1      -1.944   0.526  25.068  0.00  0.00    +0.205 A 
ATOM     22  N   UNL     1      -1.473   0.710  24.416  0.00  0.00    -0.059 NA
ATOM     23  O   UNL     1      -1.530   1.521  24.280  0.00  0.00    -0.336 OA
ENDROOT
BRANCH   8   7
ATOM      1  C   UNL     1      -3.338   2.667  23.929  0.00  0.00    +0.090 C 
ATOM      2  N   UNL     1      -2.848   3.014  24.495  0.00  0.00    -0.263 NA
ATOM      3  C   UNL     1      -2.871   3.802  24.738  0.00  0.00    +0.106 C 
ATOM      4  C   UNL     1      -2.286   3.910  25.311  0.00  0.00    +0.170 C 
ATOM      5  O   UNL     1      -2.115   4.615  25.703  0.00  0.00    -0.222 OA
ATOM      6  C   UNL     1      -1.903   3.187  25.422  0.00  0.00    +0.060 C 
ATOM      7  C   UNL     1      -2.250   2.634  24.918  0.00  0.00    +0.140 C 
ENDBRANCH   8   7
BRANCH  10  11
ATOM     11  C   UNL     1      -2.049  -0.223  25.395  0.00  0.00    +0.224 C 
BRANCH  11  12
ATOM     12  S   UNL     1      -2.565  -0.761  25.039  0.00  0.00    +0.016 S 
ATOM     13  O   UNL     1      -3.169  -0.514  25.543  0.00  0.00    -0.168 OA
ATOM     14  O   UNL     1      -1.961  -1.008  24.535  0.00  0.00    -0.168 OA
BRANCH  12  15
ATOM     15  C   UNL     1      -3.081  -1.298  24.684  0.00  0.00    +0.106 A 
ATOM     16  C   UNL     1      -2.912  -2.105  24.702  0.00  0.00    +0.021 A 
ATOM     17  C   UNL     1      -3.429  -2.642  24.347  0.00  0.00    +0.031 A 
ATOM     18  C   UNL     1      -4.113  -2.372  23.975  0.00  0.00    +0.140 A 
ATOM     19  F   UNL     1      -4.629  -2.908  23.620  0.00  0.00    -0.204 F 
ATOM     20  C   UNL     1      -4.281  -1.564  23.957  0.00  0.00    +0.031 A 
ATOM     21  C   UNL     1      -3.765  -1.027  24.311  0.00  0.00    +0.021 A 
ENDBRANCH  12  15
ENDBRANCH  11  12
ENDBRANCH  10  11
TORSDOF 4
ENDMDL
