MODEL 1
REMARK VINA RESULT:     -11.1      0.000      0.000
REMARK  Name = 
REMARK  6 active torsions:
REMARK  status: ('A' for Active; 'I' for Inactive)
REMARK    1  A    between atoms: C_2  and  C_4
REMARK    2  A    between atoms: C_7  and  N_8
REMARK    3  A    between atoms: N_11  and  C_12
REMARK    4  A    between atoms: C_16  and  O_20
REMARK    5  A    between atoms: O_20  and  C_21
REMARK    6  A    between atoms: N_23  and  C_24
REMARK                            x       y       z     vdW  Elec       q    Type
REMARK                         _______ _______ _______ _____ _____    ______ ____
ROOT
ATOM     12  C   UNL     1       0.219   0.043  23.339  0.00  0.00    +0.156 C 
ATOM     13  C   UNL     1       0.118  -0.544  23.910  0.00  0.00    +0.166 C 
ATOM     14  O   UNL     1      -0.550  -0.356  24.355  0.00  0.00    -0.348 OA
ATOM     15  C   UNL     1      -0.862   0.347  24.060  0.00  0.00    +0.186 C 
ATOM     16  C   UNL     1      -1.469   0.900  24.152  0.00  0.00    +0.229 C 
ATOM     17  C   UNL     1      -1.369   1.487  23.582  0.00  0.00    +0.188 C 
ATOM     18  O   UNL     1      -0.700   1.298  23.137  0.00  0.00    -0.348 OA
ATOM     19  C   UNL     1      -0.387   0.594  23.432  0.00  0.00    +0.168 C 
ENDROOT
BRANCH  12  11
ATOM      8  N   UNL     1       2.211   0.117  22.449  0.00  0.00    -0.161 NA
ATOM      9  C   UNL     1       1.609   0.087  23.013  0.00  0.00    +0.344 C 
ATOM     10  O   UNL     1       1.798   0.072  23.816  0.00  0.00    -0.249 OA
ATOM     11  N   UNL     1       0.820   0.072  22.775  0.00  0.00    -0.184 NA
BRANCH   8   7
ATOM      4  C   UNL     1       4.579   0.161  23.164  0.00  0.00    +0.035 A 
ATOM      5  C   UNL     1       4.158  -0.548  23.179  0.00  0.00    +0.004 A 
ATOM      6  C   UNL     1       3.367  -0.562  22.941  0.00  0.00    +0.017 A 
ATOM      7  C   UNL     1       3.000   0.132  22.687  0.00  0.00    +0.075 A 
ATOM     34  C   UNL     1       3.423   0.840  22.673  0.00  0.00    +0.017 A 
ATOM     35  C   UNL     1       4.212   0.855  22.911  0.00  0.00    +0.004 A 
BRANCH   4   2
ATOM      1  C   UNL     1       5.577   0.527  24.120  0.00  0.00    +0.077 C 
ATOM      2  C   UNL     1       5.370   0.176  23.403  0.00  0.00    +0.173 C 
ATOM      3  O   UNL     1       5.951  -0.160  22.925  0.00  0.00    -0.291 OA
ENDBRANCH   4   2
ENDBRANCH   8   7
ENDBRANCH  12  11
BRANCH  16  20
ATOM     20  O   UNL     1      -2.070   0.869  24.717  0.00  0.00    -0.432 OA
BRANCH  20  21
ATOM     21  C   UNL     1      -2.475   1.556  24.925  0.00  0.00    +0.425 C 
ATOM     22  O   UNL     1      -2.061   2.206  25.222  0.00  0.00    -0.224 OA
ATOM     23  N   UNL     1      -3.295   1.595  24.838  0.00  0.00    -0.142 NA
BRANCH  23  24
ATOM     24  C   UNL     1      -3.700   2.283  25.046  0.00  0.00    +0.077 A 
ATOM     25  C   UNL     1      -3.286   2.986  25.163  0.00  0.00    +0.017 A 
ATOM     26  C   UNL     1      -3.692   3.674  25.371  0.00  0.00    +0.001 A 
ATOM     27  C   UNL     1      -4.511   3.658  25.463  0.00  0.00    +0.000 A 
ATOM     28  C   UNL     1      -4.925   2.955  25.347  0.00  0.00    +0.001 A 
ATOM     29  C   UNL     1      -5.745   2.938  25.438  0.00  0.00    +0.000 A 
ATOM     30  C   UNL     1      -6.159   2.235  25.322  0.00  0.00    +0.000 A 
ATOM     31  C   UNL     1      -5.753   1.546  25.113  0.00  0.00    +0.000 A 
ATOM     32  C   UNL     1      -4.934   1.563  25.021  0.00  0.00    +0.001 A 
ATOM     33  C   UNL     1      -4.519   2.266  25.138  0.00  0.00    +0.015 A 
ENDBRANCH  23  24
ENDBRANCH  20  21
ENDBRANCH  16  20
TORSDOF 6
ENDMDL
MODEL 2
REMARK VINA RESULT:      -9.3      1.760      2.449
REMARK  Name = 
REMARK  6 active torsions:
REMARK  status: ('A' for Active; 'I' for Inactive)
REMARK    1  A    between atoms: C_2  and  C_4
REMARK    2  A    between atoms: C_7  and  N_8
REMARK    3  A    between atoms: N_11  and  C_12
REMARK    4  A    between atoms: C_16  and  O_20
REMARK    5  A    between atoms: O_20  and  C_21
REMARK    6  A    between atoms: N_23  and  C_24
REMARK                            x       y       z     vdW  Elec       q    Type
REMARK                         _______ _______ _______ _____ _____    ______ ____
ROOT
ATOM     12  C   UNL     1       0.587   0.125  23.358  0.00  0.00    +0.156 C 
ATOM     13  C   UNL     1       0.468  -0.566  23.792  0.00  0.00    +0.166 C 
ATOM     14  O   UNL     1      -0.195  -0.455  24.272  0.00  0.00    -0.348 OA
ATOM     15  C   UNL     1      -0.484   0.305  24.133  0.00  0.00    +0.186 C 
ATOM     16  C   UNL     1      -1.072   0.844  24.344  0.00  0.00    +0.229 C 
ATOM     17  C   UNL     1      -0.952   1.536  23.909  0.00  0.00    +0.188 C 
ATOM     18  O   UNL     1      -0.290   1.424  23.431  0.00  0.00    -0.348 OA
ATOM     19  C   UNL     1      -0.000   0.663  23.569  0.00  0.00    +0.168 C 
ENDROOT
BRANCH  12  11
ATOM      8  N   UNL     1       2.582   0.329  22.494  0.00  0.00    -0.161 NA
ATOM      9  C   UNL     1       1.979   0.200  23.043  0.00  0.00    +0.344 C 
ATOM     10  O   UNL     1       2.166   0.017  23.825  0.00  0.00    -0.249 OA
ATOM     11  N   UNL     1       1.190   0.254  22.810  0.00  0.00    -0.184 NA
BRANCH   8   7
ATOM      4  C   UNL     1       4.950   0.167  23.193  0.00  0.00    +0.035 A 
ATOM      5  C   UNL     1       4.487  -0.514  23.146  0.00  0.00    +0.004 A 
ATOM      6  C   UNL     1       3.697  -0.460  22.913  0.00  0.00    +0.017 A 
ATOM      7  C   UNL     1       3.371   0.275  22.727  0.00  0.00    +0.075 A 
ATOM     34  C   UNL     1       3.835   0.955  22.774  0.00  0.00    +0.017 A 
ATOM     35  C   UNL     1       4.624   0.901  23.007  0.00  0.00    +0.004 A 
BRANCH   4   2
ATOM      1  C   UNL     1       5.965   0.360  24.181  0.00  0.00    +0.077 C 
ATOM      2  C   UNL     1       5.740   0.112  23.427  0.00  0.00    +0.173 C 
ATOM      3  O   UNL     1       6.304  -0.189  22.907  0.00  0.00    -0.291 OA
ENDBRANCH   4   2
ENDBRANCH   8   7
ENDBRANCH  12  11
BRANCH  16  20
ATOM     20  O   UNL     1      -1.675   0.715  24.893  0.00  0.00    -0.432 OA
BRANCH  20  21
ATOM     21  C   UNL     1      -2.420   0.472  24.638  0.00  0.00    +0.425 C 
ATOM     22  O   UNL     1      -2.854   0.948  24.122  0.00  0.00    -0.224 OA
ATOM     23  N   UNL     1      -2.732  -0.246  24.897  0.00  0.00    -0.142 NA
BRANCH  23  24
ATOM     24  C   UNL     1      -3.478  -0.488  24.642  0.00  0.00    +0.077 A 
ATOM     25  C   UNL     1      -4.085   0.063  24.561  0.00  0.00    +0.017 A 
ATOM     26  C   UNL     1      -4.832  -0.180  24.305  0.00  0.00    +0.001 A 
ATOM     27  C   UNL     1      -4.969  -0.974  24.130  0.00  0.00    +0.000 A 
ATOM     28  C   UNL     1      -4.362  -1.525  24.211  0.00  0.00    +0.001 A 
ATOM     29  C   UNL     1      -4.499  -2.320  24.036  0.00  0.00    +0.000 A 
ATOM     30  C   UNL     1      -3.892  -2.871  24.117  0.00  0.00    +0.000 A 
ATOM     31  C   UNL     1      -3.145  -2.628  24.373  0.00  0.00    +0.000 A 
ATOM     32  C   UNL     1      -3.007  -1.834  24.548  0.00  0.00    +0.001 A 
ATOM     33  C   UNL     1      -3.615  -1.282  24.467  0.00  0.00    +0.015 A 
ENDBRANCH  23  24
ENDBRANCH  20  21
ENDBRANCH  16  20
TORSDOF 6
ENDMDL
MODEL 3
REMARK VINA RESULT:      -7.4     16.628     18.348
REMARK  Name = 
REMARK  6 active torsions:
REMARK  status: ('A' for Active; 'I' for Inactive)
REMARK    1  A    between atoms: C_2  and  C_4
REMARK    2  A    between atoms: C_7  and  N_8
REMARK    3  A    between atoms: N_11  and  C_12
REMARK    4  A    between atoms: C_16  and  O_20
REMARK    5  A    between atoms: O_20  and  C_21
REMARK    6  A    between atoms: N_23  and  C_24
REMARK                            x       y       z     vdW  Elec       q    Type
REMARK                         _______ _______ _______ _____ _____    ______ ____
ROOT
ATOM     12  C   UNL     1      -4.351  -9.646   9.784  0.00  0.00    +0.156 C 
ATOM     13  C   UNL     1      -4.610 -10.412   9.947  0.00  0.00    +0.166 C 
ATOM     14  O   UNL     1      -4.056 -10.768  10.445  0.00  0.00    -0.348 OA
ATOM     15  C   UNL     1      -3.456 -10.221  10.589  0.00  0.00    +0.186 C 
ATOM     16  C   UNL     1      -2.742 -10.102  10.986  0.00  0.00    +0.229 C 
ATOM     17  C   UNL     1      -2.483  -9.335  10.822  0.00  0.00    +0.188 C 
ATOM     18  O   UNL     1      -3.037  -8.981  10.325  0.00  0.00    -0.348 OA
ATOM     19  C   UNL     1      -3.638  -9.528  10.180  0.00  0.00    +0.168 C 
ENDROOT
BRANCH  12  11
ATOM      8  N   UNL     1      -5.951  -8.525   8.810  0.00  0.00    -0.161 NA
ATOM      9  C   UNL     1      -5.563  -9.075   9.286  0.00  0.00    +0.344 C 
ATOM     10  O   UNL     1      -6.000  -9.606   9.742  0.00  0.00    -0.249 OA
ATOM     11  N   UNL     1      -4.739  -9.096   9.307  0.00  0.00    -0.184 NA
BRANCH   8   7
ATOM      4  C   UNL     1      -8.424  -8.464   8.747  0.00  0.00    +0.035 A 
ATOM      5  C   UNL     1      -8.015  -9.044   8.326  0.00  0.00    +0.004 A 
ATOM      6  C   UNL     1      -7.190  -9.064   8.348  0.00  0.00    +0.017 A 
ATOM      7  C   UNL     1      -6.775  -8.504   8.789  0.00  0.00    +0.075 A 
ATOM     34  C   UNL     1      -7.185  -7.924   9.209  0.00  0.00    +0.017 A 
ATOM     35  C   UNL     1      -8.009  -7.904   9.188  0.00  0.00    +0.004 A 
BRANCH   4   2
ATOM      1  C   UNL     1      -9.637  -7.778   8.431  0.00  0.00    +0.077 C 
ATOM      2  C   UNL     1      -9.249  -8.444   8.725  0.00  0.00    +0.173 C 
ATOM      3  O   UNL     1      -9.684  -9.088   8.998  0.00  0.00    -0.291 OA
ENDBRANCH   4   2
ENDBRANCH   8   7
ENDBRANCH  12  11
BRANCH  16  20
ATOM     20  O   UNL     1      -2.354 -10.654  11.463  0.00  0.00    -0.432 OA
BRANCH  20  21
ATOM     21  C   UNL     1      -2.135 -10.452  12.231  0.00  0.00    +0.425 C 
ATOM     22  O   UNL     1      -1.515  -9.922  12.358  0.00  0.00    -0.224 OA
ATOM     23  N   UNL     1      -2.535 -10.781  12.874  0.00  0.00    -0.142 NA
BRANCH  23  24
ATOM     24  C   UNL     1      -2.315 -10.579  13.643  0.00  0.00    +0.077 A 
ATOM     25  C   UNL     1      -1.533 -10.378  13.809  0.00  0.00    +0.017 A 
ATOM     26  C   UNL     1      -1.314 -10.176  14.580  0.00  0.00    +0.001 A 
ATOM     27  C   UNL     1      -1.877 -10.176  15.182  0.00  0.00    +0.000 A 
ATOM     28  C   UNL     1      -2.659 -10.377  15.016  0.00  0.00    +0.001 A 
ATOM     29  C   UNL     1      -3.223 -10.378  15.618  0.00  0.00    +0.000 A 
ATOM     30  C   UNL     1      -4.005 -10.579  15.452  0.00  0.00    +0.000 A 
ATOM     31  C   UNL     1      -4.224 -10.781  14.682  0.00  0.00    +0.000 A 
ATOM     32  C   UNL     1      -3.661 -10.781  14.079  0.00  0.00    +0.001 A 
ATOM     33  C   UNL     1      -2.878 -10.579  14.245  0.00  0.00    +0.015 A 
ENDBRANCH  23  24
ENDBRANCH  20  21
ENDBRANCH  16  20
TORSDOF 6
ENDMDL
