MODEL 1
REMARK VINA RESULT:     -10.0      0.000      0.000
REMARK  Name = 
REMARK  9 active torsions:
REMARK  status: ('A' for Active; 'I' for Inactive)
REMARK    1  A    between atoms: O_2  and  C_3
REMARK    2  A    between atoms: C_6  and  C_9
REMARK    3  A    between atoms: N_11  and  C_12
REMARK    4  A    between atoms: C_19  and  C_20
REMARK    5  A    between atoms: C_20  and  C_22
REMARK    6  A    between atoms: N_24  and  C_25
REMARK    7  A    between atoms: C_25  and  C_26
REMARK    8  A    between atoms: C_28  and  O_29
REMARK    9  A    between atoms: C_31  and  O_32
REMARK                            x       y       z     vdW  Elec       q    Type
REMARK                         _______ _______ _______ _____ _____    ______ ____
ROOT
ATOM     12  C   UNL     1      -0.305  -0.973  24.182  0.00  0.00    +0.096 C 
ATOM     13  C   UNL     1      -0.370  -1.740  23.884  0.00  0.00    +0.022 C 
ATOM     14  C   UNL     1      -1.065  -2.168  23.997  0.00  0.00    +0.002 C 
ATOM     15  C   UNL     1      -1.695  -1.831  24.409  0.00  0.00    +0.002 C 
ATOM     16  C   UNL     1      -1.760  -2.597  24.111  0.00  0.00    +0.000 C 
ATOM     17  C   UNL     1      -2.391  -2.259  24.523  0.00  0.00    +0.000 C 
ATOM     18  C   UNL     1      -3.021  -1.922  24.934  0.00  0.00    +0.003 C 
ATOM     19  C   UNL     1      -2.955  -1.155  25.232  0.00  0.00    +0.039 C 
ATOM     36  C   UNL     1      -2.260  -0.727  25.119  0.00  0.00    +0.152 C 
ATOM     37  O   UNL     1      -2.195   0.040  25.417  0.00  0.00    -0.223 OA
ATOM     38  C   UNL     1      -1.629  -1.064  24.707  0.00  0.00    +0.032 C 
ATOM     39  C   UNL     1      -0.934  -0.635  24.593  0.00  0.00    +0.022 C 
ATOM     40  C   UNL     1      -0.869   0.131  24.891  0.00  0.00    +0.002 C 
ENDROOT
BRANCH  12  11
ATOM      9  C   UNL     1       0.673  -0.407  23.304  0.00  0.00    +0.265 C 
ATOM     10  O   UNL     1       0.257  -0.699  22.653  0.00  0.00    -0.268 OA
ATOM     11  N   UNL     1       0.392  -0.544  24.068  0.00  0.00    -0.203 NA
BRANCH   9   6
ATOM      3  C   UNL     1       2.760   0.877  22.964  0.00  0.00    +0.139 A 
ATOM      4  C   UNL     1       2.125   1.220  23.363  0.00  0.00    +0.037 A 
ATOM      5  C   UNL     1       1.429   0.791  23.477  0.00  0.00    +0.008 A 
ATOM      6  C   UNL     1       1.368   0.020  23.191  0.00  0.00    +0.055 A 
ATOM      7  C   UNL     1       2.003  -0.323  22.792  0.00  0.00    +0.008 A 
ATOM      8  C   UNL     1       2.699   0.105  22.678  0.00  0.00    +0.037 A 
BRANCH   3   2
ATOM      1  C   UNL     1       4.179   0.911  22.804  0.00  0.00    +0.252 C 
ATOM      2  O   UNL     1       3.456   1.304  22.850  0.00  0.00    -0.471 OA
ENDBRANCH   3   2
ENDBRANCH   9   6
ENDBRANCH  12  11
BRANCH  19  20
ATOM     20  C   UNL     1      -3.586  -0.818  25.644  0.00  0.00    +0.081 C 
ATOM     21  C   UNL     1      -3.617  -0.873  26.467  0.00  0.00    +0.010 C 
BRANCH  20  22
ATOM     22  C   UNL     1      -4.184  -0.426  25.234  0.00  0.00    +0.241 C 
ATOM     23  O   UNL     1      -4.636  -0.832  24.674  0.00  0.00    -0.273 OA
ATOM     24  N   UNL     1      -4.333   0.372  25.383  0.00  0.00    -0.201 NA
BRANCH  24  25
ATOM     25  C   UNL     1      -4.931   0.764  24.973  0.00  0.00    +0.142 C 
BRANCH  25  26
ATOM     26  C   UNL     1      -5.013   1.582  25.043  0.00  0.00    +0.003 A 
ATOM     27  C   UNL     1      -4.551   2.085  24.582  0.00  0.00    +0.037 A 
ATOM     28  C   UNL     1      -4.633   2.903  24.652  0.00  0.00    +0.172 A 
ATOM     31  C   UNL     1      -5.178   3.218  25.185  0.00  0.00    +0.172 A 
ATOM     34  C   UNL     1      -5.641   2.715  25.648  0.00  0.00    +0.040 A 
ATOM     35  C   UNL     1      -5.558   1.897  25.577  0.00  0.00    +0.001 A 
BRANCH  28  29
ATOM     29  O   UNL     1      -4.171   3.406  24.190  0.00  0.00    -0.468 OA
ATOM     30  C   UNL     1      -3.640   3.092  23.642  0.00  0.00    +0.253 C 
ENDBRANCH  28  29
BRANCH  31  32
ATOM     32  O   UNL     1      -5.261   4.036  25.257  0.00  0.00    -0.468 OA
ATOM     33  C   UNL     1      -5.874   4.349  25.713  0.00  0.00    +0.253 C 
ENDBRANCH  31  32
ENDBRANCH  25  26
ENDBRANCH  24  25
ENDBRANCH  20  22
ENDBRANCH  19  20
TORSDOF 9
ENDMDL
MODEL 2
REMARK VINA RESULT:      -9.7      2.040      5.698
REMARK  Name = 
REMARK  9 active torsions:
REMARK  status: ('A' for Active; 'I' for Inactive)
REMARK    1  A    between atoms: O_2  and  C_3
REMARK    2  A    between atoms: C_6  and  C_9
REMARK    3  A    between atoms: N_11  and  C_12
REMARK    4  A    between atoms: C_19  and  C_20
REMARK    5  A    between atoms: C_20  and  C_22
REMARK    6  A    between atoms: N_24  and  C_25
REMARK    7  A    between atoms: C_25  and  C_26
REMARK    8  A    between atoms: C_28  and  O_29
REMARK    9  A    between atoms: C_31  and  O_32
REMARK                            x       y       z     vdW  Elec       q    Type
REMARK                         _______ _______ _______ _____ _____    ______ ____
ROOT
ATOM     12  C   UNL     1      -4.692   0.727  24.803  0.00  0.00    +0.096 C 
ATOM     13  C   UNL     1      -5.322   0.842  25.325  0.00  0.00    +0.022 C 
ATOM     14  C   UNL     1      -5.492   1.598  25.606  0.00  0.00    +0.002 C 
ATOM     15  C   UNL     1      -5.033   2.240  25.366  0.00  0.00    +0.002 C 
ATOM     16  C   UNL     1      -5.662   2.354  25.887  0.00  0.00    +0.000 C 
ATOM     17  C   UNL     1      -5.203   2.997  25.648  0.00  0.00    +0.000 C 
ATOM     18  C   UNL     1      -4.745   3.639  25.408  0.00  0.00    +0.003 C 
ATOM     19  C   UNL     1      -4.115   3.524  24.886  0.00  0.00    +0.039 C 
ATOM     36  C   UNL     1      -3.945   2.768  24.605  0.00  0.00    +0.152 C 
ATOM     37  O   UNL     1      -3.316   2.654  24.084  0.00  0.00    -0.223 OA
ATOM     38  C   UNL     1      -4.403   2.125  24.845  0.00  0.00    +0.032 C 
ATOM     39  C   UNL     1      -4.233   1.369  24.564  0.00  0.00    +0.022 C 
ATOM     40  C   UNL     1      -3.604   1.255  24.042  0.00  0.00    +0.002 C 
ENDROOT
BRANCH  12  11
ATOM      9  C   UNL     1      -4.228  -0.605  25.035  0.00  0.00    +0.265 C 
ATOM     10  O   UNL     1      -4.104  -0.424  25.831  0.00  0.00    -0.268 OA
ATOM     11  N   UNL     1      -4.522  -0.030  24.522  0.00  0.00    -0.203 NA
BRANCH   9   6
ATOM      3  C   UNL     1      -3.720  -2.875  24.190  0.00  0.00    +0.139 A 
ATOM      4  C   UNL     1      -3.407  -2.623  24.911  0.00  0.00    +0.037 A 
ATOM      5  C   UNL     1      -3.577  -1.866  25.192  0.00  0.00    +0.008 A 
ATOM      6  C   UNL     1      -4.059  -1.362  24.754  0.00  0.00    +0.055 A 
ATOM      7  C   UNL     1      -4.372  -1.613  24.033  0.00  0.00    +0.008 A 
ATOM      8  C   UNL     1      -4.203  -2.370  23.751  0.00  0.00    +0.037 A 
BRANCH   3   2
ATOM      1  C   UNL     1      -2.824  -3.787  23.554  0.00  0.00    +0.252 C 
ATOM      2  O   UNL     1      -3.551  -3.631  23.908  0.00  0.00    -0.471 OA
ENDBRANCH   3   2
ENDBRANCH   9   6
ENDBRANCH  12  11
BRANCH  19  20
ATOM     20  C   UNL     1      -3.656   4.167  24.647  0.00  0.00    +0.081 C 
ATOM     21  C   UNL     1      -3.922   4.660  24.041  0.00  0.00    +0.010 C 
BRANCH  20  22
ATOM     22  C   UNL     1      -2.932   4.317  25.012  0.00  0.00    +0.241 C 
ATOM     23  O   UNL     1      -2.907   4.742  25.720  0.00  0.00    -0.273 OA
ATOM     24  N   UNL     1      -2.233   4.043  24.671  0.00  0.00    -0.201 NA
BRANCH  24  25
ATOM     25  C   UNL     1      -1.509   4.192  25.036  0.00  0.00    +0.142 C 
BRANCH  25  26
ATOM     26  C   UNL     1      -0.884   3.661  24.949  0.00  0.00    +0.003 A 
ATOM     27  C   UNL     1      -0.558   3.294  25.611  0.00  0.00    +0.037 A 
ATOM     28  C   UNL     1       0.067   2.762  25.524  0.00  0.00    +0.172 A 
ATOM     31  C   UNL     1       0.366   2.597  24.773  0.00  0.00    +0.172 A 
ATOM     34  C   UNL     1       0.040   2.965  24.109  0.00  0.00    +0.040 A 
ATOM     35  C   UNL     1      -0.585   3.496  24.198  0.00  0.00    +0.001 A 
BRANCH  28  29
ATOM     29  O   UNL     1       0.393   2.395  26.187  0.00  0.00    -0.468 OA
ATOM     30  C   UNL     1      -0.003   2.422  26.910  0.00  0.00    +0.253 C 
ENDBRANCH  28  29
BRANCH  31  32
ATOM     32  O   UNL     1       0.990   2.066  24.685  0.00  0.00    -0.468 OA
ATOM     33  C   UNL     1       1.044   1.603  24.003  0.00  0.00    +0.253 C 
ENDBRANCH  31  32
ENDBRANCH  25  26
ENDBRANCH  24  25
ENDBRANCH  20  22
ENDBRANCH  19  20
TORSDOF 9
ENDMDL
MODEL 3
REMARK VINA RESULT:      -9.7      1.667      3.752
REMARK  Name = 
REMARK  9 active torsions:
REMARK  status: ('A' for Active; 'I' for Inactive)
REMARK    1  A    between atoms: O_2  and  C_3
REMARK    2  A    between atoms: C_6  and  C_9
REMARK    3  A    between atoms: N_11  and  C_12
REMARK    4  A    between atoms: C_19  and  C_20
REMARK    5  A    between atoms: C_20  and  C_22
REMARK    6  A    between atoms: N_24  and  C_25
REMARK    7  A    between atoms: C_25  and  C_26
REMARK    8  A    between atoms: C_28  and  O_29
REMARK    9  A    between atoms: C_31  and  O_32
REMARK                            x       y       z     vdW  Elec       q    Type
REMARK                         _______ _______ _______ _____ _____    ______ ____
ROOT
ATOM     12  C   UNL     1      -0.347   2.315  24.228  0.00  0.00    +0.096 C 
ATOM     13  C   UNL     1      -0.168   2.706  24.933  0.00  0.00    +0.022 C 
ATOM     14  C   UNL     1      -0.774   3.021  25.395  0.00  0.00    +0.002 C 
ATOM     15  C   UNL     1      -1.558   2.948  25.152  0.00  0.00    +0.002 C 
ATOM     16  C   UNL     1      -1.379   3.337  25.856  0.00  0.00    +0.000 C 
ATOM     17  C   UNL     1      -2.165   3.264  25.614  0.00  0.00    +0.000 C 
ATOM     18  C   UNL     1      -2.949   3.191  25.371  0.00  0.00    +0.003 C 
ATOM     19  C   UNL     1      -3.128   2.801  24.665  0.00  0.00    +0.039 C 
ATOM     36  C   UNL     1      -2.523   2.485  24.204  0.00  0.00    +0.152 C 
ATOM     37  O   UNL     1      -2.702   2.096  23.499  0.00  0.00    -0.223 OA
ATOM     38  C   UNL     1      -1.737   2.558  24.446  0.00  0.00    +0.032 C 
ATOM     39  C   UNL     1      -1.132   2.242  23.985  0.00  0.00    +0.022 C 
ATOM     40  C   UNL     1      -1.311   1.853  23.280  0.00  0.00    +0.002 C 
ENDROOT
BRANCH  12  11
ATOM      9  C   UNL     1       0.705   1.364  24.047  0.00  0.00    +0.265 C 
ATOM     10  O   UNL     1       0.544   1.044  24.791  0.00  0.00    -0.268 OA
ATOM     11  N   UNL     1       0.259   1.999  23.766  0.00  0.00    -0.203 NA
BRANCH   9   6
ATOM      3  C   UNL     1       2.524   0.417  22.662  0.00  0.00    +0.139 A 
ATOM      4  C   UNL     1       2.645   1.119  23.078  0.00  0.00    +0.037 A 
ATOM      5  C   UNL     1       2.038   1.434  23.540  0.00  0.00    +0.008 A 
ATOM      6  C   UNL     1       1.311   1.049  23.586  0.00  0.00    +0.055 A 
ATOM      7  C   UNL     1       1.190   0.347  23.170  0.00  0.00    +0.008 A 
ATOM      8  C   UNL     1       1.795   0.030  22.708  0.00  0.00    +0.037 A 
BRANCH   3   2
ATOM      1  C   UNL     1       3.900   0.380  22.283  0.00  0.00    +0.252 C 
ATOM      2  O   UNL     1       3.129   0.101  22.200  0.00  0.00    -0.471 OA
ENDBRANCH   3   2
ENDBRANCH   9   6
ENDBRANCH  12  11
BRANCH  19  20
ATOM     20  C   UNL     1      -3.914   2.728  24.423  0.00  0.00    +0.081 C 
ATOM     21  C   UNL     1      -4.226   3.257  23.872  0.00  0.00    +0.010 C 
BRANCH  20  22
ATOM     22  C   UNL     1      -4.387   2.127  24.730  0.00  0.00    +0.241 C 
ATOM     23  O   UNL     1      -5.012   2.312  25.238  0.00  0.00    -0.273 OA
ATOM     24  N   UNL     1      -4.236   1.340  24.532  0.00  0.00    -0.201 NA
BRANCH  24  25
ATOM     25  C   UNL     1      -4.709   0.739  24.839  0.00  0.00    +0.142 C 
BRANCH  25  26
ATOM     26  C   UNL     1      -4.457  -0.046  24.800  0.00  0.00    +0.003 A 
ATOM     27  C   UNL     1      -3.992  -0.361  25.404  0.00  0.00    +0.037 A 
ATOM     28  C   UNL     1      -3.740  -1.146  25.365  0.00  0.00    +0.172 A 
ATOM     31  C   UNL     1      -3.955  -1.615  24.721  0.00  0.00    +0.172 A 
ATOM     34  C   UNL     1      -4.421  -1.300  24.117  0.00  0.00    +0.040 A 
ATOM     35  C   UNL     1      -4.672  -0.516  24.157  0.00  0.00    +0.001 A 
BRANCH  28  29
ATOM     29  O   UNL     1      -3.275  -1.460  25.968  0.00  0.00    -0.468 OA
ATOM     30  C   UNL     1      -2.624  -1.039  26.250  0.00  0.00    +0.253 C 
ENDBRANCH  28  29
BRANCH  31  32
ATOM     32  O   UNL     1      -3.704  -2.400  24.681  0.00  0.00    -0.468 OA
ATOM     33  C   UNL     1      -3.877  -2.855  24.014  0.00  0.00    +0.253 C 
ENDBRANCH  31  32
ENDBRANCH  25  26
ENDBRANCH  24  25
ENDBRANCH  20  22
ENDBRANCH  19  20
TORSDOF 9
ENDMDL
MODEL 4
REMARK VINA RESULT:      -9.0      0.934      6.147
REMARK  Name = 
REMARK  9 active torsions:
REMARK  status: ('A' for Active; 'I' for Inactive)
REMARK    1  A    between atoms: O_2  and  C_3
REMARK    2  A    between atoms: C_6  and  C_9
REMARK    3  A    between atoms: N_11  and  C_12
REMARK    4  A    between atoms: C_19  and  C_20
REMARK    5  A    between atoms: C_20  and  C_22
REMARK    6  A    between atoms: N_24  and  C_25
REMARK    7  A    between atoms: C_25  and  C_26
REMARK    8  A    between atoms: C_28  and  O_29
REMARK    9  A    between atoms: C_31  and  O_32
REMARK                            x       y       z     vdW  Elec       q    Type
REMARK                         _______ _______ _______ _____ _____    ______ ____
ROOT
ATOM     12  C   UNL     1      -4.071   0.397  25.100  0.00  0.00    +0.096 C 
ATOM     13  C   UNL     1      -4.590  -0.167  24.793  0.00  0.00    +0.022 C 
ATOM     14  C   UNL     1      -4.301  -0.892  24.527  0.00  0.00    +0.002 C 
ATOM     15  C   UNL     1      -3.494  -1.054  24.569  0.00  0.00    +0.002 C 
ATOM     16  C   UNL     1      -4.011  -1.617  24.262  0.00  0.00    +0.000 C 
ATOM     17  C   UNL     1      -3.203  -1.779  24.303  0.00  0.00    +0.000 C 
ATOM     18  C   UNL     1      -2.396  -1.941  24.345  0.00  0.00    +0.003 C 
ATOM     19  C   UNL     1      -1.877  -1.377  24.652  0.00  0.00    +0.039 C 
ATOM     36  C   UNL     1      -2.167  -0.652  24.917  0.00  0.00    +0.152 C 
ATOM     37  O   UNL     1      -1.648  -0.089  25.224  0.00  0.00    -0.223 OA
ATOM     38  C   UNL     1      -2.975  -0.489  24.876  0.00  0.00    +0.032 C 
ATOM     39  C   UNL     1      -3.264   0.235  25.141  0.00  0.00    +0.022 C 
ATOM     40  C   UNL     1      -2.745   0.799  25.448  0.00  0.00    +0.002 C 
ENDROOT
BRANCH  12  11
ATOM      9  C   UNL     1      -4.815   1.596  24.864  0.00  0.00    +0.265 C 
ATOM     10  O   UNL     1      -4.979   1.342  24.095  0.00  0.00    -0.268 OA
ATOM     11  N   UNL     1      -4.361   1.123  25.365  0.00  0.00    -0.203 NA
BRANCH   9   6
ATOM      3  C   UNL     1      -5.685   3.771  25.661  0.00  0.00    +0.139 A 
ATOM      4  C   UNL     1      -4.945   3.730  25.299  0.00  0.00    +0.037 A 
ATOM      5  C   UNL     1      -4.655   3.005  25.033  0.00  0.00    +0.008 A 
ATOM      6  C   UNL     1      -5.105   2.320  25.129  0.00  0.00    +0.055 A 
ATOM      7  C   UNL     1      -5.844   2.361  25.492  0.00  0.00    +0.008 A 
ATOM      8  C   UNL     1      -6.135   3.085  25.758  0.00  0.00    +0.037 A 
BRANCH   3   2
ATOM      1  C   UNL     1      -6.168   5.086  25.386  0.00  0.00    +0.252 C 
ATOM      2  O   UNL     1      -5.975   4.495  25.927  0.00  0.00    -0.471 OA
ENDBRANCH   3   2
ENDBRANCH   9   6
ENDBRANCH  12  11
BRANCH  19  20
ATOM     20  C   UNL     1      -1.069  -1.540  24.693  0.00  0.00    +0.081 C 
ATOM     21  C   UNL     1      -0.726  -1.742  25.416  0.00  0.00    +0.010 C 
BRANCH  20  22
ATOM     22  C   UNL     1      -0.605  -1.500  24.013  0.00  0.00    +0.241 C 
ATOM     23  O   UNL     1      -0.683  -2.076  23.426  0.00  0.00    -0.273 OA
ATOM     24  N   UNL     1      -0.061  -0.887  23.919  0.00  0.00    -0.201 NA
BRANCH  24  25
ATOM     25  C   UNL     1       0.403  -0.847  23.239  0.00  0.00    +0.142 C 
BRANCH  25  26
ATOM     26  C   UNL     1       1.020  -0.302  23.191  0.00  0.00    +0.003 A 
ATOM     27  C   UNL     1       0.932   0.452  23.512  0.00  0.00    +0.037 A 
ATOM     28  C   UNL     1       1.549   0.997  23.464  0.00  0.00    +0.172 A 
ATOM     31  C   UNL     1       2.256   0.788  23.094  0.00  0.00    +0.172 A 
ATOM     34  C   UNL     1       2.345   0.033  22.771  0.00  0.00    +0.040 A 
ATOM     35  C   UNL     1       1.727  -0.512  22.820  0.00  0.00    +0.001 A 
BRANCH  28  29
ATOM     29  O   UNL     1       1.460   1.751  23.786  0.00  0.00    -0.468 OA
ATOM     30  C   UNL     1       0.733   1.984  24.099  0.00  0.00    +0.253 C 
ENDBRANCH  28  29
BRANCH  31  32
ATOM     32  O   UNL     1       2.874   1.332  23.045  0.00  0.00    -0.468 OA
ATOM     33  C   UNL     1       3.609   1.096  22.752  0.00  0.00    +0.253 C 
ENDBRANCH  31  32
ENDBRANCH  25  26
ENDBRANCH  24  25
ENDBRANCH  20  22
ENDBRANCH  19  20
TORSDOF 9
ENDMDL
MODEL 5
REMARK VINA RESULT:      -8.8      1.715      7.368
REMARK  Name = 
REMARK  9 active torsions:
REMARK  status: ('A' for Active; 'I' for Inactive)
REMARK    1  A    between atoms: O_2  and  C_3
REMARK    2  A    between atoms: C_6  and  C_9
REMARK    3  A    between atoms: N_11  and  C_12
REMARK    4  A    between atoms: C_19  and  C_20
REMARK    5  A    between atoms: C_20  and  C_22
REMARK    6  A    between atoms: N_24  and  C_25
REMARK    7  A    between atoms: C_25  and  C_26
REMARK    8  A    between atoms: C_28  and  O_29
REMARK    9  A    between atoms: C_31  and  O_32
REMARK                            x       y       z     vdW  Elec       q    Type
REMARK                         _______ _______ _______ _____ _____    ______ ____
ROOT
ATOM     12  C   UNL     1      -2.119   1.892  24.782  0.00  0.00    +0.096 C 
ATOM     13  C   UNL     1      -1.714   2.611  24.815  0.00  0.00    +0.022 C 
ATOM     14  C   UNL     1      -0.926   2.651  24.577  0.00  0.00    +0.002 C 
ATOM     15  C   UNL     1      -0.541   1.974  24.307  0.00  0.00    +0.002 C 
ATOM     16  C   UNL     1      -0.138   2.691  24.340  0.00  0.00    +0.000 C 
ATOM     17  C   UNL     1       0.248   2.013  24.070  0.00  0.00    +0.000 C 
ATOM     18  C   UNL     1       0.632   1.336  23.799  0.00  0.00    +0.003 C 
ATOM     19  C   UNL     1       0.228   0.617  23.766  0.00  0.00    +0.039 C 
ATOM     36  C   UNL     1      -0.561   0.577  24.004  0.00  0.00    +0.152 C 
ATOM     37  O   UNL     1      -0.965  -0.142  23.971  0.00  0.00    -0.223 OA
ATOM     38  C   UNL     1      -0.946   1.254  24.274  0.00  0.00    +0.032 C 
ATOM     39  C   UNL     1      -1.735   1.214  24.512  0.00  0.00    +0.022 C 
ATOM     40  C   UNL     1      -2.139   0.496  24.479  0.00  0.00    +0.002 C 
ENDROOT
BRANCH  12  11
ATOM      9  C   UNL     1      -3.437   2.447  24.802  0.00  0.00    +0.265 C 
ATOM     10  O   UNL     1      -3.175   3.084  24.346  0.00  0.00    -0.268 OA
ATOM     11  N   UNL     1      -2.909   1.852  25.019  0.00  0.00    -0.203 NA
BRANCH   9   6
ATOM      3  C   UNL     1      -5.803   2.327  25.515  0.00  0.00    +0.139 A 
ATOM      4  C   UNL     1      -5.311   2.916  25.816  0.00  0.00    +0.037 A 
ATOM      5  C   UNL     1      -4.522   2.956  25.578  0.00  0.00    +0.008 A 
ATOM      6  C   UNL     1      -4.225   2.407  25.039  0.00  0.00    +0.055 A 
ATOM      7  C   UNL     1      -4.717   1.818  24.738  0.00  0.00    +0.008 A 
ATOM      8  C   UNL     1      -5.506   1.777  24.975  0.00  0.00    +0.037 A 
BRANCH   3   2
ATOM      1  C   UNL     1      -6.790   1.922  26.464  0.00  0.00    +0.252 C 
ATOM      2  O   UNL     1      -6.592   2.286  25.752  0.00  0.00    -0.471 OA
ENDBRANCH   3   2
ENDBRANCH   9   6
ENDBRANCH  12  11
BRANCH  19  20
ATOM     20  C   UNL     1       0.613  -0.061  23.496  0.00  0.00    +0.081 C 
ATOM     21  C   UNL     1       0.393  -0.802  23.784  0.00  0.00    +0.010 C 
BRANCH  20  22
ATOM     22  C   UNL     1       1.217   0.002  22.938  0.00  0.00    +0.241 C 
ATOM     23  O   UNL     1       1.033   0.066  22.136  0.00  0.00    -0.273 OA
ATOM     24  N   UNL     1       2.005   0.003  23.182  0.00  0.00    -0.201 NA
BRANCH  24  25
ATOM     25  C   UNL     1       2.609   0.066  22.624  0.00  0.00    +0.142 C 
BRANCH  25  26
ATOM     26  C   UNL     1       3.397   0.085  22.869  0.00  0.00    +0.003 A 
ATOM     27  C   UNL     1       3.733  -0.574  23.233  0.00  0.00    +0.037 A 
ATOM     28  C   UNL     1       4.521  -0.555  23.477  0.00  0.00    +0.172 A 
ATOM     31  C   UNL     1       4.973   0.125  23.357  0.00  0.00    +0.172 A 
ATOM     34  C   UNL     1       4.637   0.785  22.992  0.00  0.00    +0.040 A 
ATOM     35  C   UNL     1       3.849   0.764  22.748  0.00  0.00    +0.001 A 
BRANCH  28  29
ATOM     29  O   UNL     1       4.856  -1.213  23.842  0.00  0.00    -0.468 OA
ATOM     30  C   UNL     1       4.435  -1.921  23.885  0.00  0.00    +0.253 C 
ENDBRANCH  28  29
BRANCH  31  32
ATOM     32  O   UNL     1       5.761   0.146  23.601  0.00  0.00    -0.468 OA
ATOM     33  C   UNL     1       6.077   0.841  23.914  0.00  0.00    +0.253 C 
ENDBRANCH  31  32
ENDBRANCH  25  26
ENDBRANCH  24  25
ENDBRANCH  20  22
ENDBRANCH  19  20
TORSDOF 9
ENDMDL
MODEL 6
REMARK VINA RESULT:      -8.3      1.699      2.444
REMARK  Name = 
REMARK  9 active torsions:
REMARK  status: ('A' for Active; 'I' for Inactive)
REMARK    1  A    between atoms: O_2  and  C_3
REMARK    2  A    between atoms: C_6  and  C_9
REMARK    3  A    between atoms: N_11  and  C_12
REMARK    4  A    between atoms: C_19  and  C_20
REMARK    5  A    between atoms: C_20  and  C_22
REMARK    6  A    between atoms: N_24  and  C_25
REMARK    7  A    between atoms: C_25  and  C_26
REMARK    8  A    between atoms: C_28  and  O_29
REMARK    9  A    between atoms: C_31  and  O_32
REMARK                            x       y       z     vdW  Elec       q    Type
REMARK                         _______ _______ _______ _____ _____    ______ ____
ROOT
ATOM     12  C   UNL     1      -1.698  -0.352  24.173  0.00  0.00    +0.096 C 
ATOM     13  C   UNL     1      -1.760  -0.958  24.730  0.00  0.00    +0.022 C 
ATOM     14  C   UNL     1      -2.437  -1.022  25.196  0.00  0.00    +0.002 C 
ATOM     15  C   UNL     1      -3.052  -0.480  25.106  0.00  0.00    +0.002 C 
ATOM     16  C   UNL     1      -3.114  -1.085  25.662  0.00  0.00    +0.000 C 
ATOM     17  C   UNL     1      -3.730  -0.543  25.573  0.00  0.00    +0.000 C 
ATOM     18  C   UNL     1      -4.344  -0.001  25.483  0.00  0.00    +0.003 C 
ATOM     19  C   UNL     1      -4.282   0.606  24.926  0.00  0.00    +0.039 C 
ATOM     36  C   UNL     1      -3.605   0.669  24.460  0.00  0.00    +0.152 C 
ATOM     37  O   UNL     1      -3.543   1.275  23.903  0.00  0.00    -0.223 OA
ATOM     38  C   UNL     1      -2.989   0.127  24.549  0.00  0.00    +0.032 C 
ATOM     39  C   UNL     1      -2.312   0.190  24.083  0.00  0.00    +0.022 C 
ATOM     40  C   UNL     1      -2.250   0.796  23.527  0.00  0.00    +0.002 C 
ENDROOT
BRANCH  12  11
ATOM      9  C   UNL     1      -0.284  -0.170  24.060  0.00  0.00    +0.265 C 
ATOM     10  O   UNL     1      -0.225  -0.115  24.882  0.00  0.00    -0.268 OA
ATOM     11  N   UNL     1      -1.020  -0.289  23.707  0.00  0.00    -0.203 NA
BRANCH   9   6
ATOM      3  C   UNL     1       1.748   0.018  22.661  0.00  0.00    +0.139 A 
ATOM      4  C   UNL     1       1.236  -0.621  22.561  0.00  0.00    +0.037 A 
ATOM      5  C   UNL     1       0.559  -0.683  23.028  0.00  0.00    +0.008 A 
ATOM      6  C   UNL     1       0.393  -0.108  23.594  0.00  0.00    +0.055 A 
ATOM      7  C   UNL     1       0.905   0.532  23.694  0.00  0.00    +0.008 A 
ATOM      8  C   UNL     1       1.582   0.595  23.228  0.00  0.00    +0.037 A 
BRANCH   3   2
ATOM      1  C   UNL     1       3.107   0.428  22.502  0.00  0.00    +0.252 C 
ATOM      2  O   UNL     1       2.426   0.082  22.195  0.00  0.00    -0.471 OA
ENDBRANCH   3   2
ENDBRANCH   9   6
ENDBRANCH  12  11
BRANCH  19  20
ATOM     20  C   UNL     1      -4.898   1.148  24.836  0.00  0.00    +0.081 C 
ATOM     21  C   UNL     1      -5.511   0.991  24.308  0.00  0.00    +0.010 C 
BRANCH  20  22
ATOM     22  C   UNL     1      -4.900   1.847  25.274  0.00  0.00    +0.241 C 
ATOM     23  O   UNL     1      -5.455   1.955  25.876  0.00  0.00    -0.273 OA
ATOM     24  N   UNL     1      -4.347   2.438  25.113  0.00  0.00    -0.201 NA
BRANCH  24  25
ATOM     25  C   UNL     1      -4.349   3.136  25.550  0.00  0.00    +0.142 C 
BRANCH  25  26
ATOM     26  C   UNL     1      -3.694   3.638  25.531  0.00  0.00    +0.003 A 
ATOM     27  C   UNL     1      -3.013   3.445  25.954  0.00  0.00    +0.037 A 
ATOM     28  C   UNL     1      -2.359   3.947  25.934  0.00  0.00    +0.172 A 
ATOM     31  C   UNL     1      -2.386   4.643  25.491  0.00  0.00    +0.172 A 
ATOM     34  C   UNL     1      -3.068   4.836  25.068  0.00  0.00    +0.040 A 
ATOM     35  C   UNL     1      -3.721   4.333  25.088  0.00  0.00    +0.001 A 
BRANCH  28  29
ATOM     29  O   UNL     1      -1.678   3.754  26.357  0.00  0.00    -0.468 OA
ATOM     30  C   UNL     1      -1.298   3.034  26.224  0.00  0.00    +0.253 C 
ENDBRANCH  28  29
BRANCH  31  32
ATOM     32  O   UNL     1      -1.732   5.145  25.471  0.00  0.00    -0.468 OA
ATOM     33  C   UNL     1      -1.732   5.801  24.970  0.00  0.00    +0.253 C 
ENDBRANCH  31  32
ENDBRANCH  25  26
ENDBRANCH  24  25
ENDBRANCH  20  22
ENDBRANCH  19  20
TORSDOF 9
ENDMDL
MODEL 7
REMARK VINA RESULT:      -8.2      1.943      4.387
REMARK  Name = 
REMARK  9 active torsions:
REMARK  status: ('A' for Active; 'I' for Inactive)
REMARK    1  A    between atoms: O_2  and  C_3
REMARK    2  A    between atoms: C_6  and  C_9
REMARK    3  A    between atoms: N_11  and  C_12
REMARK    4  A    between atoms: C_19  and  C_20
REMARK    5  A    between atoms: C_20  and  C_22
REMARK    6  A    between atoms: N_24  and  C_25
REMARK    7  A    between atoms: C_25  and  C_26
REMARK    8  A    between atoms: C_28  and  O_29
REMARK    9  A    between atoms: C_31  and  O_32
REMARK                            x       y       z     vdW  Elec       q    Type
REMARK                         _______ _______ _______ _____ _____    ______ ____
ROOT
ATOM     12  C   UNL     1      -0.914  -0.315  24.511  0.00  0.00    +0.096 C 
ATOM     13  C   UNL     1      -0.387  -0.287  23.875  0.00  0.00    +0.022 C 
ATOM     14  C   UNL     1       0.081   0.382  23.757  0.00  0.00    +0.002 C 
ATOM     15  C   UNL     1       0.023   1.022  24.273  0.00  0.00    +0.002 C 
ATOM     16  C   UNL     1       0.549   1.050  23.640  0.00  0.00    +0.000 C 
ATOM     17  C   UNL     1       0.492   1.691  24.156  0.00  0.00    +0.000 C 
ATOM     18  C   UNL     1       0.434   2.331  24.672  0.00  0.00    +0.003 C 
ATOM     19  C   UNL     1      -0.093   2.303  25.307  0.00  0.00    +0.039 C 
ATOM     36  C   UNL     1      -0.561   1.635  25.425  0.00  0.00    +0.152 C 
ATOM     37  O   UNL     1      -1.088   1.607  26.060  0.00  0.00    -0.223 OA
ATOM     38  C   UNL     1      -0.504   0.994  24.909  0.00  0.00    +0.032 C 
ATOM     39  C   UNL     1      -0.972   0.325  25.027  0.00  0.00    +0.022 C 
ATOM     40  C   UNL     1      -1.498   0.297  25.661  0.00  0.00    +0.002 C 
ENDROOT
BRANCH  12  11
ATOM      9  C   UNL     1      -2.029  -1.128  24.137  0.00  0.00    +0.265 C 
ATOM     10  O   UNL     1      -2.209  -0.601  23.527  0.00  0.00    -0.268 OA
ATOM     11  N   UNL     1      -1.382  -0.984  24.628  0.00  0.00    -0.203 NA
BRANCH   9   6
ATOM      3  C   UNL     1      -3.433  -3.135  24.491  0.00  0.00    +0.139 A 
ATOM      4  C   UNL     1      -2.611  -3.203  24.477  0.00  0.00    +0.037 A 
ATOM      5  C   UNL     1      -2.143  -2.534  24.359  0.00  0.00    +0.008 A 
ATOM      6  C   UNL     1      -2.497  -1.796  24.255  0.00  0.00    +0.055 A 
ATOM      7  C   UNL     1      -3.319  -1.728  24.269  0.00  0.00    +0.008 A 
ATOM      8  C   UNL     1      -3.787  -2.396  24.386  0.00  0.00    +0.037 A 
BRANCH   3   2
ATOM      1  C   UNL     1      -4.418  -4.054  24.018  0.00  0.00    +0.252 C 
ATOM      2  O   UNL     1      -3.901  -3.803  24.609  0.00  0.00    -0.471 OA
ENDBRANCH   3   2
ENDBRANCH   9   6
ENDBRANCH  12  11
BRANCH  19  20
ATOM     20  C   UNL     1      -0.151   2.945  25.824  0.00  0.00    +0.081 C 
ATOM     21  C   UNL     1       0.282   2.948  26.526  0.00  0.00    +0.010 C 
BRANCH  20  22
ATOM     22  C   UNL     1      -0.640   3.582  25.638  0.00  0.00    +0.241 C 
ATOM     23  O   UNL     1      -0.319   4.264  25.301  0.00  0.00    -0.273 OA
ATOM     24  N   UNL     1      -1.450   3.538  25.789  0.00  0.00    -0.201 NA
BRANCH  24  25
ATOM     25  C   UNL     1      -1.939   4.175  25.603  0.00  0.00    +0.142 C 
BRANCH  25  26
ATOM     26  C   UNL     1      -2.748   4.056  25.488  0.00  0.00    +0.003 A 
ATOM     27  C   UNL     1      -3.031   3.842  24.744  0.00  0.00    +0.037 A 
ATOM     28  C   UNL     1      -3.840   3.723  24.628  0.00  0.00    +0.172 A 
ATOM     31  C   UNL     1      -4.364   3.817  25.258  0.00  0.00    +0.172 A 
ATOM     34  C   UNL     1      -4.080   4.031  26.003  0.00  0.00    +0.040 A 
ATOM     35  C   UNL     1      -3.272   4.150  26.117  0.00  0.00    +0.001 A 
BRANCH  28  29
ATOM     29  O   UNL     1      -4.123   3.509  23.884  0.00  0.00    -0.468 OA
ATOM     30  C   UNL     1      -3.663   3.040  23.385  0.00  0.00    +0.253 C 
ENDBRANCH  28  29
BRANCH  31  32
ATOM     32  O   UNL     1      -5.172   3.698  25.144  0.00  0.00    -0.468 OA
ATOM     33  C   UNL     1      -5.652   3.484  25.781  0.00  0.00    +0.253 C 
ENDBRANCH  31  32
ENDBRANCH  25  26
ENDBRANCH  24  25
ENDBRANCH  20  22
ENDBRANCH  19  20
TORSDOF 9
ENDMDL
MODEL 8
REMARK VINA RESULT:      -7.8      1.763      2.527
REMARK  Name = 
REMARK  9 active torsions:
REMARK  status: ('A' for Active; 'I' for Inactive)
REMARK    1  A    between atoms: O_2  and  C_3
REMARK    2  A    between atoms: C_6  and  C_9
REMARK    3  A    between atoms: N_11  and  C_12
REMARK    4  A    between atoms: C_19  and  C_20
REMARK    5  A    between atoms: C_20  and  C_22
REMARK    6  A    between atoms: N_24  and  C_25
REMARK    7  A    between atoms: C_25  and  C_26
REMARK    8  A    between atoms: C_28  and  O_29
REMARK    9  A    between atoms: C_31  and  O_32
REMARK                            x       y       z     vdW  Elec       q    Type
REMARK                         _______ _______ _______ _____ _____    ______ ____
ROOT
ATOM     12  C   UNL     1       0.952   0.476  23.671  0.00  0.00    +0.096 C 
ATOM     13  C   UNL     1       0.568  -0.250  23.581  0.00  0.00    +0.022 C 
ATOM     14  C   UNL     1      -0.255  -0.288  23.620  0.00  0.00    +0.002 C 
ATOM     15  C   UNL     1      -0.694   0.398  23.748  0.00  0.00    +0.002 C 
ATOM     16  C   UNL     1      -1.077  -0.326  23.658  0.00  0.00    +0.000 C 
ATOM     17  C   UNL     1      -1.518   0.360  23.786  0.00  0.00    +0.000 C 
ATOM     18  C   UNL     1      -1.957   1.046  23.914  0.00  0.00    +0.003 C 
ATOM     19  C   UNL     1      -1.573   1.771  24.004  0.00  0.00    +0.039 C 
ATOM     36  C   UNL     1      -0.750   1.810  23.965  0.00  0.00    +0.152 C 
ATOM     37  O   UNL     1      -0.367   2.534  24.055  0.00  0.00    -0.223 OA
ATOM     38  C   UNL     1      -0.310   1.123  23.837  0.00  0.00    +0.032 C 
ATOM     39  C   UNL     1       0.513   1.162  23.799  0.00  0.00    +0.022 C 
ATOM     40  C   UNL     1       0.896   1.887  23.888  0.00  0.00    +0.002 C 
ENDROOT
BRANCH  12  11
ATOM      9  C   UNL     1       2.178   0.141  23.016  0.00  0.00    +0.265 C 
ATOM     10  O   UNL     1       1.757  -0.270  22.437  0.00  0.00    -0.268 OA
ATOM     11  N   UNL     1       1.775   0.514  23.633  0.00  0.00    -0.203 NA
BRANCH   9   6
ATOM      3  C   UNL     1       4.648   0.255  22.902  0.00  0.00    +0.139 A 
ATOM      4  C   UNL     1       4.194   0.909  22.683  0.00  0.00    +0.037 A 
ATOM      5  C   UNL     1       3.370   0.870  22.721  0.00  0.00    +0.008 A 
ATOM      6  C   UNL     1       3.001   0.179  22.978  0.00  0.00    +0.055 A 
ATOM      7  C   UNL     1       3.455  -0.474  23.198  0.00  0.00    +0.008 A 
ATOM      8  C   UNL     1       4.278  -0.437  23.160  0.00  0.00    +0.037 A 
BRANCH   3   2
ATOM      1  C   UNL     1       5.920   0.205  23.550  0.00  0.00    +0.252 C 
ATOM      2  O   UNL     1       5.471   0.293  22.865  0.00  0.00    -0.471 OA
ENDBRANCH   3   2
ENDBRANCH   9   6
ENDBRANCH  12  11
BRANCH  19  20
ATOM     20  C   UNL     1      -2.013   2.457  24.132  0.00  0.00    +0.081 C 
ATOM     21  C   UNL     1      -1.662   3.111  24.492  0.00  0.00    +0.010 C 
BRANCH  20  22
ATOM     22  C   UNL     1      -2.803   2.490  23.900  0.00  0.00    +0.241 C 
ATOM     23  O   UNL     1      -2.996   2.577  23.101  0.00  0.00    -0.273 OA
ATOM     24  N   UNL     1      -3.403   2.437  24.464  0.00  0.00    -0.201 NA
BRANCH  24  25
ATOM     25  C   UNL     1      -4.193   2.469  24.232  0.00  0.00    +0.142 C 
BRANCH  25  26
ATOM     26  C   UNL     1      -4.792   2.430  24.799  0.00  0.00    +0.003 A 
ATOM     27  C   UNL     1      -5.110   3.123  25.113  0.00  0.00    +0.037 A 
ATOM     28  C   UNL     1      -5.709   3.083  25.679  0.00  0.00    +0.172 A 
ATOM     31  C   UNL     1      -5.990   2.349  25.931  0.00  0.00    +0.172 A 
ATOM     34  C   UNL     1      -5.672   1.655  25.616  0.00  0.00    +0.040 A 
ATOM     35  C   UNL     1      -5.073   1.696  25.051  0.00  0.00    +0.001 A 
BRANCH  28  29
ATOM     29  O   UNL     1      -6.026   3.776  25.993  0.00  0.00    -0.468 OA
ATOM     30  C   UNL     1      -5.882   4.500  25.626  0.00  0.00    +0.253 C 
ENDBRANCH  28  29
BRANCH  31  32
ATOM     32  O   UNL     1      -6.588   2.308  26.497  0.00  0.00    -0.468 OA
ATOM     33  C   UNL     1      -6.683   1.623  26.948  0.00  0.00    +0.253 C 
ENDBRANCH  31  32
ENDBRANCH  25  26
ENDBRANCH  24  25
ENDBRANCH  20  22
ENDBRANCH  19  20
TORSDOF 9
ENDMDL
MODEL 9
REMARK VINA RESULT:      -7.7      1.680      6.098
REMARK  Name = 
REMARK  9 active torsions:
REMARK  status: ('A' for Active; 'I' for Inactive)
REMARK    1  A    between atoms: O_2  and  C_3
REMARK    2  A    between atoms: C_6  and  C_9
REMARK    3  A    between atoms: N_11  and  C_12
REMARK    4  A    between atoms: C_19  and  C_20
REMARK    5  A    between atoms: C_20  and  C_22
REMARK    6  A    between atoms: N_24  and  C_25
REMARK    7  A    between atoms: C_25  and  C_26
REMARK    8  A    between atoms: C_28  and  O_29
REMARK    9  A    between atoms: C_31  and  O_32
REMARK                            x       y       z     vdW  Elec       q    Type
REMARK                         _______ _______ _______ _____ _____    ______ ____
ROOT
ATOM     12  C   UNL     1      -2.096   2.959  25.022  0.00  0.00    +0.096 C 
ATOM     13  C   UNL     1      -1.540   3.297  25.532  0.00  0.00    +0.022 C 
ATOM     14  C   UNL     1      -0.779   2.983  25.578  0.00  0.00    +0.002 C 
ATOM     15  C   UNL     1      -0.573   2.332  25.116  0.00  0.00    +0.002 C 
ATOM     16  C   UNL     1      -0.018   2.669  25.625  0.00  0.00    +0.000 C 
ATOM     17  C   UNL     1       0.189   2.017  25.163  0.00  0.00    +0.000 C 
ATOM     18  C   UNL     1       0.396   1.367  24.701  0.00  0.00    +0.003 C 
ATOM     19  C   UNL     1      -0.160   1.029  24.191  0.00  0.00    +0.039 C 
ATOM     36  C   UNL     1      -0.920   1.343  24.145  0.00  0.00    +0.152 C 
ATOM     37  O   UNL     1      -1.475   1.005  23.636  0.00  0.00    -0.223 OA
ATOM     38  C   UNL     1      -1.128   1.994  24.607  0.00  0.00    +0.032 C 
ATOM     39  C   UNL     1      -1.889   2.308  24.560  0.00  0.00    +0.022 C 
ATOM     40  C   UNL     1      -2.443   1.971  24.051  0.00  0.00    +0.002 C 
ENDROOT
BRANCH  12  11
ATOM      9  C   UNL     1      -3.325   3.325  25.653  0.00  0.00    +0.265 C 
ATOM     10  O   UNL     1      -3.032   3.061  26.379  0.00  0.00    -0.268 OA
ATOM     11  N   UNL     1      -2.857   3.273  24.976  0.00  0.00    -0.203 NA
BRANCH   9   6
ATOM      3  C   UNL     1      -5.609   4.268  25.513  0.00  0.00    +0.139 A 
ATOM      4  C   UNL     1      -5.501   3.478  25.724  0.00  0.00    +0.037 A 
ATOM      5  C   UNL     1      -4.739   3.164  25.771  0.00  0.00    +0.008 A 
ATOM      6  C   UNL     1      -4.086   3.639  25.606  0.00  0.00    +0.055 A 
ATOM      7  C   UNL     1      -4.193   4.429  25.395  0.00  0.00    +0.008 A 
ATOM      8  C   UNL     1      -4.954   4.745  25.348  0.00  0.00    +0.037 A 
BRANCH   3   2
ATOM      1  C   UNL     1      -6.476   5.400  25.436  0.00  0.00    +0.252 C 
ATOM      2  O   UNL     1      -6.369   4.584  25.466  0.00  0.00    -0.471 OA
ENDBRANCH   3   2
ENDBRANCH   9   6
ENDBRANCH  12  11
BRANCH  19  20
ATOM     20  C   UNL     1       0.048   0.377  23.729  0.00  0.00    +0.081 C 
ATOM     21  C   UNL     1       0.302   0.488  22.952  0.00  0.00    +0.010 C 
BRANCH  20  22
ATOM     22  C   UNL     1       0.001  -0.383  24.043  0.00  0.00    +0.241 C 
ATOM     23  O   UNL     1       0.691  -0.790  24.244  0.00  0.00    -0.273 OA
ATOM     24  N   UNL     1      -0.735  -0.739  24.157  0.00  0.00    -0.201 NA
BRANCH  24  25
ATOM     25  C   UNL     1      -0.782  -1.499  24.471  0.00  0.00    +0.142 C 
BRANCH  25  26
ATOM     26  C   UNL     1      -1.515  -1.872  24.545  0.00  0.00    +0.003 A 
ATOM     27  C   UNL     1      -2.054  -1.612  25.112  0.00  0.00    +0.037 A 
ATOM     28  C   UNL     1      -2.787  -1.984  25.186  0.00  0.00    +0.172 A 
ATOM     31  C   UNL     1      -2.980  -2.616  24.693  0.00  0.00    +0.172 A 
ATOM     34  C   UNL     1      -2.440  -2.877  24.125  0.00  0.00    +0.040 A 
ATOM     35  C   UNL     1      -1.707  -2.504  24.052  0.00  0.00    +0.001 A 
BRANCH  28  29
ATOM     29  O   UNL     1      -3.327  -1.724  25.753  0.00  0.00    -0.468 OA
ATOM     30  C   UNL     1      -3.275  -0.956  26.051  0.00  0.00    +0.253 C 
ENDBRANCH  28  29
BRANCH  31  32
ATOM     32  O   UNL     1      -3.712  -2.989  24.766  0.00  0.00    -0.468 OA
ATOM     33  C   UNL     1      -4.060  -3.346  24.108  0.00  0.00    +0.253 C 
ENDBRANCH  31  32
ENDBRANCH  25  26
ENDBRANCH  24  25
ENDBRANCH  20  22
ENDBRANCH  19  20
TORSDOF 9
ENDMDL
