MODEL 1
REMARK VINA RESULT:     -10.5      0.000      0.000
REMARK  Name = 
REMARK  4 active torsions:
REMARK  status: ('A' for Active; 'I' for Inactive)
REMARK    1  A    between atoms: O_2  and  C_3
REMARK    2  A    between atoms: C_6  and  O_7
REMARK    3  A    between atoms: O_7  and  C_8
REMARK    4  A    between atoms: C_15  and  C_17
REMARK                            x       y       z     vdW  Elec       q    Type
REMARK                         _______ _______ _______ _____ _____    ______ ____
ROOT
ATOM      8  C   UNL     1      -3.496   1.214  24.205  0.00  0.00    +0.215 C 
ATOM      9  C   UNL     1      -3.148   1.028  23.481  0.00  0.00    +0.187 C 
ATOM     10  O   UNL     1      -2.512   1.396  23.106  0.00  0.00    -0.348 OA
ATOM     11  C   UNL     1      -2.067   2.041  23.363  0.00  0.00    +0.164 C 
ATOM     12  C   UNL     1      -2.147   2.478  24.057  0.00  0.00    +0.126 C 
ATOM     13  N   UNL     1      -2.694   2.377  24.668  0.00  0.00    -0.268 N 
ATOM     14  C   UNL     1      -3.294   1.815  24.734  0.00  0.00    +0.140 C 
ATOM     15  C   UNL     1      -2.631   2.910  25.295  0.00  0.00    +0.270 C 
ATOM     16  O   UNL     1      -3.151   2.857  25.934  0.00  0.00    -0.268 OA
ENDROOT
BRANCH  15  17
ATOM     17  C   UNL     1      -2.050   3.494  25.284  0.00  0.00    +0.176 A 
ATOM     18  N   UNL     1      -1.251   3.386  25.458  0.00  0.00    -0.073 NA
ATOM     19  O   UNL     1      -0.872   4.115  25.378  0.00  0.00    -0.358 OA
ATOM     20  C   UNL     1      -1.437   4.673  25.155  0.00  0.00    +0.155 A 
ATOM     21  C   UNL     1      -1.298   5.475  25.015  0.00  0.00    +0.075 C 
ATOM     22  C   UNL     1      -2.165   4.289  25.097  0.00  0.00    +0.063 A 
ENDBRANCH  15  17
BRANCH   8   7
ATOM      7  O   UNL     1      -4.130   0.737  24.431  0.00  0.00    -0.475 OA
BRANCH   7   6
ATOM      3  C   UNL     1      -3.754  -1.649  24.966  0.00  0.00    +0.139 A 
ATOM      4  C   UNL     1      -4.014  -1.432  24.214  0.00  0.00    +0.040 A 
ATOM      5  C   UNL     1      -4.140  -0.636  24.036  0.00  0.00    +0.040 A 
ATOM      6  C   UNL     1      -4.004  -0.058  24.610  0.00  0.00    +0.139 A 
ATOM     23  C   UNL     1      -3.744  -0.277  25.361  0.00  0.00    +0.040 A 
ATOM     24  C   UNL     1      -3.619  -1.072  25.540  0.00  0.00    +0.040 A 
BRANCH   3   2
ATOM      1  C   UNL     1      -3.270  -2.941  24.589  0.00  0.00    +0.252 C 
ATOM      2  O   UNL     1      -3.629  -2.446  25.144  0.00  0.00    -0.471 OA
ENDBRANCH   3   2
ENDBRANCH   7   6
ENDBRANCH   8   7
TORSDOF 4
ENDMDL
MODEL 2
REMARK VINA RESULT:     -10.0      1.223      4.939
REMARK  Name = 
REMARK  4 active torsions:
REMARK  status: ('A' for Active; 'I' for Inactive)
REMARK    1  A    between atoms: O_2  and  C_3
REMARK    2  A    between atoms: C_6  and  O_7
REMARK    3  A    between atoms: O_7  and  C_8
REMARK    4  A    between atoms: C_15  and  C_17
REMARK                            x       y       z     vdW  Elec       q    Type
REMARK                         _______ _______ _______ _____ _____    ______ ____
ROOT
ATOM      8  C   UNL     1      -3.691   1.989  24.478  0.00  0.00    +0.215 C 
ATOM      9  C   UNL     1      -3.325   2.145  23.755  0.00  0.00    +0.187 C 
ATOM     10  O   UNL     1      -3.089   1.609  23.173  0.00  0.00    -0.348 OA
ATOM     11  C   UNL     1      -3.162   0.789  23.169  0.00  0.00    +0.164 C 
ATOM     12  C   UNL     1      -3.487   0.298  23.747  0.00  0.00    +0.126 C 
ATOM     13  N   UNL     1      -3.821   0.508  24.471  0.00  0.00    -0.268 N 
ATOM     14  C   UNL     1      -3.912   1.261  24.797  0.00  0.00    +0.140 C 
ATOM     15  C   UNL     1      -4.101  -0.117  24.931  0.00  0.00    +0.270 C 
ATOM     16  O   UNL     1      -4.446   0.034  25.666  0.00  0.00    -0.268 OA
ENDROOT
BRANCH  15  17
ATOM     17  C   UNL     1      -4.038  -0.891  24.657  0.00  0.00    +0.176 A 
ATOM     18  N   UNL     1      -4.484  -1.230  24.051  0.00  0.00    -0.073 NA
ATOM     19  O   UNL     1      -4.238  -2.012  23.960  0.00  0.00    -0.358 OA
ATOM     20  C   UNL     1      -3.640  -2.157  24.509  0.00  0.00    +0.155 A 
ATOM     21  C   UNL     1      -3.236  -2.871  24.609  0.00  0.00    +0.075 C 
ATOM     22  C   UNL     1      -3.516  -1.465  24.940  0.00  0.00    +0.063 A 
ENDBRANCH  15  17
BRANCH   8   7
ATOM      7  O   UNL     1      -3.858   2.649  24.943  0.00  0.00    -0.475 OA
BRANCH   7   6
ATOM      3  C   UNL     1      -2.118   4.365  25.329  0.00  0.00    +0.139 A 
ATOM      4  C   UNL     1      -2.720   4.506  24.784  0.00  0.00    +0.040 A 
ATOM      5  C   UNL     1      -3.301   3.934  24.655  0.00  0.00    +0.040 A 
ATOM      6  C   UNL     1      -3.278   3.221  25.072  0.00  0.00    +0.139 A 
ATOM     23  C   UNL     1      -2.674   3.082  25.617  0.00  0.00    +0.040 A 
ATOM     24  C   UNL     1      -2.094   3.654  25.746  0.00  0.00    +0.040 A 
BRANCH   3   2
ATOM      1  C   UNL     1      -0.863   4.957  24.981  0.00  0.00    +0.252 C 
ATOM      2  O   UNL     1      -1.537   4.938  25.457  0.00  0.00    -0.471 OA
ENDBRANCH   3   2
ENDBRANCH   7   6
ENDBRANCH   8   7
TORSDOF 4
ENDMDL
MODEL 3
REMARK VINA RESULT:      -9.7      1.570      5.107
REMARK  Name = 
REMARK  4 active torsions:
REMARK  status: ('A' for Active; 'I' for Inactive)
REMARK    1  A    between atoms: O_2  and  C_3
REMARK    2  A    between atoms: C_6  and  O_7
REMARK    3  A    between atoms: O_7  and  C_8
REMARK    4  A    between atoms: C_15  and  C_17
REMARK                            x       y       z     vdW  Elec       q    Type
REMARK                         _______ _______ _______ _____ _____    ______ ____
ROOT
ATOM      8  C   UNL     1      -1.461   1.248  24.231  0.00  0.00    +0.215 C 
ATOM      9  C   UNL     1      -0.752   1.082  24.619  0.00  0.00    +0.187 C 
ATOM     10  O   UNL     1      -0.555   0.417  25.067  0.00  0.00    -0.348 OA
ATOM     11  C   UNL     1      -1.018  -0.243  25.238  0.00  0.00    +0.164 C 
ATOM     12  C   UNL     1      -1.792  -0.404  25.004  0.00  0.00    +0.126 C 
ATOM     13  N   UNL     1      -2.295   0.057  24.540  0.00  0.00    -0.268 N 
ATOM     14  C   UNL     1      -2.148   0.793  24.195  0.00  0.00    +0.140 C 
ATOM     15  C   UNL     1      -3.044  -0.259  24.401  0.00  0.00    +0.270 C 
ATOM     16  O   UNL     1      -3.590   0.158  23.943  0.00  0.00    -0.268 OA
ENDROOT
BRANCH  15  17
ATOM     17  C   UNL     1      -3.248  -0.991  24.720  0.00  0.00    +0.176 A 
ATOM     18  N   UNL     1      -3.484  -1.133  25.497  0.00  0.00    -0.073 NA
ATOM     19  O   UNL     1      -3.634  -1.941  25.576  0.00  0.00    -0.358 OA
ATOM     20  C   UNL     1      -3.489  -2.299  24.846  0.00  0.00    +0.155 A 
ATOM     21  C   UNL     1      -3.570  -3.103  24.676  0.00  0.00    +0.075 C 
ATOM     22  C   UNL     1      -3.251  -1.712  24.317  0.00  0.00    +0.063 A 
ENDBRANCH  15  17
BRANCH   8   7
ATOM      7  O   UNL     1      -1.486   1.966  23.825  0.00  0.00    -0.475 OA
BRANCH   7   6
ATOM      3  C   UNL     1      -1.509   4.099  25.079  0.00  0.00    +0.139 A 
ATOM      4  C   UNL     1      -0.795   3.789  24.807  0.00  0.00    +0.040 A 
ATOM      5  C   UNL     1      -0.787   3.077  24.389  0.00  0.00    +0.040 A 
ATOM      6  C   UNL     1      -1.494   2.677  24.243  0.00  0.00    +0.139 A 
ATOM     23  C   UNL     1      -2.208   2.987  24.515  0.00  0.00    +0.040 A 
ATOM     24  C   UNL     1      -2.216   3.699  24.933  0.00  0.00    +0.040 A 
BRANCH   3   2
ATOM      1  C   UNL     1      -1.489   5.528  25.091  0.00  0.00    +0.252 C 
ATOM      2  O   UNL     1      -1.517   4.810  25.498  0.00  0.00    -0.471 OA
ENDBRANCH   3   2
ENDBRANCH   7   6
ENDBRANCH   8   7
TORSDOF 4
ENDMDL
MODEL 4
REMARK VINA RESULT:      -9.6      1.536      1.730
REMARK  Name = 
REMARK  4 active torsions:
REMARK  status: ('A' for Active; 'I' for Inactive)
REMARK    1  A    between atoms: O_2  and  C_3
REMARK    2  A    between atoms: C_6  and  O_7
REMARK    3  A    between atoms: O_7  and  C_8
REMARK    4  A    between atoms: C_15  and  C_17
REMARK                            x       y       z     vdW  Elec       q    Type
REMARK                         _______ _______ _______ _____ _____    ______ ____
ROOT
ATOM      8  C   UNL     1      -1.088   0.435  24.943  0.00  0.00    +0.215 C 
ATOM      9  C   UNL     1      -1.152   0.328  24.127  0.00  0.00    +0.187 C 
ATOM     10  O   UNL     1      -1.173   0.901  23.534  0.00  0.00    -0.348 OA
ATOM     11  C   UNL     1      -1.135   1.721  23.609  0.00  0.00    +0.164 C 
ATOM     12  C   UNL     1      -1.067   2.173  24.295  0.00  0.00    +0.126 C 
ATOM     13  N   UNL     1      -1.020   1.914  25.078  0.00  0.00    -0.268 N 
ATOM     14  C   UNL     1      -1.029   1.141  25.366  0.00  0.00    +0.140 C 
ATOM     15  C   UNL     1      -0.955   2.508  25.647  0.00  0.00    +0.270 C 
ATOM     16  O   UNL     1      -0.904   2.309  26.447  0.00  0.00    -0.268 OA
ENDROOT
BRANCH  15  17
ATOM     17  C   UNL     1      -0.941   3.300  25.417  0.00  0.00    +0.176 A 
ATOM     18  N   UNL     1      -0.305   3.692  25.067  0.00  0.00    -0.073 NA
ATOM     19  O   UNL     1      -0.531   4.474  24.931  0.00  0.00    -0.358 OA
ATOM     20  C   UNL     1      -1.307   4.565  25.197  0.00  0.00    +0.155 A 
ATOM     21  C   UNL     1      -1.751   5.260  25.168  0.00  0.00    +0.075 C 
ATOM     22  C   UNL     1      -1.560   3.839  25.498  0.00  0.00    +0.063 A 
ENDBRANCH  15  17
BRANCH   8   7
ATOM      7  O   UNL     1      -1.082  -0.254  25.395  0.00  0.00    -0.475 OA
BRANCH   7   6
ATOM      3  C   UNL     1      -2.892  -1.921  25.135  0.00  0.00    +0.139 A 
ATOM      4  C   UNL     1      -2.166  -2.041  24.763  0.00  0.00    +0.040 A 
ATOM      5  C   UNL     1      -1.562  -1.485  24.849  0.00  0.00    +0.040 A 
ATOM      6  C   UNL     1      -1.686  -0.810  25.309  0.00  0.00    +0.139 A 
ATOM     23  C   UNL     1      -2.412  -0.691  25.680  0.00  0.00    +0.040 A 
ATOM     24  C   UNL     1      -3.016  -1.247  25.594  0.00  0.00    +0.040 A 
BRANCH   3   2
ATOM      1  C   UNL     1      -3.875  -2.564  24.320  0.00  0.00    +0.252 C 
ATOM      2  O   UNL     1      -3.496  -2.477  25.048  0.00  0.00    -0.471 OA
ENDBRANCH   3   2
ENDBRANCH   7   6
ENDBRANCH   8   7
TORSDOF 4
ENDMDL
MODEL 5
REMARK VINA RESULT:      -9.4      2.224      4.348
REMARK  Name = 
REMARK  4 active torsions:
REMARK  status: ('A' for Active; 'I' for Inactive)
REMARK    1  A    between atoms: O_2  and  C_3
REMARK    2  A    between atoms: C_6  and  O_7
REMARK    3  A    between atoms: O_7  and  C_8
REMARK    4  A    between atoms: C_15  and  C_17
REMARK                            x       y       z     vdW  Elec       q    Type
REMARK                         _______ _______ _______ _____ _____    ______ ____
ROOT
ATOM      8  C   UNL     1      -1.624   2.941  24.923  0.00  0.00    +0.215 C 
ATOM      9  C   UNL     1      -1.190   3.178  25.584  0.00  0.00    +0.187 C 
ATOM     10  O   UNL     1      -0.643   2.743  26.022  0.00  0.00    -0.348 OA
ATOM     11  C   UNL     1      -0.395   1.965  25.910  0.00  0.00    +0.164 C 
ATOM     12  C   UNL     1      -0.632   1.428  25.331  0.00  0.00    +0.126 C 
ATOM     13  N   UNL     1      -1.177   1.537  24.720  0.00  0.00    -0.268 N 
ATOM     14  C   UNL     1      -1.619   2.211  24.539  0.00  0.00    +0.140 C 
ATOM     15  C   UNL     1      -1.296   0.887  24.226  0.00  0.00    +0.270 C 
ATOM     16  O   UNL     1      -1.829   0.939  23.599  0.00  0.00    -0.268 OA
ENDROOT
BRANCH  15  17
ATOM     17  C   UNL     1      -0.882   0.187  24.359  0.00  0.00    +0.176 A 
ATOM     18  N   UNL     1      -0.128   0.009  24.078  0.00  0.00    -0.073 NA
ATOM     19  O   UNL     1       0.071  -0.748  24.342  0.00  0.00    -0.358 OA
ATOM     20  C   UNL     1      -0.561  -1.036  24.787  0.00  0.00    +0.155 A 
ATOM     21  C   UNL     1      -0.597  -1.774  25.157  0.00  0.00    +0.075 C 
ATOM     22  C   UNL     1      -1.150  -0.459  24.798  0.00  0.00    +0.063 A 
ENDBRANCH  15  17
BRANCH   8   7
ATOM      7  O   UNL     1      -2.131   3.508  24.605  0.00  0.00    -0.475 OA
BRANCH   7   6
ATOM      3  C   UNL     1      -4.484   3.630  25.360  0.00  0.00    +0.139 A 
ATOM      4  C   UNL     1      -4.307   3.343  24.608  0.00  0.00    +0.040 A 
ATOM      5  C   UNL     1      -3.523   3.302  24.356  0.00  0.00    +0.040 A 
ATOM      6  C   UNL     1      -2.915   3.549  24.857  0.00  0.00    +0.139 A 
ATOM     23  C   UNL     1      -3.093   3.837  25.609  0.00  0.00    +0.040 A 
ATOM     24  C   UNL     1      -3.877   3.877  25.861  0.00  0.00    +0.040 A 
BRANCH   3   2
ATOM      1  C   UNL     1      -5.707   2.978  25.712  0.00  0.00    +0.252 C 
ATOM      2  O   UNL     1      -5.269   3.671  25.612  0.00  0.00    -0.471 OA
ENDBRANCH   3   2
ENDBRANCH   7   6
ENDBRANCH   8   7
TORSDOF 4
ENDMDL
