MODEL 1
REMARK VINA RESULT:     -11.3      0.000      0.000
REMARK  Name = 
REMARK  8 active torsions:
REMARK  status: ('A' for Active; 'I' for Inactive)
REMARK    1  A    between atoms: O_2  and  C_3
REMARK    2  A    between atoms: C_3  and  C_4
REMARK    3  A    between atoms: C_4  and  O_5
REMARK    4  A    between atoms: O_5  and  C_6
REMARK    5  A    between atoms: C_7  and  C_12
REMARK    6  A    between atoms: C_15  and  C_17
REMARK    7  A    between atoms: N_21  and  C_22
REMARK    8  A    between atoms: C_22  and  C_23
REMARK                            x       y       z     vdW  Elec       q    Type
REMARK                         _______ _______ _______ _____ _____    ______ ____
ROOT
ATOM     12  C   UNL     1      -2.758   2.984  24.502  0.00  0.00    +0.208 A 
ATOM     13  N   UNL     1      -3.077   2.926  23.743  0.00  0.00    -0.056 NA
ATOM     14  O   UNL     1      -3.743   2.440  23.784  0.00  0.00    -0.336 OA
ATOM     15  C   UNL     1      -3.835   2.198  24.567  0.00  0.00    +0.251 A 
ATOM     16  N   UNL     1      -3.226   2.534  25.011  0.00  0.00    -0.189 NA
ENDROOT
BRANCH  12   7
ATOM      6  C   UNL     1      -1.339   3.074  24.649  0.00  0.00    +0.228 A 
ATOM      7  C   UNL     1      -2.088   3.416  24.714  0.00  0.00    +0.092 A 
ATOM      8  C   UNL     1      -2.166   4.188  24.991  0.00  0.00    +0.009 A 
ATOM      9  C   UNL     1      -1.496   4.620  25.203  0.00  0.00    +0.021 A 
ATOM     10  C   UNL     1      -0.747   4.280  25.138  0.00  0.00    +0.102 A 
ATOM     11  N   UNL     1      -0.669   3.506  24.861  0.00  0.00    -0.210 NA
BRANCH   6   5
ATOM      5  O   UNL     1      -1.261   2.302  24.372  0.00  0.00    -0.457 OA
BRANCH   5   4
ATOM      4  C   UNL     1      -0.539   1.909  24.442  0.00  0.00    +0.239 C 
BRANCH   4   3
ATOM      3  C   UNL     1      -0.407   1.209  24.027  0.00  0.00    +0.189 C 
BRANCH   3   2
ATOM      1  C   UNL     1      -0.106  -0.188  24.019  0.00  0.00    +0.174 C 
ATOM      2  O   UNL     1      -0.253   0.509  24.435  0.00  0.00    -0.347 OA
ENDBRANCH   3   2
ENDBRANCH   4   3
ENDBRANCH   5   4
ENDBRANCH   6   5
ENDBRANCH  12   7
BRANCH  15  17
ATOM     17  C   UNL     1      -4.431   1.706  24.856  0.00  0.00    +0.138 C 
ATOM     18  C   UNL     1      -5.103   1.949  25.269  0.00  0.00    +0.027 C 
ATOM     19  C   UNL     1      -5.547   1.278  25.451  0.00  0.00    +0.019 C 
ATOM     20  C   UNL     1      -5.149   0.620  25.151  0.00  0.00    +0.073 C 
ATOM     21  N   UNL     1      -4.459   0.885  24.784  0.00  0.00    -0.263 NA
BRANCH  21  22
ATOM     22  C   UNL     1      -3.898   0.411  24.409  0.00  0.00    +0.102 C 
BRANCH  22  23
ATOM     23  C   UNL     1      -3.809  -0.378  24.632  0.00  0.00    +0.021 A 
ATOM     24  C   UNL     1      -3.608  -0.567  25.410  0.00  0.00    -0.001 A 
ATOM     25  C   UNL     1      -3.519  -1.356  25.634  0.00  0.00    -0.000 A 
ATOM     26  C   UNL     1      -3.630  -1.956  25.079  0.00  0.00    +0.002 A 
ATOM     27  C   UNL     1      -3.831  -1.768  24.302  0.00  0.00    +0.029 A 
ATOM     28  C   UNL     1      -3.920  -0.979  24.078  0.00  0.00    +0.137 A 
ATOM     29  F   UNL     1      -4.120  -0.791  23.300  0.00  0.00    -0.204 F 
ENDBRANCH  22  23
ENDBRANCH  21  22
ENDBRANCH  15  17
TORSDOF 8
ENDMDL
MODEL 2
REMARK VINA RESULT:     -11.0      1.387      2.889
REMARK  Name = 
REMARK  8 active torsions:
REMARK  status: ('A' for Active; 'I' for Inactive)
REMARK    1  A    between atoms: O_2  and  C_3
REMARK    2  A    between atoms: C_3  and  C_4
REMARK    3  A    between atoms: C_4  and  O_5
REMARK    4  A    between atoms: O_5  and  C_6
REMARK    5  A    between atoms: C_7  and  C_12
REMARK    6  A    between atoms: C_15  and  C_17
REMARK    7  A    between atoms: N_21  and  C_22
REMARK    8  A    between atoms: C_22  and  C_23
REMARK                            x       y       z     vdW  Elec       q    Type
REMARK                         _______ _______ _______ _____ _____    ______ ____
ROOT
ATOM     12  C   UNL     1      -3.717   2.053  24.550  0.00  0.00    +0.208 A 
ATOM     13  N   UNL     1      -3.565   2.003  23.740  0.00  0.00    -0.056 NA
ATOM     14  O   UNL     1      -3.042   1.377  23.616  0.00  0.00    -0.336 OA
ATOM     15  C   UNL     1      -2.870   1.040  24.348  0.00  0.00    +0.251 A 
ATOM     16  N   UNL     1      -3.287   1.457  24.926  0.00  0.00    -0.189 NA
ENDROOT
BRANCH  12   7
ATOM      6  C   UNL     1      -3.899   3.309  25.205  0.00  0.00    +0.228 A 
ATOM      7  C   UNL     1      -4.211   2.601  24.918  0.00  0.00    +0.092 A 
ATOM      8  C   UNL     1      -5.015   2.441  24.999  0.00  0.00    +0.009 A 
ATOM      9  C   UNL     1      -5.510   2.990  25.367  0.00  0.00    +0.021 A 
ATOM     10  C   UNL     1      -5.199   3.698  25.655  0.00  0.00    +0.102 A 
ATOM     11  N   UNL     1      -4.393   3.857  25.574  0.00  0.00    -0.210 NA
BRANCH   6   5
ATOM      5  O   UNL     1      -3.094   3.468  25.125  0.00  0.00    -0.457 OA
BRANCH   5   4
ATOM      4  C   UNL     1      -2.789   4.193  25.375  0.00  0.00    +0.239 C 
BRANCH   4   3
ATOM      3  C   UNL     1      -1.976   4.325  25.363  0.00  0.00    +0.189 C 
BRANCH   3   2
ATOM      1  C   UNL     1      -0.933   5.217  24.962  0.00  0.00    +0.174 C 
ATOM      2  O   UNL     1      -1.683   5.093  25.281  0.00  0.00    -0.347 OA
ENDBRANCH   3   2
ENDBRANCH   4   3
ENDBRANCH   5   4
ENDBRANCH   6   5
ENDBRANCH  12   7
BRANCH  15  17
ATOM     17  C   UNL     1      -2.369   0.398  24.481  0.00  0.00    +0.138 C 
ATOM     18  C   UNL     1      -1.550   0.434  24.578  0.00  0.00    +0.027 C 
ATOM     19  C   UNL     1      -1.274  -0.335  24.698  0.00  0.00    +0.019 C 
ATOM     20  C   UNL     1      -1.922  -0.845  24.675  0.00  0.00    +0.073 C 
ATOM     21  N   UNL     1      -2.599  -0.392  24.541  0.00  0.00    -0.263 NA
BRANCH  21  22
ATOM     22  C   UNL     1      -3.369  -0.679  24.478  0.00  0.00    +0.102 C 
BRANCH  22  23
ATOM     23  C   UNL     1      -3.509  -1.492  24.490  0.00  0.00    +0.021 A 
ATOM     24  C   UNL     1      -3.208  -1.954  25.104  0.00  0.00    -0.001 A 
ATOM     25  C   UNL     1      -3.348  -2.767  25.115  0.00  0.00    -0.000 A 
ATOM     26  C   UNL     1      -3.788  -3.118  24.512  0.00  0.00    +0.002 A 
ATOM     27  C   UNL     1      -4.089  -2.657  23.898  0.00  0.00    +0.029 A 
ATOM     28  C   UNL     1      -3.949  -1.843  23.887  0.00  0.00    +0.137 A 
ATOM     29  F   UNL     1      -4.249  -1.382  23.272  0.00  0.00    -0.204 F 
ENDBRANCH  22  23
ENDBRANCH  21  22
ENDBRANCH  15  17
TORSDOF 8
ENDMDL
MODEL 3
REMARK VINA RESULT:     -10.8      1.215      2.888
REMARK  Name = 
REMARK  8 active torsions:
REMARK  status: ('A' for Active; 'I' for Inactive)
REMARK    1  A    between atoms: O_2  and  C_3
REMARK    2  A    between atoms: C_3  and  C_4
REMARK    3  A    between atoms: C_4  and  O_5
REMARK    4  A    between atoms: O_5  and  C_6
REMARK    5  A    between atoms: C_7  and  C_12
REMARK    6  A    between atoms: C_15  and  C_17
REMARK    7  A    between atoms: N_21  and  C_22
REMARK    8  A    between atoms: C_22  and  C_23
REMARK                            x       y       z     vdW  Elec       q    Type
REMARK                         _______ _______ _______ _____ _____    ______ ____
ROOT
ATOM     12  C   UNL     1      -1.762   2.197  24.552  0.00  0.00    +0.208 A 
ATOM     13  N   UNL     1      -1.785   2.024  23.745  0.00  0.00    -0.056 NA
ATOM     14  O   UNL     1      -1.616   1.221  23.652  0.00  0.00    -0.336 OA
ATOM     15  C   UNL     1      -1.489   0.899  24.400  0.00  0.00    +0.251 A 
ATOM     16  N   UNL     1      -1.579   1.502  24.956  0.00  0.00    -0.189 NA
ENDROOT
BRANCH  12   7
ATOM      6  C   UNL     1      -2.670   3.181  25.050  0.00  0.00    +0.228 A 
ATOM      7  C   UNL     1      -1.898   2.936  24.893  0.00  0.00    +0.092 A 
ATOM      8  C   UNL     1      -1.263   3.428  25.077  0.00  0.00    +0.009 A 
ATOM      9  C   UNL     1      -1.399   4.166  25.418  0.00  0.00    +0.021 A 
ATOM     10  C   UNL     1      -2.170   4.413  25.576  0.00  0.00    +0.102 A 
ATOM     11  N   UNL     1      -2.806   3.920  25.391  0.00  0.00    -0.210 NA
BRANCH   6   5
ATOM      5  O   UNL     1      -3.305   2.689  24.866  0.00  0.00    -0.457 OA
BRANCH   5   4
ATOM      4  C   UNL     1      -4.066   2.882  25.122  0.00  0.00    +0.239 C 
BRANCH   4   3
ATOM      3  C   UNL     1      -4.719   2.486  24.812  0.00  0.00    +0.189 C 
BRANCH   3   2
ATOM      1  C   UNL     1      -5.979   1.855  25.049  0.00  0.00    +0.174 C 
ATOM      2  O   UNL     1      -5.231   2.077  25.314  0.00  0.00    -0.347 OA
ENDBRANCH   3   2
ENDBRANCH   4   3
ENDBRANCH   5   4
ENDBRANCH   6   5
ENDBRANCH  12   7
BRANCH  15  17
ATOM     17  C   UNL     1      -1.304   0.112  24.564  0.00  0.00    +0.138 C 
ATOM     18  C   UNL     1      -0.547  -0.195  24.676  0.00  0.00    +0.027 C 
ATOM     19  C   UNL     1      -0.619  -1.004  24.826  0.00  0.00    +0.019 C 
ATOM     20  C   UNL     1      -1.420  -1.196  24.808  0.00  0.00    +0.073 C 
ATOM     21  N   UNL     1      -1.845  -0.506  24.646  0.00  0.00    -0.263 NA
BRANCH  21  22
ATOM     22  C   UNL     1      -2.664  -0.447  24.578  0.00  0.00    +0.102 C 
BRANCH  22  23
ATOM     23  C   UNL     1      -3.124  -1.128  24.516  0.00  0.00    +0.021 A 
ATOM     24  C   UNL     1      -2.969  -1.776  25.004  0.00  0.00    -0.001 A 
ATOM     25  C   UNL     1      -3.429  -2.458  24.942  0.00  0.00    -0.000 A 
ATOM     26  C   UNL     1      -4.044  -2.493  24.393  0.00  0.00    +0.002 A 
ATOM     27  C   UNL     1      -4.199  -1.845  23.905  0.00  0.00    +0.029 A 
ATOM     28  C   UNL     1      -3.739  -1.163  23.967  0.00  0.00    +0.137 A 
ATOM     29  F   UNL     1      -3.894  -0.516  23.480  0.00  0.00    -0.204 F 
ENDBRANCH  22  23
ENDBRANCH  21  22
ENDBRANCH  15  17
TORSDOF 8
ENDMDL
MODEL 4
REMARK VINA RESULT:     -10.6      1.498      4.128
REMARK  Name = 
REMARK  8 active torsions:
REMARK  status: ('A' for Active; 'I' for Inactive)
REMARK    1  A    between atoms: O_2  and  C_3
REMARK    2  A    between atoms: C_3  and  C_4
REMARK    3  A    between atoms: C_4  and  O_5
REMARK    4  A    between atoms: O_5  and  C_6
REMARK    5  A    between atoms: C_7  and  C_12
REMARK    6  A    between atoms: C_15  and  C_17
REMARK    7  A    between atoms: N_21  and  C_22
REMARK    8  A    between atoms: C_22  and  C_23
REMARK                            x       y       z     vdW  Elec       q    Type
REMARK                         _______ _______ _______ _____ _____    ______ ____
ROOT
ATOM     12  C   UNL     1      -3.647  -0.199  24.232  0.00  0.00    +0.208 A 
ATOM     13  N   UNL     1      -3.590   0.214  23.520  0.00  0.00    -0.056 NA
ATOM     14  O   UNL     1      -3.795   1.001  23.665  0.00  0.00    -0.336 OA
ATOM     15  C   UNL     1      -3.980   1.073  24.466  0.00  0.00    +0.251 A 
ATOM     16  N   UNL     1      -3.888   0.331  24.816  0.00  0.00    -0.189 NA
ENDROOT
BRANCH  12   7
ATOM      6  C   UNL     1      -2.717  -1.256  24.477  0.00  0.00    +0.228 A 
ATOM      7  C   UNL     1      -3.491  -1.002  24.340  0.00  0.00    +0.092 A 
ATOM      8  C   UNL     1      -4.106  -1.549  24.312  0.00  0.00    +0.009 A 
ATOM      9  C   UNL     1      -3.950  -2.352  24.420  0.00  0.00    +0.021 A 
ATOM     10  C   UNL     1      -3.178  -2.608  24.557  0.00  0.00    +0.102 A 
ATOM     11  N   UNL     1      -2.561  -2.059  24.585  0.00  0.00    -0.210 NA
BRANCH   6   5
ATOM      5  O   UNL     1      -2.102  -0.709  24.506  0.00  0.00    -0.457 OA
BRANCH   5   4
ATOM      4  C   UNL     1      -1.318  -0.968  24.511  0.00  0.00    +0.239 C 
BRANCH   4   3
ATOM      3  C   UNL     1      -0.703  -0.423  24.579  0.00  0.00    +0.189 C 
BRANCH   3   2
ATOM      1  C   UNL     1       0.220   0.319  23.780  0.00  0.00    +0.174 C 
ATOM      2  O   UNL     1      -0.105  -0.402  24.011  0.00  0.00    -0.347 OA
ENDBRANCH   3   2
ENDBRANCH   4   3
ENDBRANCH   5   4
ENDBRANCH   6   5
ENDBRANCH  12   7
BRANCH  15  17
ATOM     17  C   UNL     1      -4.215   1.764  24.849  0.00  0.00    +0.138 C 
ATOM     18  C   UNL     1      -4.980   1.941  25.103  0.00  0.00    +0.027 C 
ATOM     19  C   UNL     1      -4.964   2.687  25.457  0.00  0.00    +0.019 C 
ATOM     20  C   UNL     1      -4.190   2.970  25.422  0.00  0.00    +0.073 C 
ATOM     21  N   UNL     1      -3.727   2.399  25.046  0.00  0.00    -0.263 NA
BRANCH  21  22
ATOM     22  C   UNL     1      -2.918   2.455  24.894  0.00  0.00    +0.102 C 
BRANCH  22  23
ATOM     23  C   UNL     1      -2.512   3.150  25.071  0.00  0.00    +0.021 A 
ATOM     24  C   UNL     1      -2.793   3.875  24.792  0.00  0.00    -0.001 A 
ATOM     25  C   UNL     1      -2.387   4.570  24.969  0.00  0.00    -0.000 A 
ATOM     26  C   UNL     1      -1.700   4.543  25.424  0.00  0.00    +0.002 A 
ATOM     27  C   UNL     1      -1.418   3.819  25.703  0.00  0.00    +0.029 A 
ATOM     28  C   UNL     1      -1.825   3.123  25.526  0.00  0.00    +0.137 A 
ATOM     29  F   UNL     1      -1.543   2.399  25.805  0.00  0.00    -0.204 F 
ENDBRANCH  22  23
ENDBRANCH  21  22
ENDBRANCH  15  17
TORSDOF 8
ENDMDL
MODEL 5
REMARK VINA RESULT:     -10.4      1.700      5.023
REMARK  Name = 
REMARK  8 active torsions:
REMARK  status: ('A' for Active; 'I' for Inactive)
REMARK    1  A    between atoms: O_2  and  C_3
REMARK    2  A    between atoms: C_3  and  C_4
REMARK    3  A    between atoms: C_4  and  O_5
REMARK    4  A    between atoms: O_5  and  C_6
REMARK    5  A    between atoms: C_7  and  C_12
REMARK    6  A    between atoms: C_15  and  C_17
REMARK    7  A    between atoms: N_21  and  C_22
REMARK    8  A    between atoms: C_22  and  C_23
REMARK                            x       y       z     vdW  Elec       q    Type
REMARK                         _______ _______ _______ _____ _____    ______ ____
ROOT
ATOM     12  C   UNL     1      -2.109   0.149  24.799  0.00  0.00    +0.208 A 
ATOM     13  N   UNL     1      -1.853   0.481  24.088  0.00  0.00    -0.056 NA
ATOM     14  O   UNL     1      -1.344   1.105  24.266  0.00  0.00    -0.336 OA
ATOM     15  C   UNL     1      -1.284   1.159  25.088  0.00  0.00    +0.251 A 
ATOM     16  N   UNL     1      -1.757   0.568  25.417  0.00  0.00    -0.189 NA
ENDROOT
BRANCH  12   7
ATOM      6  C   UNL     1      -3.438  -0.358  24.930  0.00  0.00    +0.228 A 
ATOM      7  C   UNL     1      -2.625  -0.490  24.878  0.00  0.00    +0.092 A 
ATOM      8  C   UNL     1      -2.329  -1.258  24.906  0.00  0.00    +0.009 A 
ATOM      9  C   UNL     1      -2.845  -1.897  24.985  0.00  0.00    +0.021 A 
ATOM     10  C   UNL     1      -3.658  -1.767  25.037  0.00  0.00    +0.102 A 
ATOM     11  N   UNL     1      -3.955  -0.997  25.009  0.00  0.00    -0.210 NA
BRANCH   6   5
ATOM      5  O   UNL     1      -3.735   0.411  24.903  0.00  0.00    -0.457 OA
BRANCH   5   4
ATOM      4  C   UNL     1      -4.534   0.551  25.051  0.00  0.00    +0.239 C 
BRANCH   4   3
ATOM      3  C   UNL     1      -4.861   1.290  24.888  0.00  0.00    +0.189 C 
BRANCH   3   2
ATOM      1  C   UNL     1      -5.805   2.307  25.230  0.00  0.00    +0.174 C 
ATOM      2  O   UNL     1      -5.339   1.663  25.448  0.00  0.00    -0.347 OA
ENDBRANCH   3   2
ENDBRANCH   4   3
ENDBRANCH   5   4
ENDBRANCH   6   5
ENDBRANCH  12   7
BRANCH  15  17
ATOM     17  C   UNL     1      -0.832   1.707  25.506  0.00  0.00    +0.138 C 
ATOM     18  C   UNL     1      -0.153   1.541  25.945  0.00  0.00    +0.027 C 
ATOM     19  C   UNL     1       0.120   2.249  26.270  0.00  0.00    +0.019 C 
ATOM     20  C   UNL     1      -0.390   2.851  26.032  0.00  0.00    +0.073 C 
ATOM     21  N   UNL     1      -0.979   2.517  25.560  0.00  0.00    -0.263 NA
BRANCH  21  22
ATOM     22  C   UNL     1      -1.603   2.921  25.205  0.00  0.00    +0.102 C 
BRANCH  22  23
ATOM     23  C   UNL     1      -1.607   3.746  25.192  0.00  0.00    +0.021 A 
ATOM     24  C   UNL     1      -0.970   4.157  24.865  0.00  0.00    -0.001 A 
ATOM     25  C   UNL     1      -0.974   4.981  24.853  0.00  0.00    -0.000 A 
ATOM     26  C   UNL     1      -1.614   5.396  25.167  0.00  0.00    +0.002 A 
ATOM     27  C   UNL     1      -2.251   4.986  25.494  0.00  0.00    +0.029 A 
ATOM     28  C   UNL     1      -2.247   4.160  25.507  0.00  0.00    +0.137 A 
ATOM     29  F   UNL     1      -2.884   3.750  25.834  0.00  0.00    -0.204 F 
ENDBRANCH  22  23
ENDBRANCH  21  22
ENDBRANCH  15  17
TORSDOF 8
ENDMDL
MODEL 6
REMARK VINA RESULT:     -10.2      1.630      2.903
REMARK  Name = 
REMARK  8 active torsions:
REMARK  status: ('A' for Active; 'I' for Inactive)
REMARK    1  A    between atoms: O_2  and  C_3
REMARK    2  A    between atoms: C_3  and  C_4
REMARK    3  A    between atoms: C_4  and  O_5
REMARK    4  A    between atoms: O_5  and  C_6
REMARK    5  A    between atoms: C_7  and  C_12
REMARK    6  A    between atoms: C_15  and  C_17
REMARK    7  A    between atoms: N_21  and  C_22
REMARK    8  A    between atoms: C_22  and  C_23
REMARK                            x       y       z     vdW  Elec       q    Type
REMARK                         _______ _______ _______ _____ _____    ______ ____
ROOT
ATOM     12  C   UNL     1      -4.175   1.653  24.493  0.00  0.00    +0.208 A 
ATOM     13  N   UNL     1      -3.864   1.627  23.729  0.00  0.00    -0.056 NA
ATOM     14  O   UNL     1      -3.676   0.842  23.556  0.00  0.00    -0.336 OA
ATOM     15  C   UNL     1      -3.871   0.383  24.213  0.00  0.00    +0.251 A 
ATOM     16  N   UNL     1      -4.179   0.884  24.792  0.00  0.00    -0.189 NA
ENDROOT
BRANCH  12   7
ATOM      6  C   UNL     1      -3.887   2.860  25.201  0.00  0.00    +0.228 A 
ATOM      7  C   UNL     1      -4.435   2.328  24.888  0.00  0.00    +0.092 A 
ATOM      8  C   UNL     1      -5.243   2.472  24.971  0.00  0.00    +0.009 A 
ATOM      9  C   UNL     1      -5.503   3.147  25.366  0.00  0.00    +0.021 A 
ATOM     10  C   UNL     1      -4.956   3.680  25.679  0.00  0.00    +0.102 A 
ATOM     11  N   UNL     1      -4.147   3.536  25.596  0.00  0.00    -0.210 NA
BRANCH   6   5
ATOM      5  O   UNL     1      -3.079   2.716  25.119  0.00  0.00    -0.457 OA
BRANCH   5   4
ATOM      4  C   UNL     1      -2.533   3.180  25.528  0.00  0.00    +0.239 C 
BRANCH   4   3
ATOM      3  C   UNL     1      -1.727   3.103  25.373  0.00  0.00    +0.189 C 
BRANCH   3   2
ATOM      1  C   UNL     1      -0.396   2.861  25.834  0.00  0.00    +0.174 C 
ATOM      2  O   UNL     1      -1.199   2.961  25.992  0.00  0.00    -0.347 OA
ENDBRANCH   3   2
ENDBRANCH   4   3
ENDBRANCH   5   4
ENDBRANCH   6   5
ENDBRANCH  12   7
BRANCH  15  17
ATOM     17  C   UNL     1      -3.774  -0.433  24.280  0.00  0.00    +0.138 C 
ATOM     18  C   UNL     1      -4.351  -1.004  24.128  0.00  0.00    +0.027 C 
ATOM     19  C   UNL     1      -4.017  -1.746  24.265  0.00  0.00    +0.019 C 
ATOM     20  C   UNL     1      -3.235  -1.635  24.501  0.00  0.00    +0.073 C 
ATOM     21  N   UNL     1      -3.084  -0.823  24.510  0.00  0.00    -0.263 NA
BRANCH  21  22
ATOM     22  C   UNL     1      -2.370  -0.465  24.714  0.00  0.00    +0.102 C 
BRANCH  22  23
ATOM     23  C   UNL     1      -1.715  -0.929  24.903  0.00  0.00    +0.021 A 
ATOM     24  C   UNL     1      -1.463  -1.518  24.383  0.00  0.00    -0.001 A 
ATOM     25  C   UNL     1      -0.808  -1.982  24.572  0.00  0.00    -0.000 A 
ATOM     26  C   UNL     1      -0.405  -1.858  25.281  0.00  0.00    +0.002 A 
ATOM     27  C   UNL     1      -0.657  -1.269  25.801  0.00  0.00    +0.029 A 
ATOM     28  C   UNL     1      -1.312  -0.805  25.612  0.00  0.00    +0.137 A 
ATOM     29  F   UNL     1      -1.564  -0.216  26.132  0.00  0.00    -0.204 F 
ENDBRANCH  22  23
ENDBRANCH  21  22
ENDBRANCH  15  17
TORSDOF 8
ENDMDL
MODEL 7
REMARK VINA RESULT:      -9.9      1.491      3.566
REMARK  Name = 
REMARK  8 active torsions:
REMARK  status: ('A' for Active; 'I' for Inactive)
REMARK    1  A    between atoms: O_2  and  C_3
REMARK    2  A    between atoms: C_3  and  C_4
REMARK    3  A    between atoms: C_4  and  O_5
REMARK    4  A    between atoms: O_5  and  C_6
REMARK    5  A    between atoms: C_7  and  C_12
REMARK    6  A    between atoms: C_15  and  C_17
REMARK    7  A    between atoms: N_21  and  C_22
REMARK    8  A    between atoms: C_22  and  C_23
REMARK                            x       y       z     vdW  Elec       q    Type
REMARK                         _______ _______ _______ _____ _____    ______ ____
ROOT
ATOM     12  C   UNL     1      -3.416   2.698  24.901  0.00  0.00    +0.208 A 
ATOM     13  N   UNL     1      -3.079   2.953  24.192  0.00  0.00    -0.056 NA
ATOM     14  O   UNL     1      -2.260   2.866  24.253  0.00  0.00    -0.336 OA
ATOM     15  C   UNL     1      -2.092   2.557  25.000  0.00  0.00    +0.251 A 
ATOM     16  N   UNL     1      -2.807   2.453  25.400  0.00  0.00    -0.189 NA
ENDROOT
BRANCH  12   7
ATOM      6  C   UNL     1      -4.663   2.002  24.957  0.00  0.00    +0.228 A 
ATOM      7  C   UNL     1      -4.222   2.689  25.078  0.00  0.00    +0.092 A 
ATOM      8  C   UNL     1      -4.585   3.366  25.377  0.00  0.00    +0.009 A 
ATOM      9  C   UNL     1      -5.391   3.357  25.555  0.00  0.00    +0.021 A 
ATOM     10  C   UNL     1      -5.833   2.671  25.434  0.00  0.00    +0.102 A 
ATOM     11  N   UNL     1      -5.469   1.993  25.134  0.00  0.00    -0.210 NA
BRANCH   6   5
ATOM      5  O   UNL     1      -4.300   1.325  24.658  0.00  0.00    -0.457 OA
BRANCH   5   4
ATOM      4  C   UNL     1      -4.695   0.601  24.678  0.00  0.00    +0.239 C 
BRANCH   4   3
ATOM      3  C   UNL     1      -4.423  -0.030  24.223  0.00  0.00    +0.189 C 
BRANCH   3   2
ATOM      1  C   UNL     1      -4.211  -1.435  24.073  0.00  0.00    +0.174 C 
ATOM      2  O   UNL     1      -4.365  -0.784  24.554  0.00  0.00    -0.347 OA
ENDBRANCH   3   2
ENDBRANCH   4   3
ENDBRANCH   5   4
ENDBRANCH   6   5
ENDBRANCH  12   7
BRANCH  15  17
ATOM     17  C   UNL     1      -1.342   2.383  25.295  0.00  0.00    +0.138 C 
ATOM     18  C   UNL     1      -0.911   2.844  25.826  0.00  0.00    +0.027 C 
ATOM     19  C   UNL     1      -0.193   2.463  25.971  0.00  0.00    +0.019 C 
ATOM     20  C   UNL     1      -0.181   1.766  25.529  0.00  0.00    +0.073 C 
ATOM     21  N   UNL     1      -0.891   1.717  25.111  0.00  0.00    -0.263 NA
BRANCH  21  22
ATOM     22  C   UNL     1      -1.111   1.108  24.600  0.00  0.00    +0.102 C 
BRANCH  22  23
ATOM     23  C   UNL     1      -0.891   0.331  24.765  0.00  0.00    +0.021 A 
ATOM     24  C   UNL     1      -1.070  -0.002  25.499  0.00  0.00    -0.001 A 
ATOM     25  C   UNL     1      -0.850  -0.779  25.664  0.00  0.00    -0.000 A 
ATOM     26  C   UNL     1      -0.451  -1.225  25.096  0.00  0.00    +0.002 A 
ATOM     27  C   UNL     1      -0.272  -0.893  24.362  0.00  0.00    +0.029 A 
ATOM     28  C   UNL     1      -0.492  -0.115  24.197  0.00  0.00    +0.137 A 
ATOM     29  F   UNL     1      -0.313   0.217  23.463  0.00  0.00    -0.204 F 
ENDBRANCH  22  23
ENDBRANCH  21  22
ENDBRANCH  15  17
TORSDOF 8
ENDMDL
MODEL 8
REMARK VINA RESULT:      -9.8      1.465      3.317
REMARK  Name = 
REMARK  8 active torsions:
REMARK  status: ('A' for Active; 'I' for Inactive)
REMARK    1  A    between atoms: O_2  and  C_3
REMARK    2  A    between atoms: C_3  and  C_4
REMARK    3  A    between atoms: C_4  and  O_5
REMARK    4  A    between atoms: O_5  and  C_6
REMARK    5  A    between atoms: C_7  and  C_12
REMARK    6  A    between atoms: C_15  and  C_17
REMARK    7  A    between atoms: N_21  and  C_22
REMARK    8  A    between atoms: C_22  and  C_23
REMARK                            x       y       z     vdW  Elec       q    Type
REMARK                         _______ _______ _______ _____ _____    ______ ____
ROOT
ATOM     12  C   UNL     1      -1.061   0.041  24.494  0.00  0.00    +0.208 A 
ATOM     13  N   UNL     1      -1.160  -0.085  25.304  0.00  0.00    -0.056 NA
ATOM     14  O   UNL     1      -1.954  -0.265  25.439  0.00  0.00    -0.336 OA
ATOM     15  C   UNL     1      -2.345  -0.250  24.713  0.00  0.00    +0.251 A 
ATOM     16  N   UNL     1      -1.793  -0.061  24.129  0.00  0.00    -0.189 NA
ENDROOT
BRANCH  12   7
ATOM      6  C   UNL     1      -0.074   1.011  24.137  0.00  0.00    +0.228 A 
ATOM      7  C   UNL     1      -0.353   0.235  24.117  0.00  0.00    +0.092 A 
ATOM      8  C   UNL     1       0.075  -0.347  23.719  0.00  0.00    +0.009 A 
ATOM      9  C   UNL     1       0.782  -0.153  23.342  0.00  0.00    +0.021 A 
ATOM     10  C   UNL     1       1.062   0.622  23.362  0.00  0.00    +0.102 A 
ATOM     11  N   UNL     1       0.633   1.205  23.760  0.00  0.00    -0.210 NA
BRANCH   6   5
ATOM      5  O   UNL     1      -0.502   1.593  24.535  0.00  0.00    -0.457 OA
BRANCH   5   4
ATOM      4  C   UNL     1      -0.277   2.385  24.475  0.00  0.00    +0.239 C 
BRANCH   4   3
ATOM      3  C   UNL     1      -0.630   2.952  24.959  0.00  0.00    +0.189 C 
BRANCH   3   2
ATOM      1  C   UNL     1      -1.183   4.258  25.133  0.00  0.00    +0.174 C 
ATOM      2  O   UNL     1      -0.848   3.683  24.646  0.00  0.00    -0.347 OA
ENDBRANCH   3   2
ENDBRANCH   4   3
ENDBRANCH   5   4
ENDBRANCH   6   5
ENDBRANCH  12   7
BRANCH  15  17
ATOM     17  C   UNL     1      -3.147  -0.398  24.591  0.00  0.00    +0.138 C 
ATOM     18  C   UNL     1      -3.483  -1.129  24.403  0.00  0.00    +0.027 C 
ATOM     19  C   UNL     1      -4.298  -1.024  24.331  0.00  0.00    +0.019 C 
ATOM     20  C   UNL     1      -4.467  -0.229  24.475  0.00  0.00    +0.073 C 
ATOM     21  N   UNL     1      -3.756   0.157  24.636  0.00  0.00    -0.263 NA
BRANCH  21  22
ATOM     22  C   UNL     1      -3.669   0.959  24.810  0.00  0.00    +0.102 C 
BRANCH  22  23
ATOM     23  C   UNL     1      -4.334   1.438  24.893  0.00  0.00    +0.021 A 
ATOM     24  C   UNL     1      -4.937   1.220  25.413  0.00  0.00    -0.001 A 
ATOM     25  C   UNL     1      -5.603   1.699  25.497  0.00  0.00    -0.000 A 
ATOM     26  C   UNL     1      -5.668   2.396  25.060  0.00  0.00    +0.002 A 
ATOM     27  C   UNL     1      -5.066   2.614  24.540  0.00  0.00    +0.029 A 
ATOM     28  C   UNL     1      -4.399   2.135  24.457  0.00  0.00    +0.137 A 
ATOM     29  F   UNL     1      -3.797   2.353  23.937  0.00  0.00    -0.204 F 
ENDBRANCH  22  23
ENDBRANCH  21  22
ENDBRANCH  15  17
TORSDOF 8
ENDMDL
