MODEL 1
REMARK VINA RESULT:     -11.7      0.000      0.000
REMARK  Name = 
REMARK  7 active torsions:
REMARK  status: ('A' for Active; 'I' for Inactive)
REMARK    1  A    between atoms: N_2  and  C_4
REMARK    2  A    between atoms: C_7  and  C_10
REMARK    3  A    between atoms: C_13  and  C_15
REMARK    4  A    between atoms: N_19  and  C_20
REMARK    5  A    between atoms: C_20  and  C_21
REMARK    6  A    between atoms: C_25  and  O_26
REMARK    7  A    between atoms: O_26  and  C_27
REMARK                            x       y       z     vdW  Elec       q    Type
REMARK                         _______ _______ _______ _____ _____    ______ ____
ROOT
ATOM     15  C   UNL     1      -4.100   2.620  24.322  0.00  0.00    +0.138 C 
ATOM     16  C   UNL     1      -4.487   2.933  23.663  0.00  0.00    +0.027 C 
ATOM     17  C   UNL     1      -4.224   3.709  23.558  0.00  0.00    +0.019 C 
ATOM     18  C   UNL     1      -3.676   3.875  24.151  0.00  0.00    +0.073 C 
ATOM     19  N   UNL     1      -3.599   3.202  24.624  0.00  0.00    -0.263 NA
ENDROOT
BRANCH  15  13
ATOM     10  C   UNL     1      -4.066   0.546  24.826  0.00  0.00    +0.205 A 
ATOM     11  N   UNL     1      -4.630   0.830  25.357  0.00  0.00    -0.056 NA
ATOM     12  O   UNL     1      -4.711   1.642  25.233  0.00  0.00    -0.336 OA
ATOM     13  C   UNL     1      -4.198   1.860  24.625  0.00  0.00    +0.251 A 
ATOM     14  N   UNL     1      -3.799   1.182  24.373  0.00  0.00    -0.190 NA
BRANCH  10   7
ATOM      4  C   UNL     1      -3.309  -1.801  24.624  0.00  0.00    +0.132 A 
ATOM      5  C   UNL     1      -3.912  -1.519  24.136  0.00  0.00    +0.034 A 
ATOM      6  C   UNL     1      -4.164  -0.736  24.203  0.00  0.00    +0.008 A 
ATOM      7  C   UNL     1      -3.813  -0.236  24.758  0.00  0.00    +0.058 A 
ATOM      8  C   UNL     1      -3.211  -0.518  25.246  0.00  0.00    +0.103 A 
ATOM      9  N   UNL     1      -2.959  -1.301  25.179  0.00  0.00    -0.229 NA
BRANCH   4   2
ATOM      1  C   UNL     1      -2.254  -2.752  24.469  0.00  0.00    +0.114 C 
ATOM      2  N   UNL     1      -3.056  -2.584  24.557  0.00  0.00    -0.290 N 
ATOM      3  C   UNL     1      -3.607  -3.198  24.578  0.00  0.00    +0.114 C 
ENDBRANCH   4   2
ENDBRANCH  10   7
ENDBRANCH  15  13
BRANCH  19  20
ATOM     20  C   UNL     1      -3.108   3.126  25.282  0.00  0.00    +0.100 C 
BRANCH  20  21
ATOM     21  C   UNL     1      -2.378   3.508  25.298  0.00  0.00    -0.003 A 
ATOM     22  C   UNL     1      -2.341   4.322  25.432  0.00  0.00    -0.003 A 
ATOM     23  C   UNL     1      -1.610   4.704  25.448  0.00  0.00    +0.003 A 
ATOM     24  C   UNL     1      -0.916   4.275  25.331  0.00  0.00    +0.037 A 
ATOM     25  C   UNL     1      -0.952   3.461  25.197  0.00  0.00    +0.147 A 
ATOM     31  C   UNL     1      -1.684   3.078  25.181  0.00  0.00    +0.034 A 
BRANCH  25  26
ATOM     26  O   UNL     1      -0.258   3.030  25.079  0.00  0.00    -0.404 OA
BRANCH  26  27
ATOM     27  C   UNL     1      -0.008   2.490  25.650  0.00  0.00    +0.575 C 
ATOM     28  F   UNL     1       0.243   1.950  26.221  0.00  0.00    -0.133 F 
ATOM     29  F   UNL     1       0.307   3.109  26.096  0.00  0.00    -0.133 F 
ATOM     30  F   UNL     1      -0.323   1.872  25.204  0.00  0.00    -0.133 F 
ENDBRANCH  26  27
ENDBRANCH  25  26
ENDBRANCH  20  21
ENDBRANCH  19  20
TORSDOF 7
ENDMDL
MODEL 2
REMARK VINA RESULT:     -11.3      1.937      2.961
REMARK  Name = 
REMARK  7 active torsions:
REMARK  status: ('A' for Active; 'I' for Inactive)
REMARK    1  A    between atoms: N_2  and  C_4
REMARK    2  A    between atoms: C_7  and  C_10
REMARK    3  A    between atoms: C_13  and  C_15
REMARK    4  A    between atoms: N_19  and  C_20
REMARK    5  A    between atoms: C_20  and  C_21
REMARK    6  A    between atoms: C_25  and  O_26
REMARK    7  A    between atoms: O_26  and  C_27
REMARK                            x       y       z     vdW  Elec       q    Type
REMARK                         _______ _______ _______ _____ _____    ______ ____
ROOT
ATOM     15  C   UNL     1      -0.463   1.581  24.865  0.00  0.00    +0.138 C 
ATOM     16  C   UNL     1       0.162   1.632  24.329  0.00  0.00    +0.027 C 
ATOM     17  C   UNL     1       0.346   2.431  24.227  0.00  0.00    +0.019 C 
ATOM     18  C   UNL     1      -0.166   2.872  24.700  0.00  0.00    +0.073 C 
ATOM     19  N   UNL     1      -0.666   2.347  25.094  0.00  0.00    -0.263 NA
ENDROOT
BRANCH  15  13
ATOM     10  C   UNL     1      -1.579  -0.213  25.169  0.00  0.00    +0.205 A 
ATOM     11  N   UNL     1      -1.171  -0.156  25.885  0.00  0.00    -0.056 NA
ATOM     12  O   UNL     1      -0.703   0.523  25.858  0.00  0.00    -0.336 OA
ATOM     13  C   UNL     1      -0.822   0.886  25.126  0.00  0.00    +0.251 A 
ATOM     14  N   UNL     1      -1.364   0.431  24.701  0.00  0.00    -0.190 NA
BRANCH  10   7
ATOM      4  C   UNL     1      -3.171  -2.001  24.542  0.00  0.00    +0.132 A 
ATOM      5  C   UNL     1      -3.453  -1.276  24.817  0.00  0.00    +0.034 A 
ATOM      6  C   UNL     1      -2.922  -0.680  25.026  0.00  0.00    +0.008 A 
ATOM      7  C   UNL     1      -2.110  -0.809  24.960  0.00  0.00    +0.058 A 
ATOM      8  C   UNL     1      -1.828  -1.533  24.685  0.00  0.00    +0.103 A 
ATOM      9  N   UNL     1      -2.359  -2.130  24.476  0.00  0.00    -0.229 NA
BRANCH   4   2
ATOM      1  C   UNL     1      -3.617  -3.354  24.649  0.00  0.00    +0.114 C 
ATOM      2  N   UNL     1      -3.701  -2.598  24.332  0.00  0.00    -0.290 N 
ATOM      3  C   UNL     1      -4.316  -2.436  23.806  0.00  0.00    +0.114 C 
ENDBRANCH   4   2
ENDBRANCH  10   7
ENDBRANCH  15  13
BRANCH  19  20
ATOM     20  C   UNL     1      -1.263   2.553  25.624  0.00  0.00    +0.100 C 
BRANCH  20  21
ATOM     21  C   UNL     1      -1.725   3.222  25.486  0.00  0.00    -0.003 A 
ATOM     22  C   UNL     1      -1.404   3.975  25.594  0.00  0.00    -0.003 A 
ATOM     23  C   UNL     1      -1.866   4.644  25.456  0.00  0.00    +0.003 A 
ATOM     24  C   UNL     1      -2.649   4.561  25.210  0.00  0.00    +0.037 A 
ATOM     25  C   UNL     1      -2.970   3.809  25.102  0.00  0.00    +0.147 A 
ATOM     31  C   UNL     1      -2.508   3.140  25.240  0.00  0.00    +0.034 A 
BRANCH  25  26
ATOM     26  O   UNL     1      -3.754   3.726  24.856  0.00  0.00    -0.404 OA
BRANCH  26  27
ATOM     27  C   UNL     1      -3.920   3.448  24.098  0.00  0.00    +0.575 C 
ATOM     28  F   UNL     1      -4.086   3.167  23.339  0.00  0.00    -0.133 F 
ATOM     29  F   UNL     1      -4.018   2.686  24.401  0.00  0.00    -0.133 F 
ATOM     30  F   UNL     1      -3.821   4.208  23.795  0.00  0.00    -0.133 F 
ENDBRANCH  26  27
ENDBRANCH  25  26
ENDBRANCH  20  21
ENDBRANCH  19  20
TORSDOF 7
ENDMDL
MODEL 3
REMARK VINA RESULT:     -10.7      2.343      5.577
REMARK  Name = 
REMARK  7 active torsions:
REMARK  status: ('A' for Active; 'I' for Inactive)
REMARK    1  A    between atoms: N_2  and  C_4
REMARK    2  A    between atoms: C_7  and  C_10
REMARK    3  A    between atoms: C_13  and  C_15
REMARK    4  A    between atoms: N_19  and  C_20
REMARK    5  A    between atoms: C_20  and  C_21
REMARK    6  A    between atoms: C_25  and  O_26
REMARK    7  A    between atoms: O_26  and  C_27
REMARK                            x       y       z     vdW  Elec       q    Type
REMARK                         _______ _______ _______ _____ _____    ______ ____
ROOT
ATOM     15  C   UNL     1      -0.719  -0.380  24.774  0.00  0.00    +0.138 C 
ATOM     16  C   UNL     1      -0.133  -0.593  24.233  0.00  0.00    +0.027 C 
ATOM     17  C   UNL     1      -0.309  -1.349  23.952  0.00  0.00    +0.019 C 
ATOM     18  C   UNL     1      -1.003  -1.603  24.319  0.00  0.00    +0.073 C 
ATOM     19  N   UNL     1      -1.256  -1.003  24.827  0.00  0.00    -0.263 NA
ENDROOT
BRANCH  15  13
ATOM     10  C   UNL     1      -0.929   1.624  25.478  0.00  0.00    +0.205 A 
ATOM     11  N   UNL     1      -0.715   1.233  26.172  0.00  0.00    -0.056 NA
ATOM     12  O   UNL     1      -0.610   0.434  25.993  0.00  0.00    -0.336 OA
ATOM     13  C   UNL     1      -0.760   0.332  25.188  0.00  0.00    +0.251 A 
ATOM     14  N   UNL     1      -0.957   1.068  24.870  0.00  0.00    -0.190 NA
BRANCH  10   7
ATOM      4  C   UNL     1      -1.406   4.043  25.260  0.00  0.00    +0.132 A 
ATOM      5  C   UNL     1      -2.028   3.502  25.308  0.00  0.00    +0.034 A 
ATOM      6  C   UNL     1      -1.869   2.696  25.381  0.00  0.00    +0.008 A 
ATOM      7  C   UNL     1      -1.088   2.431  25.405  0.00  0.00    +0.058 A 
ATOM      8  C   UNL     1      -0.467   2.970  25.356  0.00  0.00    +0.103 A 
ATOM      9  N   UNL     1      -0.626   3.776  25.284  0.00  0.00    -0.229 NA
BRANCH   4   2
ATOM      1  C   UNL     1      -2.294   5.149  25.427  0.00  0.00    +0.114 C 
ATOM      2  N   UNL     1      -1.565   4.849  25.187  0.00  0.00    -0.290 N 
ATOM      3  C   UNL     1      -0.993   5.355  24.874  0.00  0.00    +0.114 C 
ENDBRANCH   4   2
ENDBRANCH  10   7
ENDBRANCH  15  13
BRANCH  19  20
ATOM     20  C   UNL     1      -1.929  -1.025  25.303  0.00  0.00    +0.100 C 
BRANCH  20  21
ATOM     21  C   UNL     1      -2.627  -1.357  25.017  0.00  0.00    -0.003 A 
ATOM     22  C   UNL     1      -2.770  -2.164  25.112  0.00  0.00    -0.003 A 
ATOM     23  C   UNL     1      -3.468  -2.496  24.826  0.00  0.00    +0.003 A 
ATOM     24  C   UNL     1      -4.025  -2.022  24.445  0.00  0.00    +0.037 A 
ATOM     25  C   UNL     1      -3.883  -1.215  24.350  0.00  0.00    +0.147 A 
ATOM     31  C   UNL     1      -3.184  -0.882  24.636  0.00  0.00    +0.034 A 
BRANCH  25  26
ATOM     26  O   UNL     1      -4.440  -0.739  23.968  0.00  0.00    -0.404 OA
BRANCH  26  27
ATOM     27  C   UNL     1      -4.474   0.068  24.133  0.00  0.00    +0.575 C 
ATOM     28  F   UNL     1      -4.508   0.876  24.299  0.00  0.00    -0.133 F 
ATOM     29  F   UNL     1      -4.970  -0.085  24.775  0.00  0.00    -0.133 F 
ATOM     30  F   UNL     1      -3.978   0.221  23.492  0.00  0.00    -0.133 F 
ENDBRANCH  26  27
ENDBRANCH  25  26
ENDBRANCH  20  21
ENDBRANCH  19  20
TORSDOF 7
ENDMDL
MODEL 4
REMARK VINA RESULT:     -10.7      2.134      3.209
REMARK  Name = 
REMARK  7 active torsions:
REMARK  status: ('A' for Active; 'I' for Inactive)
REMARK    1  A    between atoms: N_2  and  C_4
REMARK    2  A    between atoms: C_7  and  C_10
REMARK    3  A    between atoms: C_13  and  C_15
REMARK    4  A    between atoms: N_19  and  C_20
REMARK    5  A    between atoms: C_20  and  C_21
REMARK    6  A    between atoms: C_25  and  O_26
REMARK    7  A    between atoms: O_26  and  C_27
REMARK                            x       y       z     vdW  Elec       q    Type
REMARK                         _______ _______ _______ _____ _____    ______ ____
ROOT
ATOM     15  C   UNL     1      -1.677   2.264  25.175  0.00  0.00    +0.138 C 
ATOM     16  C   UNL     1      -1.096   2.496  25.714  0.00  0.00    +0.027 C 
ATOM     17  C   UNL     1      -1.272   3.262  25.965  0.00  0.00    +0.019 C 
ATOM     18  C   UNL     1      -1.961   3.504  25.582  0.00  0.00    +0.073 C 
ATOM     19  N   UNL     1      -2.212   2.887  25.094  0.00  0.00    -0.263 NA
ENDROOT
BRANCH  15  13
ATOM     10  C   UNL     1      -2.059   0.289  24.462  0.00  0.00    +0.205 A 
ATOM     11  N   UNL     1      -1.495   0.549  23.918  0.00  0.00    -0.056 NA
ATOM     12  O   UNL     1      -1.283   1.321  24.119  0.00  0.00    -0.336 OA
ATOM     13  C   UNL     1      -1.716   1.538  24.787  0.00  0.00    +0.251 A 
ATOM     14  N   UNL     1      -2.195   0.900  24.999  0.00  0.00    -0.190 NA
BRANCH  10   7
ATOM      4  C   UNL     1      -3.147  -1.934  24.479  0.00  0.00    +0.132 A 
ATOM      5  C   UNL     1      -3.586  -1.260  24.290  0.00  0.00    +0.034 A 
ATOM      6  C   UNL     1      -3.223  -0.519  24.285  0.00  0.00    +0.008 A 
ATOM      7  C   UNL     1      -2.421  -0.452  24.468  0.00  0.00    +0.058 A 
ATOM      8  C   UNL     1      -1.983  -1.124  24.656  0.00  0.00    +0.103 A 
ATOM      9  N   UNL     1      -2.346  -1.865  24.662  0.00  0.00    -0.229 NA
BRANCH   4   2
ATOM      1  C   UNL     1      -4.079  -2.859  23.917  0.00  0.00    +0.114 C 
ATOM      2  N   UNL     1      -3.510  -2.675  24.485  0.00  0.00    -0.290 N 
ATOM      3  C   UNL     1      -3.303  -3.230  25.058  0.00  0.00    +0.114 C 
ENDBRANCH   4   2
ENDBRANCH  10   7
ENDBRANCH  15  13
BRANCH  19  20
ATOM     20  C   UNL     1      -2.879   2.894  24.609  0.00  0.00    +0.100 C 
BRANCH  20  21
ATOM     21  C   UNL     1      -3.577   3.244  24.873  0.00  0.00    -0.003 A 
ATOM     22  C   UNL     1      -3.698   4.054  24.768  0.00  0.00    -0.003 A 
ATOM     23  C   UNL     1      -4.396   4.404  25.032  0.00  0.00    +0.003 A 
ATOM     24  C   UNL     1      -4.974   3.945  25.401  0.00  0.00    +0.037 A 
ATOM     25  C   UNL     1      -4.854   3.136  25.505  0.00  0.00    +0.147 A 
ATOM     31  C   UNL     1      -4.155   2.785  25.241  0.00  0.00    +0.034 A 
BRANCH  25  26
ATOM     26  O   UNL     1      -5.433   2.677  25.874  0.00  0.00    -0.404 OA
BRANCH  26  27
ATOM     27  C   UNL     1      -5.804   2.070  25.457  0.00  0.00    +0.575 C 
ATOM     28  F   UNL     1      -6.176   1.463  25.039  0.00  0.00    -0.133 F 
ATOM     29  F   UNL     1      -6.279   2.625  25.074  0.00  0.00    -0.133 F 
ATOM     30  F   UNL     1      -5.329   1.515  25.840  0.00  0.00    -0.133 F 
ENDBRANCH  26  27
ENDBRANCH  25  26
ENDBRANCH  20  21
ENDBRANCH  19  20
TORSDOF 7
ENDMDL
MODEL 5
REMARK VINA RESULT:     -10.6      2.484      5.284
REMARK  Name = 
REMARK  7 active torsions:
REMARK  status: ('A' for Active; 'I' for Inactive)
REMARK    1  A    between atoms: N_2  and  C_4
REMARK    2  A    between atoms: C_7  and  C_10
REMARK    3  A    between atoms: C_13  and  C_15
REMARK    4  A    between atoms: N_19  and  C_20
REMARK    5  A    between atoms: C_20  and  C_21
REMARK    6  A    between atoms: C_25  and  O_26
REMARK    7  A    between atoms: O_26  and  C_27
REMARK                            x       y       z     vdW  Elec       q    Type
REMARK                         _______ _______ _______ _____ _____    ______ ____
ROOT
ATOM     15  C   UNL     1      -0.664   0.590  24.370  0.00  0.00    +0.138 C 
ATOM     16  C   UNL     1      -0.140   0.692  23.740  0.00  0.00    +0.027 C 
ATOM     17  C   UNL     1       0.125  -0.053  23.505  0.00  0.00    +0.019 C 
ATOM     18  C   UNL     1      -0.235  -0.616  23.989  0.00  0.00    +0.073 C 
ATOM     19  N   UNL     1      -0.722  -0.219  24.524  0.00  0.00    -0.263 NA
ENDROOT
BRANCH  15  13
ATOM     10  C   UNL     1      -1.999   2.057  25.157  0.00  0.00    +0.205 A 
ATOM     11  N   UNL     1      -1.337   2.171  25.636  0.00  0.00    -0.056 NA
ATOM     12  O   UNL     1      -0.756   1.635  25.399  0.00  0.00    -0.336 OA
ATOM     13  C   UNL     1      -1.059   1.190  24.774  0.00  0.00    +0.251 A 
ATOM     14  N   UNL     1      -1.827   1.451  24.625  0.00  0.00    -0.190 NA
BRANCH  10   7
ATOM      4  C   UNL     1      -4.127   3.314  25.294  0.00  0.00    +0.132 A 
ATOM      5  C   UNL     1      -4.111   2.566  24.944  0.00  0.00    +0.034 A 
ATOM      6  C   UNL     1      -3.401   2.147  24.898  0.00  0.00    +0.008 A 
ATOM      7  C   UNL     1      -2.708   2.476  25.202  0.00  0.00    +0.058 A 
ATOM      8  C   UNL     1      -2.724   3.223  25.552  0.00  0.00    +0.103 A 
ATOM      9  N   UNL     1      -3.433   3.642  25.597  0.00  0.00    -0.229 NA
BRANCH   4   2
ATOM      1  C   UNL     1      -4.869   4.516  25.083  0.00  0.00    +0.114 C 
ATOM      2  N   UNL     1      -4.836   3.733  25.339  0.00  0.00    -0.290 N 
ATOM      3  C   UNL     1      -5.511   3.368  25.642  0.00  0.00    +0.114 C 
ENDBRANCH   4   2
ENDBRANCH  10   7
ENDBRANCH  15  13
BRANCH  19  20
ATOM     20  C   UNL     1      -1.186  -0.569  25.108  0.00  0.00    +0.100 C 
BRANCH  20  21
ATOM     21  C   UNL     1      -1.600  -1.264  24.946  0.00  0.00    -0.003 A 
ATOM     22  C   UNL     1      -1.189  -1.967  24.814  0.00  0.00    -0.003 A 
ATOM     23  C   UNL     1      -1.603  -2.662  24.652  0.00  0.00    +0.003 A 
ATOM     24  C   UNL     1      -2.427  -2.654  24.621  0.00  0.00    +0.037 A 
ATOM     25  C   UNL     1      -2.838  -1.951  24.753  0.00  0.00    +0.147 A 
ATOM     31  C   UNL     1      -2.424  -1.256  24.916  0.00  0.00    +0.034 A 
BRANCH  25  26
ATOM     26  O   UNL     1      -3.663  -1.943  24.723  0.00  0.00    -0.404 OA
BRANCH  26  27
ATOM     27  C   UNL     1      -4.048  -1.903  23.995  0.00  0.00    +0.575 C 
ATOM     28  F   UNL     1      -4.433  -1.862  23.266  0.00  0.00    -0.133 F 
ATOM     29  F   UNL     1      -4.034  -1.079  24.033  0.00  0.00    -0.133 F 
ATOM     30  F   UNL     1      -4.062  -2.726  23.956  0.00  0.00    -0.133 F 
ENDBRANCH  26  27
ENDBRANCH  25  26
ENDBRANCH  20  21
ENDBRANCH  19  20
TORSDOF 7
ENDMDL
