MODEL 1
REMARK VINA RESULT:     -11.1      0.000      0.000
REMARK  Name = 
REMARK  5 active torsions:
REMARK  status: ('A' for Active; 'I' for Inactive)
REMARK    1  A    between atoms: N_2  and  C_4
REMARK    2  A    between atoms: C_7  and  C_10
REMARK    3  A    between atoms: C_13  and  C_15
REMARK    4  A    between atoms: N_19  and  C_20
REMARK    5  A    between atoms: C_20  and  C_21
REMARK                            x       y       z     vdW  Elec       q    Type
REMARK                         _______ _______ _______ _____ _____    ______ ____
ROOT
ATOM     10  C   UNL     1      -4.045   0.454  24.885  0.00  0.00    +0.205 A 
ATOM     11  N   UNL     1      -4.550   0.727  25.478  0.00  0.00    -0.056 NA
ATOM     12  O   UNL     1      -4.661   1.538  25.365  0.00  0.00    -0.336 OA
ATOM     13  C   UNL     1      -4.225   1.765  24.702  0.00  0.00    +0.251 A 
ATOM     14  N   UNL     1      -3.845   1.095  24.406  0.00  0.00    -0.190 NA
ENDROOT
BRANCH  10   7
ATOM      4  C   UNL     1      -3.270  -1.878  24.595  0.00  0.00    +0.132 A 
ATOM      5  C   UNL     1      -3.861  -1.576  24.106  0.00  0.00    +0.034 A 
ATOM      6  C   UNL     1      -4.120  -0.798  24.203  0.00  0.00    +0.008 A 
ATOM      7  C   UNL     1      -3.787  -0.323  24.788  0.00  0.00    +0.058 A 
ATOM      8  C   UNL     1      -3.194  -0.624  25.278  0.00  0.00    +0.103 A 
ATOM      9  N   UNL     1      -2.936  -1.402  25.181  0.00  0.00    -0.229 NA
BRANCH   4   2
ATOM      1  C   UNL     1      -2.206  -2.814  24.411  0.00  0.00    +0.114 C 
ATOM      2  N   UNL     1      -3.011  -2.656  24.498  0.00  0.00    -0.290 N 
ATOM      3  C   UNL     1      -3.557  -3.273  24.489  0.00  0.00    +0.114 C 
ENDBRANCH   4   2
ENDBRANCH  10   7
BRANCH  13  15
ATOM     15  C   UNL     1      -4.178   2.527  24.391  0.00  0.00    +0.138 C 
ATOM     16  C   UNL     1      -4.693   2.857  23.838  0.00  0.00    +0.027 C 
ATOM     17  C   UNL     1      -4.442   3.627  23.682  0.00  0.00    +0.019 C 
ATOM     18  C   UNL     1      -3.770   3.773  24.140  0.00  0.00    +0.073 C 
ATOM     19  N   UNL     1      -3.608   3.093  24.578  0.00  0.00    -0.263 NA
BRANCH  19  20
ATOM     20  C   UNL     1      -2.984   2.996  25.109  0.00  0.00    +0.099 C 
BRANCH  20  21
ATOM     21  C   UNL     1      -2.337   3.507  25.083  0.00  0.00    -0.006 A 
ATOM     22  C   UNL     1      -2.374   4.239  25.462  0.00  0.00    -0.003 A 
ATOM     23  C   UNL     1      -1.726   4.750  25.436  0.00  0.00    -0.005 A 
ATOM     24  C   UNL     1      -1.042   4.528  25.032  0.00  0.00    -0.022 A 
ATOM     25  C   UNL     1      -0.395   5.039  25.006  0.00  0.00    +0.031 C 
ATOM     26  C   UNL     1      -1.006   3.796  24.654  0.00  0.00    -0.005 A 
ATOM     27  C   UNL     1      -1.652   3.286  24.679  0.00  0.00    -0.003 A 
ENDBRANCH  20  21
ENDBRANCH  19  20
ENDBRANCH  13  15
TORSDOF 5
ENDMDL
MODEL 2
REMARK VINA RESULT:     -10.6      1.980      5.777
REMARK  Name = 
REMARK  5 active torsions:
REMARK  status: ('A' for Active; 'I' for Inactive)
REMARK    1  A    between atoms: N_2  and  C_4
REMARK    2  A    between atoms: C_7  and  C_10
REMARK    3  A    between atoms: C_13  and  C_15
REMARK    4  A    between atoms: N_19  and  C_20
REMARK    5  A    between atoms: C_20  and  C_21
REMARK                            x       y       z     vdW  Elec       q    Type
REMARK                         _______ _______ _______ _____ _____    ______ ____
ROOT
ATOM     10  C   UNL     1      -0.984   1.743  25.469  0.00  0.00    +0.205 A 
ATOM     11  N   UNL     1      -0.856   1.349  26.183  0.00  0.00    -0.056 NA
ATOM     12  O   UNL     1      -0.777   0.544  26.019  0.00  0.00    -0.336 OA
ATOM     13  C   UNL     1      -0.857   0.441  25.205  0.00  0.00    +0.251 A 
ATOM     14  N   UNL     1      -0.985   1.182  24.865  0.00  0.00    -0.190 NA
ENDROOT
BRANCH  10   7
ATOM      4  C   UNL     1      -1.309   4.181  25.192  0.00  0.00    +0.132 A 
ATOM      5  C   UNL     1      -1.953   3.696  25.368  0.00  0.00    +0.034 A 
ATOM      6  C   UNL     1      -1.844   2.883  25.460  0.00  0.00    +0.008 A 
ATOM      7  C   UNL     1      -1.092   2.556  25.377  0.00  0.00    +0.058 A 
ATOM      8  C   UNL     1      -0.448   3.040  25.202  0.00  0.00    +0.103 A 
ATOM      9  N   UNL     1      -0.556   3.853  25.109  0.00  0.00    -0.229 NA
BRANCH   4   2
ATOM      1  C   UNL     1      -0.822   5.452  24.759  0.00  0.00    +0.114 C 
ATOM      2  N   UNL     1      -1.417   4.994  25.100  0.00  0.00    -0.290 N 
ATOM      3  C   UNL     1      -2.119   5.347  25.348  0.00  0.00    +0.114 C 
ENDBRANCH   4   2
ENDBRANCH  10   7
BRANCH  13  15
ATOM     15  C   UNL     1      -0.817  -0.277  24.800  0.00  0.00    +0.138 C 
ATOM     16  C   UNL     1      -0.160  -0.568  24.394  0.00  0.00    +0.027 C 
ATOM     17  C   UNL     1      -0.362  -1.301  24.074  0.00  0.00    +0.019 C 
ATOM     18  C   UNL     1      -1.144  -1.463  24.282  0.00  0.00    +0.073 C 
ATOM     19  N   UNL     1      -1.425  -0.830  24.731  0.00  0.00    -0.263 NA
BRANCH  19  20
ATOM     20  C   UNL     1      -2.181  -0.762  25.054  0.00  0.00    +0.099 C 
BRANCH  20  21
ATOM     21  C   UNL     1      -2.802  -1.210  24.747  0.00  0.00    -0.006 A 
ATOM     22  C   UNL     1      -3.314  -0.880  24.191  0.00  0.00    -0.003 A 
ATOM     23  C   UNL     1      -3.935  -1.328  23.885  0.00  0.00    -0.005 A 
ATOM     24  C   UNL     1      -4.044  -2.107  24.135  0.00  0.00    -0.022 A 
ATOM     25  C   UNL     1      -4.666  -2.555  23.828  0.00  0.00    +0.031 C 
ATOM     26  C   UNL     1      -3.533  -2.437  24.691  0.00  0.00    -0.005 A 
ATOM     27  C   UNL     1      -2.912  -1.989  24.997  0.00  0.00    -0.003 A 
ENDBRANCH  20  21
ENDBRANCH  19  20
ENDBRANCH  13  15
TORSDOF 5
ENDMDL
MODEL 3
REMARK VINA RESULT:     -10.2      1.185      5.191
REMARK  Name = 
REMARK  5 active torsions:
REMARK  status: ('A' for Active; 'I' for Inactive)
REMARK    1  A    between atoms: N_2  and  C_4
REMARK    2  A    between atoms: C_7  and  C_10
REMARK    3  A    between atoms: C_13  and  C_15
REMARK    4  A    between atoms: N_19  and  C_20
REMARK    5  A    between atoms: C_20  and  C_21
REMARK                            x       y       z     vdW  Elec       q    Type
REMARK                         _______ _______ _______ _____ _____    ______ ____
ROOT
ATOM     10  C   UNL     1      -3.410   2.999  24.474  0.00  0.00    +0.205 A 
ATOM     11  N   UNL     1      -3.934   3.094  23.843  0.00  0.00    -0.056 NA
ATOM     12  O   UNL     1      -4.546   2.549  23.937  0.00  0.00    -0.336 OA
ATOM     13  C   UNL     1      -4.401   2.118  24.626  0.00  0.00    +0.251 A 
ATOM     14  N   UNL     1      -3.698   2.396  24.957  0.00  0.00    -0.190 NA
ENDROOT
BRANCH  10   7
ATOM      4  C   UNL     1      -1.336   4.298  24.848  0.00  0.00    +0.132 A 
ATOM      5  C   UNL     1      -2.049   4.556  25.173  0.00  0.00    +0.034 A 
ATOM      6  C   UNL     1      -2.740   4.123  25.048  0.00  0.00    +0.008 A 
ATOM      7  C   UNL     1      -2.718   3.432  24.598  0.00  0.00    +0.058 A 
ATOM      8  C   UNL     1      -2.006   3.173  24.273  0.00  0.00    +0.103 A 
ATOM      9  N   UNL     1      -1.315   3.606  24.398  0.00  0.00    -0.229 NA
BRANCH   4   2
ATOM      1  C   UNL     1      -0.648   5.550  24.874  0.00  0.00    +0.114 C 
ATOM      2  N   UNL     1      -0.645   4.731  24.972  0.00  0.00    -0.290 N 
ATOM      3  C   UNL     1       0.049   4.344  25.195  0.00  0.00    +0.114 C 
ENDBRANCH   4   2
ENDBRANCH  10   7
BRANCH  13  15
ATOM     15  C   UNL     1      -4.874   1.515  24.930  0.00  0.00    +0.138 C 
ATOM     16  C   UNL     1      -5.570   1.615  25.362  0.00  0.00    +0.027 C 
ATOM     17  C   UNL     1      -5.861   0.868  25.554  0.00  0.00    +0.019 C 
ATOM     18  C   UNL     1      -5.345   0.305  25.241  0.00  0.00    +0.073 C 
ATOM     19  N   UNL     1      -4.735   0.705  24.855  0.00  0.00    -0.263 NA
BRANCH  19  20
ATOM     20  C   UNL     1      -4.099   0.356  24.463  0.00  0.00    +0.099 C 
BRANCH  20  21
ATOM     21  C   UNL     1      -3.977  -0.458  24.518  0.00  0.00    -0.006 A 
ATOM     22  C   UNL     1      -3.574  -0.772  25.165  0.00  0.00    -0.003 A 
ATOM     23  C   UNL     1      -3.452  -1.587  25.220  0.00  0.00    -0.005 A 
ATOM     24  C   UNL     1      -3.733  -2.086  24.626  0.00  0.00    -0.022 A 
ATOM     25  C   UNL     1      -3.610  -2.901  24.680  0.00  0.00    +0.031 C 
ATOM     26  C   UNL     1      -4.135  -1.772  23.978  0.00  0.00    -0.005 A 
ATOM     27  C   UNL     1      -4.257  -0.958  23.924  0.00  0.00    -0.003 A 
ENDBRANCH  20  21
ENDBRANCH  19  20
ENDBRANCH  13  15
TORSDOF 5
ENDMDL
MODEL 4
REMARK VINA RESULT:     -10.2      1.919      2.729
REMARK  Name = 
REMARK  5 active torsions:
REMARK  status: ('A' for Active; 'I' for Inactive)
REMARK    1  A    between atoms: N_2  and  C_4
REMARK    2  A    between atoms: C_7  and  C_10
REMARK    3  A    between atoms: C_13  and  C_15
REMARK    4  A    between atoms: N_19  and  C_20
REMARK    5  A    between atoms: C_20  and  C_21
REMARK                            x       y       z     vdW  Elec       q    Type
REMARK                         _______ _______ _______ _____ _____    ______ ____
ROOT
ATOM     10  C   UNL     1      -1.418   0.060  24.720  0.00  0.00    +0.205 A 
ATOM     11  N   UNL     1      -0.818   0.247  24.184  0.00  0.00    -0.056 NA
ATOM     12  O   UNL     1      -0.390   0.882  24.492  0.00  0.00    -0.336 OA
ATOM     13  C   UNL     1      -0.725   1.088  25.217  0.00  0.00    +0.251 A 
ATOM     14  N   UNL     1      -1.360   0.580  25.358  0.00  0.00    -0.190 NA
ENDROOT
BRANCH  10   7
ATOM      4  C   UNL     1      -3.094  -1.741  24.458  0.00  0.00    +0.132 A 
ATOM      5  C   UNL     1      -3.332  -0.952  24.450  0.00  0.00    +0.034 A 
ATOM      6  C   UNL     1      -2.773  -0.351  24.537  0.00  0.00    +0.008 A 
ATOM      7  C   UNL     1      -1.977  -0.540  24.633  0.00  0.00    +0.058 A 
ATOM      8  C   UNL     1      -1.737  -1.330  24.642  0.00  0.00    +0.103 A 
ATOM      9  N   UNL     1      -2.296  -1.930  24.554  0.00  0.00    -0.229 NA
BRANCH   4   2
ATOM      1  C   UNL     1      -4.291  -2.240  23.858  0.00  0.00    +0.114 C 
ATOM      2  N   UNL     1      -3.653  -2.342  24.371  0.00  0.00    -0.290 N 
ATOM      3  C   UNL     1      -3.574  -3.043  24.797  0.00  0.00    +0.114 C 
ENDBRANCH   4   2
ENDBRANCH  10   7
BRANCH  13  15
ATOM     15  C   UNL     1      -0.470   1.695  25.714  0.00  0.00    +0.138 C 
ATOM     16  C   UNL     1       0.005   1.606  26.384  0.00  0.00    +0.027 C 
ATOM     17  C   UNL     1       0.124   2.353  26.713  0.00  0.00    +0.019 C 
ATOM     18  C   UNL     1      -0.277   2.904  26.247  0.00  0.00    +0.073 C 
ATOM     19  N   UNL     1      -0.644   2.497  25.630  0.00  0.00    -0.263 NA
BRANCH  19  20
ATOM     20  C   UNL     1      -1.104   2.833  25.033  0.00  0.00    +0.099 C 
BRANCH  20  21
ATOM     21  C   UNL     1      -1.270   3.640  25.046  0.00  0.00    -0.006 A 
ATOM     22  C   UNL     1      -0.733   4.178  24.727  0.00  0.00    -0.003 A 
ATOM     23  C   UNL     1      -0.900   4.986  24.740  0.00  0.00    -0.005 A 
ATOM     24  C   UNL     1      -1.605   5.256  25.073  0.00  0.00    -0.022 A 
ATOM     25  C   UNL     1      -1.772   6.064  25.086  0.00  0.00    +0.031 C 
ATOM     26  C   UNL     1      -2.142   4.718  25.392  0.00  0.00    -0.005 A 
ATOM     27  C   UNL     1      -1.976   3.911  25.379  0.00  0.00    -0.003 A 
ENDBRANCH  20  21
ENDBRANCH  19  20
ENDBRANCH  13  15
TORSDOF 5
ENDMDL
MODEL 5
REMARK VINA RESULT:      -9.4      2.763      3.944
REMARK  Name = 
REMARK  5 active torsions:
REMARK  status: ('A' for Active; 'I' for Inactive)
REMARK    1  A    between atoms: N_2  and  C_4
REMARK    2  A    between atoms: C_7  and  C_10
REMARK    3  A    between atoms: C_13  and  C_15
REMARK    4  A    between atoms: N_19  and  C_20
REMARK    5  A    between atoms: C_20  and  C_21
REMARK                            x       y       z     vdW  Elec       q    Type
REMARK                         _______ _______ _______ _____ _____    ______ ____
ROOT
ATOM     10  C   UNL     1      -0.970   0.096  24.569  0.00  0.00    +0.205 A 
ATOM     11  N   UNL     1      -0.960   0.172  25.391  0.00  0.00    -0.056 NA
ATOM     12  O   UNL     1      -1.742   0.167  25.657  0.00  0.00    -0.336 OA
ATOM     13  C   UNL     1      -2.234   0.088  25.000  0.00  0.00    +0.251 A 
ATOM     14  N   UNL     1      -1.757   0.044  24.327  0.00  0.00    -0.190 NA
ENDROOT
BRANCH  10   7
ATOM      4  C   UNL     1       1.013   0.034  23.090  0.00  0.00    +0.132 A 
ATOM      5  C   UNL     1       0.692   0.758  23.320  0.00  0.00    +0.034 A 
ATOM      6  C   UNL     1       0.031   0.778  23.813  0.00  0.00    +0.008 A 
ATOM      7  C   UNL     1      -0.309   0.075  24.076  0.00  0.00    +0.058 A 
ATOM      8  C   UNL     1       0.011  -0.650  23.846  0.00  0.00    +0.103 A 
ATOM      9  N   UNL     1       0.672  -0.671  23.353  0.00  0.00    -0.229 NA
BRANCH   4   2
ATOM      1  C   UNL     1       2.389   0.338  22.852  0.00  0.00    +0.114 C 
ATOM      2  N   UNL     1       1.674   0.013  22.597  0.00  0.00    -0.290 N 
ATOM      3  C   UNL     1       1.621  -0.332  21.850  0.00  0.00    +0.114 C 
ENDBRANCH   4   2
ENDBRANCH  10   7
BRANCH  13  15
ATOM     15  C   UNL     1      -3.058   0.059  25.012  0.00  0.00    +0.138 C 
ATOM     16  C   UNL     1      -3.517  -0.615  25.140  0.00  0.00    +0.027 C 
ATOM     17  C   UNL     1      -4.311  -0.394  25.106  0.00  0.00    +0.019 C 
ATOM     18  C   UNL     1      -4.343   0.418  24.956  0.00  0.00    +0.073 C 
ATOM     19  N   UNL     1      -3.568   0.697  24.899  0.00  0.00    -0.263 NA
BRANCH  19  20
ATOM     20  C   UNL     1      -3.344   1.477  24.753  0.00  0.00    +0.099 C 
BRANCH  20  21
ATOM     21  C   UNL     1      -3.871   2.093  24.905  0.00  0.00    -0.006 A 
ATOM     22  C   UNL     1      -4.475   2.261  24.370  0.00  0.00    -0.003 A 
ATOM     23  C   UNL     1      -5.002   2.878  24.522  0.00  0.00    -0.005 A 
ATOM     24  C   UNL     1      -4.924   3.326  25.210  0.00  0.00    -0.022 A 
ATOM     25  C   UNL     1      -5.451   3.943  25.363  0.00  0.00    +0.031 C 
ATOM     26  C   UNL     1      -4.320   3.158  25.746  0.00  0.00    -0.005 A 
ATOM     27  C   UNL     1      -3.793   2.542  25.594  0.00  0.00    -0.003 A 
ENDBRANCH  20  21
ENDBRANCH  19  20
ENDBRANCH  13  15
TORSDOF 5
ENDMDL
MODEL 6
REMARK VINA RESULT:      -9.4      2.949      4.200
REMARK  Name = 
REMARK  5 active torsions:
REMARK  status: ('A' for Active; 'I' for Inactive)
REMARK    1  A    between atoms: N_2  and  C_4
REMARK    2  A    between atoms: C_7  and  C_10
REMARK    3  A    between atoms: C_13  and  C_15
REMARK    4  A    between atoms: N_19  and  C_20
REMARK    5  A    between atoms: C_20  and  C_21
REMARK                            x       y       z     vdW  Elec       q    Type
REMARK                         _______ _______ _______ _____ _____    ______ ____
ROOT
ATOM     10  C   UNL     1      -0.404   1.321  24.662  0.00  0.00    +0.205 A 
ATOM     11  N   UNL     1      -0.592   1.019  25.407  0.00  0.00    -0.056 NA
ATOM     12  O   UNL     1      -1.158   1.513  25.747  0.00  0.00    -0.336 OA
ATOM     13  C   UNL     1      -1.320   2.121  25.213  0.00  0.00    +0.251 A 
ATOM     14  N   UNL     1      -0.853   2.002  24.542  0.00  0.00    -0.190 NA
ENDROOT
BRANCH  10   7
ATOM      4  C   UNL     1       1.224   0.354  23.068  0.00  0.00    +0.132 A 
ATOM      5  C   UNL     1       0.527  -0.051  23.243  0.00  0.00    +0.034 A 
ATOM      6  C   UNL     1      -0.015   0.272  23.775  0.00  0.00    +0.008 A 
ATOM      7  C   UNL     1       0.139   0.999  24.131  0.00  0.00    +0.058 A 
ATOM      8  C   UNL     1       0.836   1.405  23.956  0.00  0.00    +0.103 A 
ATOM      9  N   UNL     1       1.378   1.083  23.425  0.00  0.00    -0.229 NA
BRANCH   4   2
ATOM      1  C   UNL     1       1.499  -0.370  21.868  0.00  0.00    +0.114 C 
ATOM      2  N   UNL     1       1.767   0.032  22.537  0.00  0.00    -0.290 N 
ATOM      3  C   UNL     1       2.576   0.111  22.675  0.00  0.00    +0.114 C 
ENDBRANCH   4   2
ENDBRANCH  10   7
BRANCH  13  15
ATOM     15  C   UNL     1      -1.853   2.739  25.329  0.00  0.00    +0.138 C 
ATOM     16  C   UNL     1      -1.691   3.456  25.704  0.00  0.00    +0.027 C 
ATOM     17  C   UNL     1      -2.380   3.910  25.697  0.00  0.00    +0.019 C 
ATOM     18  C   UNL     1      -2.969   3.473  25.317  0.00  0.00    +0.073 C 
ATOM     19  N   UNL     1      -2.643   2.749  25.090  0.00  0.00    -0.263 NA
BRANCH  19  20
ATOM     20  C   UNL     1      -3.038   2.143  24.694  0.00  0.00    +0.099 C 
BRANCH  20  21
ATOM     21  C   UNL     1      -3.857   2.072  24.759  0.00  0.00    -0.006 A 
ATOM     22  C   UNL     1      -4.183   1.527  25.285  0.00  0.00    -0.003 A 
ATOM     23  C   UNL     1      -5.003   1.455  25.351  0.00  0.00    -0.005 A 
ATOM     24  C   UNL     1      -5.495   1.930  24.890  0.00  0.00    -0.022 A 
ATOM     25  C   UNL     1      -6.315   1.859  24.956  0.00  0.00    +0.031 C 
ATOM     26  C   UNL     1      -5.169   2.476  24.364  0.00  0.00    -0.005 A 
ATOM     27  C   UNL     1      -4.350   2.547  24.299  0.00  0.00    -0.003 A 
ENDBRANCH  20  21
ENDBRANCH  19  20
ENDBRANCH  13  15
TORSDOF 5
ENDMDL
MODEL 7
REMARK VINA RESULT:      -9.1      1.955      3.135
REMARK  Name = 
REMARK  5 active torsions:
REMARK  status: ('A' for Active; 'I' for Inactive)
REMARK    1  A    between atoms: N_2  and  C_4
REMARK    2  A    between atoms: C_7  and  C_10
REMARK    3  A    between atoms: C_13  and  C_15
REMARK    4  A    between atoms: N_19  and  C_20
REMARK    5  A    between atoms: C_20  and  C_21
REMARK                            x       y       z     vdW  Elec       q    Type
REMARK                         _______ _______ _______ _____ _____    ______ ____
ROOT
ATOM     10  C   UNL     1      -1.110   1.270  24.442  0.00  0.00    +0.205 A 
ATOM     11  N   UNL     1      -0.898   1.676  23.755  0.00  0.00    -0.056 NA
ATOM     12  O   UNL     1      -1.104   2.469  23.854  0.00  0.00    -0.336 OA
ATOM     13  C   UNL     1      -1.444   2.553  24.601  0.00  0.00    +0.251 A 
ATOM     14  N   UNL     1      -1.448   1.812  24.964  0.00  0.00    -0.190 NA
ENDROOT
BRANCH  10   7
ATOM      4  C   UNL     1      -0.791  -1.149  24.859  0.00  0.00    +0.132 A 
ATOM      5  C   UNL     1      -1.382  -0.735  25.259  0.00  0.00    +0.034 A 
ATOM      6  C   UNL     1      -1.488   0.071  25.120  0.00  0.00    +0.008 A 
ATOM      7  C   UNL     1      -1.004   0.464  24.581  0.00  0.00    +0.058 A 
ATOM      8  C   UNL     1      -0.412   0.051  24.180  0.00  0.00    +0.103 A 
ATOM      9  N   UNL     1      -0.306  -0.755  24.319  0.00  0.00    -0.229 NA
BRANCH   4   2
ATOM      1  C   UNL     1      -0.016  -2.218  25.405  0.00  0.00    +0.114 C 
ATOM      2  N   UNL     1      -0.684  -1.955  24.998  0.00  0.00    -0.290 N 
ATOM      3  C   UNL     1      -1.245  -2.497  24.731  0.00  0.00    +0.114 C 
ENDBRANCH   4   2
ENDBRANCH  10   7
BRANCH  13  15
ATOM     15  C   UNL     1      -1.730   3.254  24.928  0.00  0.00    +0.138 C 
ATOM     16  C   UNL     1      -1.292   3.798  25.368  0.00  0.00    +0.027 C 
ATOM     17  C   UNL     1      -1.794   4.415  25.584  0.00  0.00    +0.019 C 
ATOM     18  C   UNL     1      -2.544   4.253  25.278  0.00  0.00    +0.073 C 
ATOM     19  N   UNL     1      -2.504   3.535  24.872  0.00  0.00    -0.263 NA
BRANCH  19  20
ATOM     20  C   UNL     1      -3.127   3.165  24.480  0.00  0.00    +0.099 C 
BRANCH  20  21
ATOM     21  C   UNL     1      -3.884   3.173  24.809  0.00  0.00    -0.006 A 
ATOM     22  C   UNL     1      -4.310   3.878  24.845  0.00  0.00    -0.003 A 
ATOM     23  C   UNL     1      -5.067   3.886  25.174  0.00  0.00    -0.005 A 
ATOM     24  C   UNL     1      -5.397   3.188  25.465  0.00  0.00    -0.022 A 
ATOM     25  C   UNL     1      -6.155   3.196  25.794  0.00  0.00    +0.031 C 
ATOM     26  C   UNL     1      -4.971   2.483  25.428  0.00  0.00    -0.005 A 
ATOM     27  C   UNL     1      -4.215   2.475  25.100  0.00  0.00    -0.003 A 
ENDBRANCH  20  21
ENDBRANCH  19  20
ENDBRANCH  13  15
TORSDOF 5
ENDMDL
