MODEL 1
REMARK VINA RESULT:     -17.4      0.000      0.000
REMARK  Name = 
REMARK  3 active torsions:
REMARK  status: ('A' for Active; 'I' for Inactive)
REMARK    1  A    between atoms: N_9  and  S_11
REMARK    2  A    between atoms: S_11  and  C_14
REMARK    3  A    between atoms: C_23  and  C_24
REMARK                            x       y       z     vdW  Elec       q    Type
REMARK                         _______ _______ _______ _____ _____    ______ ____
ROOT
ATOM      1  O   UNL     1      -3.249   1.039  24.215  0.00  0.00    -0.267 OA
ATOM      2  C   UNL     1      -3.940   1.244  24.617  0.00  0.00    +0.261 A 
ATOM      3  N   UNL     1      -4.140   2.038  24.714  0.00  0.00    -0.299 N 
ATOM      4  C   UNL     1      -4.773   1.648  25.096  0.00  0.00    +0.110 C 
ATOM      5  C   UNL     1      -5.300   2.432  25.387  0.00  0.00    +0.041 C 
ATOM      6  C   UNL     1      -5.839   2.961  25.691  0.00  0.00    +0.011 C 
ATOM      7  C   UNL     1      -5.235   2.983  25.335  0.00  0.00    +0.056 C 
ATOM      8  C   UNL     1      -4.636   3.576  24.968  0.00  0.00    +0.102 C 
ATOM      9  N   UNL     1      -4.100   3.046  24.666  0.00  0.00    -0.155 NA
ATOM     10  C   UNL     1      -4.669   3.043  25.000  0.00  0.00    +0.098 C 
ATOM     20  C   UNL     1      -4.830   2.243  25.115  0.00  0.00    +0.041 A 
ATOM     21  C   UNL     1      -5.321   1.654  25.419  0.00  0.00    +0.013 A 
ATOM     22  C   UNL     1      -5.122   0.861  25.322  0.00  0.00    +0.006 A 
ATOM     23  C   UNL     1      -4.431   0.655  24.920  0.00  0.00    +0.062 A 
ENDROOT
BRANCH  23  24
ATOM     24  C   UNL     1      -4.231  -0.140  24.823  0.00  0.00    +0.034 A 
ATOM     25  C   UNL     1      -4.423  -0.612  24.175  0.00  0.00    +0.007 A 
ATOM     26  C   UNL     1      -4.115  -1.366  24.308  0.00  0.00    +0.006 A 
ATOM     27  C   UNL     1      -3.732  -1.359  25.039  0.00  0.00    +0.029 A 
ATOM     28  S   UNL     1      -3.804  -0.601  25.357  0.00  0.00    -0.087 S 
ATOM     29  C   UNL     1      -3.368  -2.043  25.319  0.00  0.00    +0.006 A 
ATOM     30  C   UNL     1      -3.386  -2.735  24.869  0.00  0.00    +0.001 A 
ATOM     31  C   UNL     1      -3.768  -2.742  24.139  0.00  0.00    +0.000 A 
ATOM     32  C   UNL     1      -4.133  -2.057  23.858  0.00  0.00    +0.001 A 
ENDBRANCH  23  24
BRANCH   9  11
ATOM     11  S   UNL     1      -3.431   2.759  24.279  0.00  0.00    +0.063 S 
ATOM     12  O   UNL     1      -3.013   2.775  24.990  0.00  0.00    -0.153 OA
ATOM     13  O   UNL     1      -3.849   2.744  23.567  0.00  0.00    -0.153 OA
BRANCH  11  14
ATOM     14  C   UNL     1      -2.761   2.472  23.891  0.00  0.00    +0.122 A 
ATOM     15  C   UNL     1      -2.797   2.287  23.089  0.00  0.00    +0.020 A 
ATOM     16  C   UNL     1      -2.126   2.000  22.701  0.00  0.00    +0.001 A 
ATOM     17  C   UNL     1      -1.421   1.899  23.117  0.00  0.00    +0.000 A 
ATOM     18  C   UNL     1      -1.386   2.085  23.920  0.00  0.00    +0.001 A 
ATOM     19  C   UNL     1      -2.056   2.371  24.308  0.00  0.00    +0.020 A 
ENDBRANCH  11  14
ENDBRANCH   9  11
TORSDOF 3
ENDMDL
MODEL 2
REMARK VINA RESULT:     -15.8      1.712      4.026
REMARK  Name = 
REMARK  3 active torsions:
REMARK  status: ('A' for Active; 'I' for Inactive)
REMARK    1  A    between atoms: N_9  and  S_11
REMARK    2  A    between atoms: S_11  and  C_14
REMARK    3  A    between atoms: C_23  and  C_24
REMARK                            x       y       z     vdW  Elec       q    Type
REMARK                         _______ _______ _______ _____ _____    ______ ____
ROOT
ATOM      1  O   UNL     1      -2.603   0.463  24.908  0.00  0.00    -0.267 OA
ATOM      2  C   UNL     1      -3.111  -0.164  24.737  0.00  0.00    +0.261 A 
ATOM      3  N   UNL     1      -2.811  -0.929  24.656  0.00  0.00    -0.299 N 
ATOM      4  C   UNL     1      -3.628  -1.044  24.525  0.00  0.00    +0.110 C 
ATOM      5  C   UNL     1      -3.635  -2.019  24.367  0.00  0.00    +0.041 C 
ATOM      6  C   UNL     1      -3.807  -2.801  24.218  0.00  0.00    +0.011 C 
ATOM      7  C   UNL     1      -3.240  -2.413  24.358  0.00  0.00    +0.056 C 
ATOM      8  C   UNL     1      -2.330  -2.481  24.473  0.00  0.00    +0.102 C 
ATOM      9  N   UNL     1      -2.162  -1.700  24.621  0.00  0.00    -0.155 NA
ATOM     10  C   UNL     1      -2.684  -2.080  24.488  0.00  0.00    +0.098 C 
ATOM     20  C   UNL     1      -3.319  -1.555  24.485  0.00  0.00    +0.041 A 
ATOM     21  C   UNL     1      -4.127  -1.418  24.396  0.00  0.00    +0.013 A 
ATOM     22  C   UNL     1      -4.428  -0.654  24.477  0.00  0.00    +0.006 A 
ATOM     23  C   UNL     1      -3.920  -0.027  24.648  0.00  0.00    +0.062 A 
ENDROOT
BRANCH  23  24
ATOM     24  C   UNL     1      -4.220   0.737  24.729  0.00  0.00    +0.034 A 
ATOM     25  C   UNL     1      -4.067   1.374  24.228  0.00  0.00    +0.007 A 
ATOM     26  C   UNL     1      -4.478   2.029  24.515  0.00  0.00    +0.006 A 
ATOM     27  C   UNL     1      -4.886   1.797  25.194  0.00  0.00    +0.029 A 
ATOM     28  S   UNL     1      -4.726   0.998  25.326  0.00  0.00    -0.087 S 
ATOM     29  C   UNL     1      -5.350   2.342  25.603  0.00  0.00    +0.006 A 
ATOM     30  C   UNL     1      -5.406   3.120  25.334  0.00  0.00    +0.001 A 
ATOM     31  C   UNL     1      -4.998   3.353  24.656  0.00  0.00    +0.000 A 
ATOM     32  C   UNL     1      -4.534   2.807  24.247  0.00  0.00    +0.001 A 
ENDBRANCH  23  24
BRANCH   9  11
ATOM     11  S   UNL     1      -1.723  -1.024  24.790  0.00  0.00    +0.063 S 
ATOM     12  O   UNL     1      -1.844  -1.145  25.597  0.00  0.00    -0.153 OA
ATOM     13  O   UNL     1      -1.600  -0.901  23.983  0.00  0.00    -0.153 OA
BRANCH  11  14
ATOM     14  C   UNL     1      -1.283  -0.346  24.959  0.00  0.00    +0.122 A 
ATOM     15  C   UNL     1      -1.192  -0.097  25.740  0.00  0.00    +0.020 A 
ATOM     16  C   UNL     1      -0.752   0.581  25.909  0.00  0.00    +0.001 A 
ATOM     17  C   UNL     1      -0.404   1.009  25.296  0.00  0.00    +0.000 A 
ATOM     18  C   UNL     1      -0.494   0.760  24.515  0.00  0.00    +0.001 A 
ATOM     19  C   UNL     1      -0.934   0.082  24.346  0.00  0.00    +0.020 A 
ENDBRANCH  11  14
ENDBRANCH   9  11
TORSDOF 3
ENDMDL
MODEL 3
REMARK VINA RESULT:     -15.4      0.985      2.523
REMARK  Name = 
REMARK  3 active torsions:
REMARK  status: ('A' for Active; 'I' for Inactive)
REMARK    1  A    between atoms: N_9  and  S_11
REMARK    2  A    between atoms: S_11  and  C_14
REMARK    3  A    between atoms: C_23  and  C_24
REMARK                            x       y       z     vdW  Elec       q    Type
REMARK                         _______ _______ _______ _____ _____    ______ ____
ROOT
ATOM      1  O   UNL     1      -4.287   1.211  24.986  0.00  0.00    -0.267 OA
ATOM      2  C   UNL     1      -3.507   1.451  24.862  0.00  0.00    +0.261 A 
ATOM      3  N   UNL     1      -3.314   2.253  24.889  0.00  0.00    -0.299 N 
ATOM      4  C   UNL     1      -2.576   1.898  24.727  0.00  0.00    +0.110 C 
ATOM      5  C   UNL     1      -2.008   2.706  24.685  0.00  0.00    +0.041 C 
ATOM      6  C   UNL     1      -1.416   3.261  24.620  0.00  0.00    +0.011 C 
ATOM      7  C   UNL     1      -2.107   3.251  24.745  0.00  0.00    +0.056 C 
ATOM      8  C   UNL     1      -2.816   3.810  24.918  0.00  0.00    +0.102 C 
ATOM      9  N   UNL     1      -3.404   3.254  24.982  0.00  0.00    -0.155 NA
ATOM     10  C   UNL     1      -2.755   3.281  24.866  0.00  0.00    +0.098 C 
ATOM     20  C   UNL     1      -2.536   2.493  24.765  0.00  0.00    +0.041 A 
ATOM     21  C   UNL     1      -1.950   1.933  24.615  0.00  0.00    +0.013 A 
ATOM     22  C   UNL     1      -2.142   1.132  24.589  0.00  0.00    +0.006 A 
ATOM     23  C   UNL     1      -2.921   0.891  24.712  0.00  0.00    +0.062 A 
ENDROOT
BRANCH  23  24
ATOM     24  C   UNL     1      -3.115   0.089  24.686  0.00  0.00    +0.034 A 
ATOM     25  C   UNL     1      -3.504  -0.296  24.069  0.00  0.00    +0.007 A 
ATOM     26  C   UNL     1      -3.582  -1.092  24.273  0.00  0.00    +0.006 A 
ATOM     27  C   UNL     1      -3.242  -1.198  25.018  0.00  0.00    +0.029 A 
ATOM     28  S   UNL     1      -2.953  -0.468  25.272  0.00  0.00    -0.087 S 
ATOM     29  C   UNL     1      -3.239  -1.945  25.366  0.00  0.00    +0.006 A 
ATOM     30  C   UNL     1      -3.577  -2.587  24.971  0.00  0.00    +0.001 A 
ATOM     31  C   UNL     1      -3.917  -2.480  24.228  0.00  0.00    +0.000 A 
ATOM     32  C   UNL     1      -3.919  -1.732  23.879  0.00  0.00    +0.001 A 
ENDBRANCH  23  24
BRANCH   9  11
ATOM     11  S   UNL     1      -4.155   2.933  25.094  0.00  0.00    +0.063 S 
ATOM     12  O   UNL     1      -4.300   2.986  24.284  0.00  0.00    -0.153 OA
ATOM     13  O   UNL     1      -4.011   2.880  25.905  0.00  0.00    -0.153 OA
BRANCH  11  14
ATOM     14  C   UNL     1      -4.907   2.612  25.207  0.00  0.00    +0.122 A 
ATOM     15  C   UNL     1      -5.388   2.449  24.558  0.00  0.00    +0.020 A 
ATOM     16  C   UNL     1      -6.140   2.128  24.670  0.00  0.00    +0.001 A 
ATOM     17  C   UNL     1      -6.410   1.971  25.434  0.00  0.00    +0.000 A 
ATOM     18  C   UNL     1      -5.930   2.134  26.084  0.00  0.00    +0.001 A 
ATOM     19  C   UNL     1      -5.177   2.455  25.971  0.00  0.00    +0.020 A 
ENDBRANCH  11  14
ENDBRANCH   9  11
TORSDOF 3
ENDMDL
MODEL 4
REMARK VINA RESULT:     -15.3      1.646      2.050
REMARK  Name = 
REMARK  3 active torsions:
REMARK  status: ('A' for Active; 'I' for Inactive)
REMARK    1  A    between atoms: N_9  and  S_11
REMARK    2  A    between atoms: S_11  and  C_14
REMARK    3  A    between atoms: C_23  and  C_24
REMARK                            x       y       z     vdW  Elec       q    Type
REMARK                         _______ _______ _______ _____ _____    ______ ____
ROOT
ATOM      1  O   UNL     1      -2.702   2.155  25.133  0.00  0.00    -0.267 OA
ATOM      2  C   UNL     1      -3.449   1.810  25.071  0.00  0.00    +0.261 A 
ATOM      3  N   UNL     1      -4.125   2.282  25.101  0.00  0.00    -0.299 N 
ATOM      4  C   UNL     1      -4.447   1.517  25.006  0.00  0.00    +0.110 C 
ATOM      5  C   UNL     1      -5.409   1.743  25.000  0.00  0.00    +0.041 C 
ATOM      6  C   UNL     1      -6.223   1.761  24.976  0.00  0.00    +0.011 C 
ATOM      7  C   UNL     1      -5.696   2.219  25.044  0.00  0.00    +0.056 C 
ATOM      8  C   UNL     1      -5.530   3.117  25.149  0.00  0.00    +0.102 C 
ATOM      9  N   UNL     1      -4.719   3.095  25.172  0.00  0.00    -0.155 NA
ATOM     10  C   UNL     1      -5.226   2.679  25.110  0.00  0.00    +0.098 C 
ATOM     20  C   UNL     1      -4.871   1.938  25.039  0.00  0.00    +0.041 A 
ATOM     21  C   UNL     1      -4.943   1.122  24.947  0.00  0.00    +0.013 A 
ATOM     22  C   UNL     1      -4.268   0.650  24.916  0.00  0.00    +0.006 A 
ATOM     23  C   UNL     1      -3.521   0.994  24.978  0.00  0.00    +0.062 A 
ENDROOT
BRANCH  23  24
ATOM     24  C   UNL     1      -2.845   0.521  24.948  0.00  0.00    +0.034 A 
ATOM     25  C   UNL     1      -2.475   0.161  25.591  0.00  0.00    +0.007 A 
ATOM     26  C   UNL     1      -1.822  -0.257  25.309  0.00  0.00    +0.006 A 
ATOM     27  C   UNL     1      -1.787  -0.154  24.491  0.00  0.00    +0.029 A 
ATOM     28  S   UNL     1      -2.420   0.327  24.268  0.00  0.00    -0.087 S 
ATOM     29  C   UNL     1      -1.185  -0.512  24.056  0.00  0.00    +0.006 A 
ATOM     30  C   UNL     1      -0.617  -0.972  24.439  0.00  0.00    +0.001 A 
ATOM     31  C   UNL     1      -0.651  -1.075  25.256  0.00  0.00    +0.000 A 
ATOM     32  C   UNL     1      -1.254  -0.717  25.691  0.00  0.00    +0.001 A 
ENDBRANCH  23  24
BRANCH   9  11
ATOM     11  S   UNL     1      -3.940   3.361  25.227  0.00  0.00    +0.063 S 
ATOM     12  O   UNL     1      -3.911   3.446  24.407  0.00  0.00    -0.153 OA
ATOM     13  O   UNL     1      -3.969   3.276  26.047  0.00  0.00    -0.153 OA
BRANCH  11  14
ATOM     14  C   UNL     1      -3.161   3.626  25.282  0.00  0.00    +0.122 A 
ATOM     15  C   UNL     1      -2.745   3.828  24.599  0.00  0.00    +0.020 A 
ATOM     16  C   UNL     1      -1.965   4.093  24.654  0.00  0.00    +0.001 A 
ATOM     17  C   UNL     1      -1.603   4.157  25.393  0.00  0.00    +0.000 A 
ATOM     18  C   UNL     1      -2.019   3.956  26.075  0.00  0.00    +0.001 A 
ATOM     19  C   UNL     1      -2.798   3.690  26.020  0.00  0.00    +0.020 A 
ENDBRANCH  11  14
ENDBRANCH   9  11
TORSDOF 3
ENDMDL
MODEL 5
REMARK VINA RESULT:     -15.3      1.960      3.299
REMARK  Name = 
REMARK  3 active torsions:
REMARK  status: ('A' for Active; 'I' for Inactive)
REMARK    1  A    between atoms: N_9  and  S_11
REMARK    2  A    between atoms: S_11  and  C_14
REMARK    3  A    between atoms: C_23  and  C_24
REMARK                            x       y       z     vdW  Elec       q    Type
REMARK                         _______ _______ _______ _____ _____    ______ ____
ROOT
ATOM      1  O   UNL     1      -2.747   2.027  24.956  0.00  0.00    -0.267 OA
ATOM      2  C   UNL     1      -2.096   2.532  25.019  0.00  0.00    +0.261 A 
ATOM      3  N   UNL     1      -2.209   3.349  25.035  0.00  0.00    -0.299 N 
ATOM      4  C   UNL     1      -1.378   3.283  25.094  0.00  0.00    +0.110 C 
ATOM      5  C   UNL     1      -1.139   4.240  25.139  0.00  0.00    +0.041 C 
ATOM      6  C   UNL     1      -0.782   4.971  25.187  0.00  0.00    +0.011 C 
ATOM      7  C   UNL     1      -1.433   4.714  25.132  0.00  0.00    +0.056 C 
ATOM      8  C   UNL     1      -2.311   4.980  25.075  0.00  0.00    +0.102 C 
ATOM      9  N   UNL     1      -2.663   4.250  25.028  0.00  0.00    -0.155 NA
ATOM     10  C   UNL     1      -2.059   4.509  25.080  0.00  0.00    +0.098 C 
ATOM     20  C   UNL     1      -1.560   3.853  25.097  0.00  0.00    +0.041 A 
ATOM     21  C   UNL     1      -0.798   3.540  25.144  0.00  0.00    +0.013 A 
ATOM     22  C   UNL     1      -0.685   2.724  25.128  0.00  0.00    +0.006 A 
ATOM     23  C   UNL     1      -1.335   2.219  25.066  0.00  0.00    +0.062 A 
ENDROOT
BRANCH  23  24
ATOM     24  C   UNL     1      -1.222   1.402  25.050  0.00  0.00    +0.034 A 
ATOM     25  C   UNL     1      -1.316   0.887  25.687  0.00  0.00    +0.007 A 
ATOM     26  C   UNL     1      -1.148   0.123  25.425  0.00  0.00    +0.006 A 
ATOM     27  C   UNL     1      -0.951   0.165  24.625  0.00  0.00    +0.029 A 
ATOM     28  S   UNL     1      -0.997   0.956  24.393  0.00  0.00    -0.087 S 
ATOM     29  C   UNL     1      -0.755  -0.520  24.212  0.00  0.00    +0.006 A 
ATOM     30  C   UNL     1      -0.756  -1.250  24.598  0.00  0.00    +0.001 A 
ATOM     31  C   UNL     1      -0.953  -1.293  25.397  0.00  0.00    +0.000 A 
ATOM     32  C   UNL     1      -1.149  -0.606  25.811  0.00  0.00    +0.001 A 
ENDBRANCH  23  24
BRANCH   9  11
ATOM     11  S   UNL     1      -3.256   3.681  24.968  0.00  0.00    +0.063 S 
ATOM     12  O   UNL     1      -3.314   3.654  25.790  0.00  0.00    -0.153 OA
ATOM     13  O   UNL     1      -3.199   3.708  24.145  0.00  0.00    -0.153 OA
BRANCH  11  14
ATOM     14  C   UNL     1      -3.851   3.112  24.907  0.00  0.00    +0.122 A 
ATOM     15  C   UNL     1      -4.068   2.820  24.167  0.00  0.00    +0.020 A 
ATOM     16  C   UNL     1      -4.663   2.250  24.107  0.00  0.00    +0.001 A 
ATOM     17  C   UNL     1      -5.039   1.973  24.787  0.00  0.00    +0.000 A 
ATOM     18  C   UNL     1      -4.821   2.265  25.527  0.00  0.00    +0.001 A 
ATOM     19  C   UNL     1      -4.227   2.835  25.587  0.00  0.00    +0.020 A 
ENDBRANCH  11  14
ENDBRANCH   9  11
TORSDOF 3
ENDMDL
MODEL 6
REMARK VINA RESULT:     -14.9      1.158      3.440
REMARK  Name = 
REMARK  3 active torsions:
REMARK  status: ('A' for Active; 'I' for Inactive)
REMARK    1  A    between atoms: N_9  and  S_11
REMARK    2  A    between atoms: S_11  and  C_14
REMARK    3  A    between atoms: C_23  and  C_24
REMARK                            x       y       z     vdW  Elec       q    Type
REMARK                         _______ _______ _______ _____ _____    ______ ____
ROOT
ATOM      1  O   UNL     1      -3.106   0.980  24.867  0.00  0.00    -0.267 OA
ATOM      2  C   UNL     1      -3.484   1.704  24.992  0.00  0.00    +0.261 A 
ATOM      3  N   UNL     1      -4.306   1.734  25.059  0.00  0.00    -0.299 N 
ATOM      4  C   UNL     1      -4.090   2.536  25.150  0.00  0.00    +0.110 C 
ATOM      5  C   UNL     1      -4.986   2.935  25.272  0.00  0.00    +0.041 C 
ATOM      6  C   UNL     1      -5.638   3.410  25.385  0.00  0.00    +0.011 C 
ATOM      7  C   UNL     1      -5.504   2.728  25.283  0.00  0.00    +0.056 C 
ATOM      8  C   UNL     1      -5.924   1.915  25.206  0.00  0.00    +0.102 C 
ATOM      9  N   UNL     1      -5.272   1.444  25.094  0.00  0.00    -0.155 NA
ATOM     10  C   UNL     1      -5.416   2.080  25.190  0.00  0.00    +0.098 C 
ATOM     20  C   UNL     1      -4.682   2.456  25.184  0.00  0.00    +0.041 A 
ATOM     21  C   UNL     1      -4.238   3.148  25.243  0.00  0.00    +0.013 A 
ATOM     22  C   UNL     1      -3.417   3.119  25.177  0.00  0.00    +0.006 A 
ATOM     23  C   UNL     1      -3.040   2.396  25.051  0.00  0.00    +0.062 A 
ENDROOT
BRANCH  23  24
ATOM     24  C   UNL     1      -2.218   2.366  24.985  0.00  0.00    +0.034 A 
ATOM     25  C   UNL     1      -1.685   2.240  25.602  0.00  0.00    +0.007 A 
ATOM     26  C   UNL     1      -0.922   2.252  25.288  0.00  0.00    +0.006 A 
ATOM     27  C   UNL     1      -0.983   2.386  24.476  0.00  0.00    +0.029 A 
ATOM     28  S   UNL     1      -1.784   2.456  24.289  0.00  0.00    -0.087 S 
ATOM     29  C   UNL     1      -0.303   2.427  24.013  0.00  0.00    +0.006 A 
ATOM     30  C   UNL     1       0.440   2.334  24.361  0.00  0.00    +0.001 A 
ATOM     31  C   UNL     1       0.501   2.200  25.172  0.00  0.00    +0.000 A 
ATOM     32  C   UNL     1      -0.181   2.159  25.636  0.00  0.00    +0.001 A 
ENDBRANCH  23  24
BRANCH   9  11
ATOM     11  S   UNL     1      -4.821   0.765  24.969  0.00  0.00    +0.063 S 
ATOM     12  O   UNL     1      -4.863   0.887  24.154  0.00  0.00    -0.153 OA
ATOM     13  O   UNL     1      -4.779   0.643  25.783  0.00  0.00    -0.153 OA
BRANCH  11  14
ATOM     14  C   UNL     1      -4.370   0.085  24.844  0.00  0.00    +0.122 A 
ATOM     15  C   UNL     1      -4.077  -0.339  25.487  0.00  0.00    +0.020 A 
ATOM     16  C   UNL     1      -3.626  -1.019  25.362  0.00  0.00    +0.001 A 
ATOM     17  C   UNL     1      -3.468  -1.273  24.593  0.00  0.00    +0.000 A 
ATOM     18  C   UNL     1      -3.761  -0.849  23.950  0.00  0.00    +0.001 A 
ATOM     19  C   UNL     1      -4.213  -0.169  24.075  0.00  0.00    +0.020 A 
ENDBRANCH  11  14
ENDBRANCH   9  11
TORSDOF 3
ENDMDL
MODEL 7
REMARK VINA RESULT:     -14.8      2.168      3.645
REMARK  Name = 
REMARK  3 active torsions:
REMARK  status: ('A' for Active; 'I' for Inactive)
REMARK    1  A    between atoms: N_9  and  S_11
REMARK    2  A    between atoms: S_11  and  C_14
REMARK    3  A    between atoms: C_23  and  C_24
REMARK                            x       y       z     vdW  Elec       q    Type
REMARK                         _______ _______ _______ _____ _____    ______ ____
ROOT
ATOM      1  O   UNL     1      -2.456   2.136  25.051  0.00  0.00    -0.267 OA
ATOM      2  C   UNL     1      -2.400   2.959  25.069  0.00  0.00    +0.261 A 
ATOM      3  N   UNL     1      -1.661   3.324  25.026  0.00  0.00    -0.299 N 
ATOM      4  C   UNL     1      -2.178   3.977  25.081  0.00  0.00    +0.110 C 
ATOM      5  C   UNL     1      -1.519   4.713  25.054  0.00  0.00    +0.041 C 
ATOM      6  C   UNL     1      -1.113   5.419  25.044  0.00  0.00    +0.011 C 
ATOM      7  C   UNL     1      -0.963   4.734  25.015  0.00  0.00    +0.056 C 
ATOM      8  C   UNL     1      -0.254   4.153  24.947  0.00  0.00    +0.102 C 
ATOM      9  N   UNL     1      -0.662   3.451  24.958  0.00  0.00    -0.155 NA
ATOM     10  C   UNL     1      -0.785   4.099  24.984  0.00  0.00    +0.098 C 
ATOM     20  C   UNL     1      -1.605   4.146  25.045  0.00  0.00    +0.041 A 
ATOM     21  C   UNL     1      -2.288   4.604  25.106  0.00  0.00    +0.013 A 
ATOM     22  C   UNL     1      -3.026   4.241  25.150  0.00  0.00    +0.006 A 
ATOM     23  C   UNL     1      -3.083   3.418  25.131  0.00  0.00    +0.062 A 
ENDROOT
BRANCH  23  24
ATOM     24  C   UNL     1      -3.822   3.054  25.174  0.00  0.00    +0.034 A 
ATOM     25  C   UNL     1      -4.200   2.650  24.563  0.00  0.00    +0.007 A 
ATOM     26  C   UNL     1      -4.925   2.376  24.847  0.00  0.00    +0.006 A 
ATOM     27  C   UNL     1      -4.994   2.610  25.635  0.00  0.00    +0.029 A 
ATOM     28  S   UNL     1      -4.312   3.029  25.837  0.00  0.00    -0.087 S 
ATOM     29  C   UNL     1      -5.668   2.412  26.066  0.00  0.00    +0.006 A 
ATOM     30  C   UNL     1      -6.274   1.979  25.710  0.00  0.00    +0.001 A 
ATOM     31  C   UNL     1      -6.205   1.745  24.923  0.00  0.00    +0.000 A 
ATOM     32  C   UNL     1      -5.530   1.943  24.491  0.00  0.00    +0.001 A 
ENDBRANCH  23  24
BRANCH   9  11
ATOM     11  S   UNL     1      -0.803   2.639  24.945  0.00  0.00    +0.063 S 
ATOM     12  O   UNL     1      -0.752   2.617  25.768  0.00  0.00    -0.153 OA
ATOM     13  O   UNL     1      -0.854   2.660  24.122  0.00  0.00    -0.153 OA
BRANCH  11  14
ATOM     14  C   UNL     1      -0.943   1.825  24.933  0.00  0.00    +0.122 A 
ATOM     15  C   UNL     1      -1.067   1.440  24.215  0.00  0.00    +0.020 A 
ATOM     16  C   UNL     1      -1.208   0.626  24.202  0.00  0.00    +0.001 A 
ATOM     17  C   UNL     1      -1.225   0.200  24.908  0.00  0.00    +0.000 A 
ATOM     18  C   UNL     1      -1.101   0.586  25.626  0.00  0.00    +0.001 A 
ATOM     19  C   UNL     1      -0.960   1.399  25.639  0.00  0.00    +0.020 A 
ENDBRANCH  11  14
ENDBRANCH   9  11
TORSDOF 3
ENDMDL
