MODEL 1
REMARK VINA RESULT:      -8.6      0.000      0.000
REMARK  Name = 
REMARK  6 active torsions:
REMARK  status: ('A' for Active; 'I' for Inactive)
REMARK    1  A    between atoms: O_2  and  C_3
REMARK    2  A    between atoms: C_5  and  S_6
REMARK    3  A    between atoms: C_10  and  C_11
REMARK    4  A    between atoms: N_13  and  C_14
REMARK    5  A    between atoms: N_22  and  C_25
REMARK    6  A    between atoms: C_27  and  C_31
REMARK                            x       y       z     vdW  Elec       q    Type
REMARK                         _______ _______ _______ _____ _____    ______ ____
ROOT
ATOM     14  C   UNL     1      -0.878   2.443  24.481  0.00  0.00    +0.099 C 
ATOM     15  C   UNL     1      -0.692   2.882  25.154  0.00  0.00    +0.043 C 
ATOM     16  C   UNL     1      -1.293   3.236  25.594  0.00  0.00    +0.097 C 
ATOM     17  N   UNL     1      -2.080   3.152  25.361  0.00  0.00    -0.257 N 
ATOM     18  C   UNL     1      -2.265   2.713  24.687  0.00  0.00    +0.156 C 
ATOM     19  C   UNL     1      -1.664   2.359  24.247  0.00  0.00    +0.051 C 
ATOM     20  C   UNL     1      -3.084   2.726  24.593  0.00  0.00    +0.254 C 
ATOM     21  O   UNL     1      -3.509   2.357  23.989  0.00  0.00    -0.272 OA
ATOM     22  N   UNL     1      -3.405   3.172  25.208  0.00  0.00    -0.191 N 
ATOM     23  C   UNL     1      -2.784   3.435  25.682  0.00  0.00    +0.317 C 
ATOM     24  O   UNL     1      -2.855   3.900  26.360  0.00  0.00    -0.252 OA
ENDROOT
BRANCH  22  25
ATOM     25  C   UNL     1      -4.207   3.328  25.327  0.00  0.00    +0.062 A 
ATOM     26  C   UNL     1      -4.701   2.739  25.628  0.00  0.00    +0.018 A 
ATOM     27  C   UNL     1      -5.503   2.895  25.747  0.00  0.00    +0.036 A 
ATOM     28  C   UNL     1      -5.809   3.640  25.566  0.00  0.00    +0.003 A 
ATOM     29  C   UNL     1      -5.316   4.227  25.265  0.00  0.00    +0.001 A 
ATOM     30  C   UNL     1      -4.514   4.071  25.146  0.00  0.00    +0.015 A 
BRANCH  27  31
ATOM     31  C   UNL     1      -5.996   2.307  26.048  0.00  0.00    +0.174 C 
ATOM     32  C   UNL     1      -6.312   1.735  25.544  0.00  0.00    +0.077 C 
ATOM     33  O   UNL     1      -6.175   2.291  26.853  0.00  0.00    -0.291 OA
ENDBRANCH  27  31
ENDBRANCH  22  25
BRANCH  14  13
ATOM     11  C   UNL     1       0.060   1.380  24.297  0.00  0.00    +0.268 C 
ATOM     12  O   UNL     1      -0.205   1.026  24.993  0.00  0.00    -0.268 OA
ATOM     13  N   UNL     1      -0.276   2.089  24.040  0.00  0.00    -0.203 NA
BRANCH  11  10
ATOM      3  C   UNL     1       0.567   0.256  23.574  0.00  0.00    +0.144 A 
ATOM      4  C   UNL     1       1.168  -0.097  23.134  0.00  0.00    +0.043 A 
ATOM      5  C   UNL     1       1.864   0.318  22.975  0.00  0.00    +0.028 A 
ATOM      8  C   UNL     1       1.957   1.087  23.257  0.00  0.00    +0.006 A 
ATOM      9  C   UNL     1       1.356   1.442  23.698  0.00  0.00    +0.008 A 
ATOM     10  C   UNL     1       0.661   1.026  23.856  0.00  0.00    +0.089 A 
BRANCH   3   2
ATOM      1  C   UNL     1      -0.151  -0.978  23.640  0.00  0.00    +0.252 C 
ATOM      2  O   UNL     1      -0.128  -0.159  23.733  0.00  0.00    -0.471 OA
ENDBRANCH   3   2
BRANCH   5   6
ATOM      6  S   UNL     1       2.464  -0.036  22.535  0.00  0.00    -0.113 S 
ATOM      7  C   UNL     1       3.207   0.320  22.489  0.00  0.00    +0.074 C 
ENDBRANCH   5   6
ENDBRANCH  11  10
ENDBRANCH  14  13
TORSDOF 6
ENDMDL
MODEL 2
REMARK VINA RESULT:      -8.3      2.377      6.594
REMARK  Name = 
REMARK  6 active torsions:
REMARK  status: ('A' for Active; 'I' for Inactive)
REMARK    1  A    between atoms: O_2  and  C_3
REMARK    2  A    between atoms: C_5  and  S_6
REMARK    3  A    between atoms: C_10  and  C_11
REMARK    4  A    between atoms: N_13  and  C_14
REMARK    5  A    between atoms: N_22  and  C_25
REMARK    6  A    between atoms: C_27  and  C_31
REMARK                            x       y       z     vdW  Elec       q    Type
REMARK                         _______ _______ _______ _____ _____    ______ ____
ROOT
ATOM     14  C   UNL     1      -1.816   0.436  24.686  0.00  0.00    +0.099 C 
ATOM     15  C   UNL     1      -1.611  -0.293  25.013  0.00  0.00    +0.043 C 
ATOM     16  C   UNL     1      -0.915  -0.668  24.779  0.00  0.00    +0.097 C 
ATOM     17  N   UNL     1      -0.424  -0.315  24.218  0.00  0.00    -0.257 N 
ATOM     18  C   UNL     1      -0.629   0.414  23.891  0.00  0.00    +0.156 C 
ATOM     19  C   UNL     1      -1.326   0.790  24.125  0.00  0.00    +0.051 C 
ATOM     20  C   UNL     1      -0.042   0.627  23.353  0.00  0.00    +0.254 C 
ATOM     21  O   UNL     1      -0.025   1.316  22.900  0.00  0.00    -0.272 OA
ATOM     22  N   UNL     1       0.527   0.030  23.348  0.00  0.00    -0.191 N 
ATOM     23  C   UNL     1       0.290  -0.552  23.882  0.00  0.00    +0.317 C 
ATOM     24  O   UNL     1       0.698  -1.250  24.052  0.00  0.00    -0.252 OA
ENDROOT
BRANCH  22  25
ATOM     25  C   UNL     1       1.213   0.017  22.889  0.00  0.00    +0.062 A 
ATOM     26  C   UNL     1       1.902   0.376  23.166  0.00  0.00    +0.018 A 
ATOM     27  C   UNL     1       2.588   0.363  22.707  0.00  0.00    +0.036 A 
ATOM     28  C   UNL     1       2.583  -0.009  21.970  0.00  0.00    +0.003 A 
ATOM     29  C   UNL     1       1.895  -0.368  21.693  0.00  0.00    +0.001 A 
ATOM     30  C   UNL     1       1.209  -0.355  22.153  0.00  0.00    +0.015 A 
BRANCH  27  31
ATOM     31  C   UNL     1       3.276   0.723  22.984  0.00  0.00    +0.174 C 
ATOM     32  C   UNL     1       3.950   0.269  23.127  0.00  0.00    +0.077 C 
ATOM     33  O   UNL     1       3.291   1.536  23.118  0.00  0.00    -0.291 OA
ENDBRANCH  27  31
ENDBRANCH  22  25
BRANCH  14  13
ATOM     11  C   UNL     1      -3.176   0.794  24.430  0.00  0.00    +0.268 C 
ATOM     12  O   UNL     1      -3.143   0.400  23.705  0.00  0.00    -0.268 OA
ATOM     13  N   UNL     1      -2.513   0.812  24.920  0.00  0.00    -0.203 NA
BRANCH  11  10
ATOM      3  C   UNL     1      -4.065   1.911  24.356  0.00  0.00    +0.144 A 
ATOM      4  C   UNL     1      -4.761   2.286  24.590  0.00  0.00    +0.043 A 
ATOM      5  C   UNL     1      -5.265   1.922  25.132  0.00  0.00    +0.028 A 
ATOM      8  C   UNL     1      -5.073   1.181  25.440  0.00  0.00    +0.006 A 
ATOM      9  C   UNL     1      -4.376   0.805  25.206  0.00  0.00    +0.008 A 
ATOM     10  C   UNL     1      -3.873   1.170  24.664  0.00  0.00    +0.089 A 
BRANCH   3   2
ATOM      1  C   UNL     1      -3.758   3.010  23.496  0.00  0.00    +0.252 C 
ATOM      2  O   UNL     1      -3.561   2.276  23.814  0.00  0.00    -0.471 OA
ENDBRANCH   3   2
BRANCH   5   6
ATOM      6  S   UNL     1      -5.961   2.297  25.366  0.00  0.00    -0.113 S 
ATOM      7  C   UNL     1      -6.179   2.305  26.162  0.00  0.00    +0.074 C 
ENDBRANCH   5   6
ENDBRANCH  11  10
ENDBRANCH  14  13
TORSDOF 6
ENDMDL
MODEL 3
REMARK VINA RESULT:      -8.0      1.400      1.983
REMARK  Name = 
REMARK  6 active torsions:
REMARK  status: ('A' for Active; 'I' for Inactive)
REMARK    1  A    between atoms: O_2  and  C_3
REMARK    2  A    between atoms: C_5  and  S_6
REMARK    3  A    between atoms: C_10  and  C_11
REMARK    4  A    between atoms: N_13  and  C_14
REMARK    5  A    between atoms: N_22  and  C_25
REMARK    6  A    between atoms: C_27  and  C_31
REMARK                            x       y       z     vdW  Elec       q    Type
REMARK                         _______ _______ _______ _____ _____    ______ ____
ROOT
ATOM     14  C   UNL     1      -0.487   0.772  24.262  0.00  0.00    +0.099 C 
ATOM     15  C   UNL     1      -0.609   0.208  24.852  0.00  0.00    +0.043 C 
ATOM     16  C   UNL     1      -1.357   0.115  25.186  0.00  0.00    +0.097 C 
ATOM     17  N   UNL     1      -1.985   0.585  24.930  0.00  0.00    -0.257 N 
ATOM     18  C   UNL     1      -1.863   1.150  24.341  0.00  0.00    +0.156 C 
ATOM     19  C   UNL     1      -1.114   1.243  24.006  0.00  0.00    +0.051 C 
ATOM     20  C   UNL     1      -2.581   1.531  24.202  0.00  0.00    +0.254 C 
ATOM     21  O   UNL     1      -2.711   2.135  23.655  0.00  0.00    -0.272 OA
ATOM     22  N   UNL     1      -3.146   1.203  24.705  0.00  0.00    -0.191 N 
ATOM     23  C   UNL     1      -2.777   0.619  25.155  0.00  0.00    +0.317 C 
ATOM     24  O   UNL     1      -3.138   0.149  25.730  0.00  0.00    -0.252 OA
ENDROOT
BRANCH  22  25
ATOM     25  C   UNL     1      -3.940   1.421  24.750  0.00  0.00    +0.062 A 
ATOM     26  C   UNL     1      -4.162   2.085  25.188  0.00  0.00    +0.018 A 
ATOM     27  C   UNL     1      -4.957   2.303  25.233  0.00  0.00    +0.036 A 
ATOM     28  C   UNL     1      -5.529   1.857  24.841  0.00  0.00    +0.003 A 
ATOM     29  C   UNL     1      -5.308   1.194  24.404  0.00  0.00    +0.001 A 
ATOM     30  C   UNL     1      -4.514   0.976  24.358  0.00  0.00    +0.015 A 
BRANCH  27  31
ATOM     31  C   UNL     1      -5.178   2.966  25.670  0.00  0.00    +0.174 C 
ATOM     32  C   UNL     1      -5.048   3.723  25.367  0.00  0.00    +0.077 C 
ATOM     33  O   UNL     1      -5.529   2.873  26.411  0.00  0.00    -0.291 OA
ENDBRANCH  27  31
ENDBRANCH  22  25
BRANCH  14  13
ATOM     11  C   UNL     1       0.632   0.226  23.562  0.00  0.00    +0.268 C 
ATOM     12  O   UNL     1       0.255  -0.507  23.531  0.00  0.00    -0.268 OA
ATOM     13  N   UNL     1       0.262   0.866  23.928  0.00  0.00    -0.203 NA
BRANCH  11  10
ATOM      3  C   UNL     1       1.555  -0.028  22.500  0.00  0.00    +0.144 A 
ATOM      4  C   UNL     1       2.303   0.066  22.166  0.00  0.00    +0.043 A 
ATOM      5  C   UNL     1       2.879   0.507  22.560  0.00  0.00    +0.028 A 
ATOM      8  C   UNL     1       2.705   0.854  23.288  0.00  0.00    +0.006 A 
ATOM      9  C   UNL     1       1.956   0.760  23.623  0.00  0.00    +0.008 A 
ATOM     10  C   UNL     1       1.381   0.319  23.228  0.00  0.00    +0.089 A 
BRANCH   3   2
ATOM      1  C   UNL     1       1.106  -0.713  21.329  0.00  0.00    +0.252 C 
ATOM      2  O   UNL     1       0.979  -0.468  22.106  0.00  0.00    -0.471 OA
ENDBRANCH   3   2
BRANCH   5   6
ATOM      6  S   UNL     1       3.627   0.600  22.227  0.00  0.00    -0.113 S 
ATOM      7  C   UNL     1       4.297   0.603  22.708  0.00  0.00    +0.074 C 
ENDBRANCH   5   6
ENDBRANCH  11  10
ENDBRANCH  14  13
TORSDOF 6
ENDMDL
MODEL 4
REMARK VINA RESULT:      -7.0      2.161      6.944
REMARK  Name = 
REMARK  6 active torsions:
REMARK  status: ('A' for Active; 'I' for Inactive)
REMARK    1  A    between atoms: O_2  and  C_3
REMARK    2  A    between atoms: C_5  and  S_6
REMARK    3  A    between atoms: C_10  and  C_11
REMARK    4  A    between atoms: N_13  and  C_14
REMARK    5  A    between atoms: N_22  and  C_25
REMARK    6  A    between atoms: C_27  and  C_31
REMARK                            x       y       z     vdW  Elec       q    Type
REMARK                         _______ _______ _______ _____ _____    ______ ____
ROOT
ATOM     14  C   UNL     1      -0.493   0.716  23.853  0.00  0.00    +0.099 C 
ATOM     15  C   UNL     1      -0.564   0.036  23.390  0.00  0.00    +0.043 C 
ATOM     16  C   UNL     1       0.100  -0.280  23.018  0.00  0.00    +0.097 C 
ATOM     17  N   UNL     1       0.836   0.082  23.108  0.00  0.00    -0.257 N 
ATOM     18  C   UNL     1       0.907   0.762  23.571  0.00  0.00    +0.156 C 
ATOM     19  C   UNL     1       0.242   1.079  23.944  0.00  0.00    +0.051 C 
ATOM     20  C   UNL     1       1.697   0.997  23.559  0.00  0.00    +0.254 C 
ATOM     21  O   UNL     1       2.014   1.652  23.949  0.00  0.00    -0.272 OA
ATOM     22  N   UNL     1       2.115   0.463  23.089  0.00  0.00    -0.191 N 
ATOM     23  C   UNL     1       1.582  -0.102  22.811  0.00  0.00    +0.317 C 
ATOM     24  O   UNL     1       1.764  -0.740  22.320  0.00  0.00    -0.252 OA
ENDROOT
BRANCH  22  25
ATOM     25  C   UNL     1       2.923   0.490  22.926  0.00  0.00    +0.062 A 
ATOM     26  C   UNL     1       3.451   0.052  23.386  0.00  0.00    +0.018 A 
ATOM     27  C   UNL     1       4.260   0.079  23.223  0.00  0.00    +0.036 A 
ATOM     28  C   UNL     1       4.539   0.543  22.600  0.00  0.00    +0.003 A 
ATOM     29  C   UNL     1       4.012   0.979  22.141  0.00  0.00    +0.001 A 
ATOM     30  C   UNL     1       3.204   0.953  22.304  0.00  0.00    +0.015 A 
BRANCH  27  31
ATOM     31  C   UNL     1       4.787  -0.358  23.682  0.00  0.00    +0.174 C 
ATOM     32  C   UNL     1       5.443   0.011  24.022  0.00  0.00    +0.077 C 
ATOM     33  O   UNL     1       4.659  -1.164  23.802  0.00  0.00    -0.291 OA
ENDBRANCH  27  31
ENDBRANCH  22  25
BRANCH  14  13
ATOM     11  C   UNL     1      -1.634   1.577  23.828  0.00  0.00    +0.268 C 
ATOM     12  O   UNL     1      -1.445   1.804  23.057  0.00  0.00    -0.268 OA
ATOM     13  N   UNL     1      -1.158   1.033  24.226  0.00  0.00    -0.203 NA
BRANCH  11  10
ATOM      3  C   UNL     1      -2.282   2.667  24.487  0.00  0.00    +0.144 A 
ATOM      4  C   UNL     1      -2.946   2.983  24.859  0.00  0.00    +0.043 A 
ATOM      5  C   UNL     1      -3.628   2.527  24.945  0.00  0.00    +0.028 A 
ATOM      8  C   UNL     1      -3.645   1.754  24.659  0.00  0.00    +0.006 A 
ATOM      9  C   UNL     1      -2.980   1.437  24.286  0.00  0.00    +0.008 A 
ATOM     10  C   UNL     1      -2.299   1.894  24.200  0.00  0.00    +0.089 A 
BRANCH   3   2
ATOM      1  C   UNL     1      -1.555   3.869  24.750  0.00  0.00    +0.252 C 
ATOM      2  O   UNL     1      -1.599   3.124  24.401  0.00  0.00    -0.471 OA
ENDBRANCH   3   2
BRANCH   5   6
ATOM      6  S   UNL     1      -4.292   2.843  25.318  0.00  0.00    -0.113 S 
ATOM      7  C   UNL     1      -5.048   2.616  25.078  0.00  0.00    +0.074 C 
ENDBRANCH   5   6
ENDBRANCH  11  10
ENDBRANCH  14  13
TORSDOF 6
ENDMDL
MODEL 5
REMARK VINA RESULT:      -6.8      2.977      4.993
REMARK  Name = 
REMARK  6 active torsions:
REMARK  status: ('A' for Active; 'I' for Inactive)
REMARK    1  A    between atoms: O_2  and  C_3
REMARK    2  A    between atoms: C_5  and  S_6
REMARK    3  A    between atoms: C_10  and  C_11
REMARK    4  A    between atoms: N_13  and  C_14
REMARK    5  A    between atoms: N_22  and  C_25
REMARK    6  A    between atoms: C_27  and  C_31
REMARK                            x       y       z     vdW  Elec       q    Type
REMARK                         _______ _______ _______ _____ _____    ______ ____
ROOT
ATOM     14  C   UNL     1      -1.368   1.538  24.454  0.00  0.00    +0.099 C 
ATOM     15  C   UNL     1      -0.678   1.107  24.316  0.00  0.00    +0.043 C 
ATOM     16  C   UNL     1      -0.694   0.283  24.345  0.00  0.00    +0.097 C 
ATOM     17  N   UNL     1      -1.399  -0.111  24.513  0.00  0.00    -0.257 N 
ATOM     18  C   UNL     1      -2.089   0.320  24.651  0.00  0.00    +0.156 C 
ATOM     19  C   UNL     1      -2.074   1.145  24.622  0.00  0.00    +0.051 C 
ATOM     20  C   UNL     1      -2.698  -0.215  24.801  0.00  0.00    +0.254 C 
ATOM     21  O   UNL     1      -3.483  -0.023  24.967  0.00  0.00    -0.272 OA
ATOM     22  N   UNL     1      -2.385  -0.977  24.756  0.00  0.00    -0.191 N 
ATOM     23  C   UNL     1      -1.583  -0.912  24.578  0.00  0.00    +0.317 C 
ATOM     24  O   UNL     1      -1.055  -1.539  24.481  0.00  0.00    -0.252 OA
ENDROOT
BRANCH  22  25
ATOM     25  C   UNL     1      -2.801  -1.680  24.869  0.00  0.00    +0.062 A 
ATOM     26  C   UNL     1      -3.272  -1.984  24.262  0.00  0.00    +0.018 A 
ATOM     27  C   UNL     1      -3.688  -2.687  24.375  0.00  0.00    +0.036 A 
ATOM     28  C   UNL     1      -3.634  -3.086  25.096  0.00  0.00    +0.003 A 
ATOM     29  C   UNL     1      -3.165  -2.783  25.702  0.00  0.00    +0.001 A 
ATOM     30  C   UNL     1      -2.749  -2.080  25.588  0.00  0.00    +0.015 A 
BRANCH  27  31
ATOM     31  C   UNL     1      -4.157  -2.990  23.769  0.00  0.00    +0.174 C 
ATOM     32  C   UNL     1      -3.979  -3.724  23.436  0.00  0.00    +0.077 C 
ATOM     33  O   UNL     1      -4.806  -2.560  23.496  0.00  0.00    -0.291 OA
ENDBRANCH  27  31
ENDBRANCH  22  25
BRANCH  14  13
ATOM     11  C   UNL     1      -1.279   2.798  25.122  0.00  0.00    +0.268 C 
ATOM     12  O   UNL     1      -1.221   2.410  25.848  0.00  0.00    -0.268 OA
ATOM     13  N   UNL     1      -1.353   2.363  24.425  0.00  0.00    -0.203 NA
BRANCH  11  10
ATOM      3  C   UNL     1      -1.863   4.060  25.454  0.00  0.00    +0.144 A 
ATOM      4  C   UNL     1      -1.847   4.884  25.425  0.00  0.00    +0.043 A 
ATOM      5  C   UNL     1      -1.232   5.272  25.035  0.00  0.00    +0.028 A 
ATOM      8  C   UNL     1      -0.633   4.835  24.674  0.00  0.00    +0.006 A 
ATOM      9  C   UNL     1      -0.648   4.010  24.703  0.00  0.00    +0.008 A 
ATOM     10  C   UNL     1      -1.264   3.623  25.093  0.00  0.00    +0.089 A 
BRANCH   3   2
ATOM      1  C   UNL     1      -3.075   4.107  26.210  0.00  0.00    +0.252 C 
ATOM      2  O   UNL     1      -2.478   3.672  25.844  0.00  0.00    -0.471 OA
ENDBRANCH   3   2
BRANCH   5   6
ATOM      6  S   UNL     1      -1.217   6.096  25.006  0.00  0.00    -0.113 S 
ATOM      7  C   UNL     1      -1.787   6.505  24.572  0.00  0.00    +0.074 C 
ENDBRANCH   5   6
ENDBRANCH  11  10
ENDBRANCH  14  13
TORSDOF 6
ENDMDL
MODEL 6
REMARK VINA RESULT:      -6.8      2.936      4.447
REMARK  Name = 
REMARK  6 active torsions:
REMARK  status: ('A' for Active; 'I' for Inactive)
REMARK    1  A    between atoms: O_2  and  C_3
REMARK    2  A    between atoms: C_5  and  S_6
REMARK    3  A    between atoms: C_10  and  C_11
REMARK    4  A    between atoms: N_13  and  C_14
REMARK    5  A    between atoms: N_22  and  C_25
REMARK    6  A    between atoms: C_27  and  C_31
REMARK                            x       y       z     vdW  Elec       q    Type
REMARK                         _______ _______ _______ _____ _____    ______ ____
ROOT
ATOM     14  C   UNL     1      -3.998   0.847  24.689  0.00  0.00    +0.099 C 
ATOM     15  C   UNL     1      -4.605   1.275  24.331  0.00  0.00    +0.043 C 
ATOM     16  C   UNL     1      -4.570   2.099  24.308  0.00  0.00    +0.097 C 
ATOM     17  N   UNL     1      -3.928   2.495  24.643  0.00  0.00    -0.257 N 
ATOM     18  C   UNL     1      -3.321   2.066  25.000  0.00  0.00    +0.156 C 
ATOM     19  C   UNL     1      -3.356   1.241  25.023  0.00  0.00    +0.051 C 
ATOM     20  C   UNL     1      -2.761   2.602  25.282  0.00  0.00    +0.254 C 
ATOM     21  O   UNL     1      -2.063   2.412  25.678  0.00  0.00    -0.272 OA
ATOM     22  N   UNL     1      -3.023   3.363  25.098  0.00  0.00    -0.191 N 
ATOM     23  C   UNL     1      -3.744   3.295  24.704  0.00  0.00    +0.317 C 
ATOM     24  O   UNL     1      -4.201   3.921  24.419  0.00  0.00    -0.252 OA
ENDROOT
BRANCH  22  25
ATOM     25  C   UNL     1      -2.632   4.066  25.278  0.00  0.00    +0.062 A 
ATOM     26  C   UNL     1      -1.914   4.246  24.911  0.00  0.00    +0.018 A 
ATOM     27  C   UNL     1      -1.523   4.950  25.091  0.00  0.00    +0.036 A 
ATOM     28  C   UNL     1      -1.850   5.474  25.638  0.00  0.00    +0.003 A 
ATOM     29  C   UNL     1      -2.566   5.295  26.005  0.00  0.00    +0.001 A 
ATOM     30  C   UNL     1      -2.957   4.592  25.825  0.00  0.00    +0.015 A 
BRANCH  27  31
ATOM     31  C   UNL     1      -0.807   5.128  24.724  0.00  0.00    +0.174 C 
ATOM     32  C   UNL     1      -0.702   5.859  24.356  0.00  0.00    +0.077 C 
ATOM     33  O   UNL     1      -0.194   4.576  24.726  0.00  0.00    -0.291 OA
ENDBRANCH  27  31
ENDBRANCH  22  25
BRANCH  14  13
ATOM     11  C   UNL     1      -3.566  -0.424  24.199  0.00  0.00    +0.268 C 
ATOM     12  O   UNL     1      -3.064  -0.047  23.663  0.00  0.00    -0.268 OA
ATOM     13  N   UNL     1      -4.033   0.022  24.712  0.00  0.00    -0.203 NA
BRANCH  11  10
ATOM      3  C   UNL     1      -2.949  -1.682  24.483  0.00  0.00    +0.144 A 
ATOM      4  C   UNL     1      -2.984  -2.506  24.506  0.00  0.00    +0.043 A 
ATOM      5  C   UNL     1      -3.670  -2.897  24.268  0.00  0.00    +0.028 A 
ATOM      8  C   UNL     1      -4.322  -2.464  24.007  0.00  0.00    +0.006 A 
ATOM      9  C   UNL     1      -4.287  -1.639  23.984  0.00  0.00    +0.008 A 
ATOM     10  C   UNL     1      -3.600  -1.249  24.222  0.00  0.00    +0.089 A 
BRANCH   3   2
ATOM      1  C   UNL     1      -1.582  -1.721  24.898  0.00  0.00    +0.252 C 
ATOM      2  O   UNL     1      -2.262  -1.291  24.721  0.00  0.00    -0.471 OA
ENDBRANCH   3   2
BRANCH   5   6
ATOM      6  S   UNL     1      -3.705  -3.720  24.291  0.00  0.00    -0.113 S 
ATOM      7  C   UNL     1      -3.951  -4.142  23.626  0.00  0.00    +0.074 C 
ENDBRANCH   5   6
ENDBRANCH  11  10
ENDBRANCH  14  13
TORSDOF 6
ENDMDL
MODEL 7
REMARK VINA RESULT:      -6.6      3.007      3.738
REMARK  Name = 
REMARK  6 active torsions:
REMARK  status: ('A' for Active; 'I' for Inactive)
REMARK    1  A    between atoms: O_2  and  C_3
REMARK    2  A    between atoms: C_5  and  S_6
REMARK    3  A    between atoms: C_10  and  C_11
REMARK    4  A    between atoms: N_13  and  C_14
REMARK    5  A    between atoms: N_22  and  C_25
REMARK    6  A    between atoms: C_27  and  C_31
REMARK                            x       y       z     vdW  Elec       q    Type
REMARK                         _______ _______ _______ _____ _____    ______ ____
ROOT
ATOM     14  C   UNL     1       0.606   0.656  23.800  0.00  0.00    +0.099 C 
ATOM     15  C   UNL     1       0.126   1.223  23.440  0.00  0.00    +0.043 C 
ATOM     16  C   UNL     1      -0.694   1.172  23.507  0.00  0.00    +0.097 C 
ATOM     17  N   UNL     1      -1.036   0.553  23.933  0.00  0.00    -0.257 N 
ATOM     18  C   UNL     1      -0.556  -0.014  24.293  0.00  0.00    +0.156 C 
ATOM     19  C   UNL     1       0.265   0.038  24.226  0.00  0.00    +0.051 C 
ATOM     20  C   UNL     1      -1.046  -0.556  24.674  0.00  0.00    +0.254 C 
ATOM     21  O   UNL     1      -0.797  -1.215  25.105  0.00  0.00    -0.272 OA
ATOM     22  N   UNL     1      -1.828  -0.325  24.551  0.00  0.00    -0.191 N 
ATOM     23  C   UNL     1      -1.821   0.360  24.093  0.00  0.00    +0.317 C 
ATOM     24  O   UNL     1      -2.484   0.780  23.839  0.00  0.00    -0.252 OA
ENDROOT
BRANCH  22  25
ATOM     25  C   UNL     1      -2.498  -0.712  24.836  0.00  0.00    +0.062 A 
ATOM     26  C   UNL     1      -2.877  -1.279  24.370  0.00  0.00    +0.018 A 
ATOM     27  C   UNL     1      -3.548  -1.666  24.654  0.00  0.00    +0.036 A 
ATOM     28  C   UNL     1      -3.840  -1.486  25.405  0.00  0.00    +0.003 A 
ATOM     29  C   UNL     1      -3.462  -0.920  25.870  0.00  0.00    +0.001 A 
ATOM     30  C   UNL     1      -2.792  -0.533  25.586  0.00  0.00    +0.015 A 
BRANCH  27  31
ATOM     31  C   UNL     1      -3.926  -2.232  24.189  0.00  0.00    +0.174 C 
ATOM     32  C   UNL     1      -3.743  -3.031  24.281  0.00  0.00    +0.077 C 
ATOM     33  O   UNL     1      -4.487  -1.999  23.631  0.00  0.00    -0.291 OA
ENDBRANCH  27  31
ENDBRANCH  22  25
BRANCH  14  13
ATOM     11  C   UNL     1       1.814   0.331  23.109  0.00  0.00    +0.268 C 
ATOM     12  O   UNL     1       1.381  -0.096  22.553  0.00  0.00    -0.268 OA
ATOM     13  N   UNL     1       1.427   0.708  23.733  0.00  0.00    -0.203 NA
BRANCH  11  10
ATOM      3  C   UNL     1       3.103  -0.284  23.177  0.00  0.00    +0.144 A 
ATOM      4  C   UNL     1       3.923  -0.232  23.111  0.00  0.00    +0.043 A 
ATOM      5  C   UNL     1       4.277   0.486  22.910  0.00  0.00    +0.028 A 
ATOM      8  C   UNL     1       3.809   1.152  22.775  0.00  0.00    +0.006 A 
ATOM      9  C   UNL     1       2.988   1.101  22.842  0.00  0.00    +0.008 A 
ATOM     10  C   UNL     1       2.635   0.383  23.043  0.00  0.00    +0.089 A 
BRANCH   3   2
ATOM      1  C   UNL     1       3.214  -1.640  23.613  0.00  0.00    +0.252 C 
ATOM      2  O   UNL     1       2.749  -1.002  23.378  0.00  0.00    -0.471 OA
ENDBRANCH   3   2
BRANCH   5   6
ATOM      6  S   UNL     1       5.097   0.537  22.843  0.00  0.00    -0.113 S 
ATOM      7  C   UNL     1       5.567   0.536  23.521  0.00  0.00    +0.074 C 
ENDBRANCH   5   6
ENDBRANCH  11  10
ENDBRANCH  14  13
TORSDOF 6
ENDMDL
MODEL 8
REMARK VINA RESULT:      -6.6      3.025      4.871
REMARK  Name = 
REMARK  6 active torsions:
REMARK  status: ('A' for Active; 'I' for Inactive)
REMARK    1  A    between atoms: O_2  and  C_3
REMARK    2  A    between atoms: C_5  and  S_6
REMARK    3  A    between atoms: C_10  and  C_11
REMARK    4  A    between atoms: N_13  and  C_14
REMARK    5  A    between atoms: N_22  and  C_25
REMARK    6  A    between atoms: C_27  and  C_31
REMARK                            x       y       z     vdW  Elec       q    Type
REMARK                         _______ _______ _______ _____ _____    ______ ____
ROOT
ATOM     14  C   UNL     1      -3.433   2.189  24.672  0.00  0.00    +0.099 C 
ATOM     15  C   UNL     1      -4.179   2.166  25.023  0.00  0.00    +0.043 C 
ATOM     16  C   UNL     1      -4.591   1.453  25.069  0.00  0.00    +0.097 C 
ATOM     17  N   UNL     1      -4.257   0.763  24.765  0.00  0.00    -0.257 N 
ATOM     18  C   UNL     1      -3.511   0.786  24.414  0.00  0.00    +0.156 C 
ATOM     19  C   UNL     1      -3.098   1.499  24.367  0.00  0.00    +0.051 C 
ATOM     20  C   UNL     1      -3.323   0.023  24.164  0.00  0.00    +0.254 C 
ATOM     21  O   UNL     1      -2.627  -0.206  23.784  0.00  0.00    -0.272 OA
ATOM     22  N   UNL     1      -3.953  -0.472  24.360  0.00  0.00    -0.191 N 
ATOM     23  C   UNL     1      -4.530  -0.014  24.731  0.00  0.00    +0.317 C 
ATOM     24  O   UNL     1      -5.254  -0.287  25.019  0.00  0.00    -0.252 OA
ENDROOT
BRANCH  22  25
ATOM     25  C   UNL     1      -3.998  -1.282  24.211  0.00  0.00    +0.062 A 
ATOM     26  C   UNL     1      -3.533  -1.809  24.646  0.00  0.00    +0.018 A 
ATOM     27  C   UNL     1      -3.578  -2.619  24.497  0.00  0.00    +0.036 A 
ATOM     28  C   UNL     1      -4.088  -2.903  23.914  0.00  0.00    +0.003 A 
ATOM     29  C   UNL     1      -4.552  -2.378  23.480  0.00  0.00    +0.001 A 
ATOM     30  C   UNL     1      -4.507  -1.567  23.628  0.00  0.00    +0.015 A 
BRANCH  27  31
ATOM     31  C   UNL     1      -3.114  -3.144  24.931  0.00  0.00    +0.174 C 
ATOM     32  C   UNL     1      -2.401  -3.420  24.620  0.00  0.00    +0.077 C 
ATOM     33  O   UNL     1      -3.362  -3.394  25.677  0.00  0.00    -0.291 OA
ENDBRANCH  27  31
ENDBRANCH  22  25
BRANCH  14  13
ATOM     11  C   UNL     1      -2.390   3.048  25.137  0.00  0.00    +0.268 C 
ATOM     12  O   UNL     1      -2.172   2.481  25.695  0.00  0.00    -0.268 OA
ATOM     13  N   UNL     1      -3.020   2.903  24.625  0.00  0.00    -0.203 NA
BRANCH  11  10
ATOM      3  C   UNL     1      -1.188   3.767  24.849  0.00  0.00    +0.144 A 
ATOM      4  C   UNL     1      -0.777   4.480  24.803  0.00  0.00    +0.043 A 
ATOM      5  C   UNL     1      -1.153   5.188  24.997  0.00  0.00    +0.028 A 
ATOM      8  C   UNL     1      -1.942   5.183  25.238  0.00  0.00    +0.006 A 
ATOM      9  C   UNL     1      -2.355   4.469  25.285  0.00  0.00    +0.008 A 
ATOM     10  C   UNL     1      -1.977   3.762  25.090  0.00  0.00    +0.089 A 
BRANCH   3   2
ATOM      1  C   UNL     1      -0.025   3.063  24.411  0.00  0.00    +0.252 C 
ATOM      2  O   UNL     1      -0.812   3.059  24.655  0.00  0.00    -0.471 OA
ENDBRANCH   3   2
BRANCH   5   6
ATOM      6  S   UNL     1      -0.741   5.901  24.951  0.00  0.00    -0.113 S 
ATOM      7  C   UNL     1      -1.101   6.565  24.618  0.00  0.00    +0.074 C 
ENDBRANCH   5   6
ENDBRANCH  11  10
ENDBRANCH  14  13
TORSDOF 6
ENDMDL
MODEL 9
REMARK VINA RESULT:      -6.4      3.047      4.436
REMARK  Name = 
REMARK  6 active torsions:
REMARK  status: ('A' for Active; 'I' for Inactive)
REMARK    1  A    between atoms: O_2  and  C_3
REMARK    2  A    between atoms: C_5  and  S_6
REMARK    3  A    between atoms: C_10  and  C_11
REMARK    4  A    between atoms: N_13  and  C_14
REMARK    5  A    between atoms: N_22  and  C_25
REMARK    6  A    between atoms: C_27  and  C_31
REMARK                            x       y       z     vdW  Elec       q    Type
REMARK                         _______ _______ _______ _____ _____    ______ ____
ROOT
ATOM     14  C   UNL     1      -1.541   0.206  24.936  0.00  0.00    +0.099 C 
ATOM     15  C   UNL     1      -1.002   0.210  25.561  0.00  0.00    +0.043 C 
ATOM     16  C   UNL     1      -0.653   0.918  25.798  0.00  0.00    +0.097 C 
ATOM     17  N   UNL     1      -0.843   1.623  25.413  0.00  0.00    -0.257 N 
ATOM     18  C   UNL     1      -1.382   1.618  24.788  0.00  0.00    +0.156 C 
ATOM     19  C   UNL     1      -1.732   0.909  24.550  0.00  0.00    +0.051 C 
ATOM     20  C   UNL     1      -1.462   2.391  24.514  0.00  0.00    +0.254 C 
ATOM     21  O   UNL     1      -1.947   2.639  23.894  0.00  0.00    -0.272 OA
ATOM     22  N   UNL     1      -0.972   2.875  24.969  0.00  0.00    -0.191 N 
ATOM     23  C   UNL     1      -0.590   2.399  25.524  0.00  0.00    +0.317 C 
ATOM     24  O   UNL     1      -0.048   2.656  26.091  0.00  0.00    -0.252 OA
ENDROOT
BRANCH  22  25
ATOM     25  C   UNL     1      -0.880   3.690  24.883  0.00  0.00    +0.062 A 
ATOM     26  C   UNL     1      -1.467   4.202  25.156  0.00  0.00    +0.018 A 
ATOM     27  C   UNL     1      -1.376   5.018  25.070  0.00  0.00    +0.036 A 
ATOM     28  C   UNL     1      -0.697   5.321  24.712  0.00  0.00    +0.003 A 
ATOM     29  C   UNL     1      -0.111   4.809  24.439  0.00  0.00    +0.001 A 
ATOM     30  C   UNL     1      -0.202   3.994  24.525  0.00  0.00    +0.015 A 
BRANCH  27  31
ATOM     31  C   UNL     1      -1.962   5.529  25.343  0.00  0.00    +0.174 C 
ATOM     32  C   UNL     1      -2.026   6.289  25.028  0.00  0.00    +0.077 C 
ATOM     33  O   UNL     1      -2.485   5.281  25.931  0.00  0.00    -0.291 OA
ENDBRANCH  27  31
ENDBRANCH  22  25
BRANCH  14  13
ATOM     11  C   UNL     1      -2.583  -0.765  25.063  0.00  0.00    +0.268 C 
ATOM     12  O   UNL     1      -2.926  -0.318  25.666  0.00  0.00    -0.268 OA
ATOM     13  N   UNL     1      -1.891  -0.504  24.698  0.00  0.00    -0.203 NA
BRANCH  11  10
ATOM      3  C   UNL     1      -3.700  -1.475  24.524  0.00  0.00    +0.144 A 
ATOM      4  C   UNL     1      -4.049  -2.183  24.286  0.00  0.00    +0.043 A 
ATOM      5  C   UNL     1      -3.630  -2.891  24.348  0.00  0.00    +0.028 A 
ATOM      8  C   UNL     1      -2.862  -2.890  24.650  0.00  0.00    +0.006 A 
ATOM      9  C   UNL     1      -2.513  -2.181  24.888  0.00  0.00    +0.008 A 
ATOM     10  C   UNL     1      -2.932  -1.474  24.825  0.00  0.00    +0.089 A 
BRANCH   3   2
ATOM      1  C   UNL     1      -4.845  -0.749  24.072  0.00  0.00    +0.252 C 
ATOM      2  O   UNL     1      -4.119  -0.766  24.461  0.00  0.00    -0.471 OA
ENDBRANCH   3   2
BRANCH   5   6
ATOM      6  S   UNL     1      -3.979  -3.599  24.110  0.00  0.00    -0.113 S 
ATOM      7  C   UNL     1      -3.727  -3.972  23.418  0.00  0.00    +0.074 C 
ENDBRANCH   5   6
ENDBRANCH  11  10
ENDBRANCH  14  13
TORSDOF 6
ENDMDL
MODEL 10
REMARK VINA RESULT:      -6.1     15.871     17.694
REMARK  Name = 
REMARK  6 active torsions:
REMARK  status: ('A' for Active; 'I' for Inactive)
REMARK    1  A    between atoms: O_2  and  C_3
REMARK    2  A    between atoms: C_5  and  S_6
REMARK    3  A    between atoms: C_10  and  C_11
REMARK    4  A    between atoms: N_13  and  C_14
REMARK    5  A    between atoms: N_22  and  C_25
REMARK    6  A    between atoms: C_27  and  C_31
REMARK                            x       y       z     vdW  Elec       q    Type
REMARK                         _______ _______ _______ _____ _____    ______ ____
ROOT
ATOM     14  C   UNL     1      11.759  -7.549  32.091  0.00  0.00    +0.099 C 
ATOM     15  C   UNL     1      11.992  -8.317  31.899  0.00  0.00    +0.043 C 
ATOM     16  C   UNL     1      11.427  -8.914  31.832  0.00  0.00    +0.097 C 
ATOM     17  N   UNL     1      10.629  -8.744  31.957  0.00  0.00    -0.257 N 
ATOM     18  C   UNL     1      10.397  -7.976  32.149  0.00  0.00    +0.156 C 
ATOM     19  C   UNL     1      10.962  -7.378  32.216  0.00  0.00    +0.051 C 
ATOM     20  C   UNL     1       9.577  -7.973  32.240  0.00  0.00    +0.254 C 
ATOM     21  O   UNL     1       9.113  -7.319  32.433  0.00  0.00    -0.272 OA
ATOM     22  N   UNL     1       9.303  -8.739  32.104  0.00  0.00    -0.191 N 
ATOM     23  C   UNL     1       9.953  -9.215  31.929  0.00  0.00    +0.317 C 
ATOM     24  O   UNL     1       9.931 -10.022  31.757  0.00  0.00    -0.252 OA
ENDROOT
BRANCH  22  25
ATOM     25  C   UNL     1       8.516  -8.985  32.137  0.00  0.00    +0.062 A 
ATOM     26  C   UNL     1       8.038  -8.931  31.467  0.00  0.00    +0.018 A 
ATOM     27  C   UNL     1       7.251  -9.177  31.500  0.00  0.00    +0.036 A 
ATOM     28  C   UNL     1       6.943  -9.478  32.204  0.00  0.00    +0.003 A 
ATOM     29  C   UNL     1       7.421  -9.533  32.873  0.00  0.00    +0.001 A 
ATOM     30  C   UNL     1       8.207  -9.287  32.840  0.00  0.00    +0.015 A 
BRANCH  27  31
ATOM     31  C   UNL     1       6.774  -9.122  30.830  0.00  0.00    +0.174 C 
ATOM     32  C   UNL     1       6.643  -9.788  30.360  0.00  0.00    +0.077 C 
ATOM     33  O   UNL     1       6.426  -8.402  30.629  0.00  0.00    -0.291 OA
ENDBRANCH  27  31
ENDBRANCH  22  25
BRANCH  14  13
ATOM     11  C   UNL     1      12.503  -6.478  31.507  0.00  0.00    +0.268 C 
ATOM     12  O   UNL     1      12.116  -6.601  30.789  0.00  0.00    -0.268 OA
ATOM     13  N   UNL     1      12.325  -6.951  32.158  0.00  0.00    -0.203 NA
BRANCH  11  10
ATOM      3  C   UNL     1      13.692  -5.839  31.036  0.00  0.00    +0.144 A 
ATOM      4  C   UNL     1      14.256  -5.242  31.103  0.00  0.00    +0.043 A 
ATOM      5  C   UNL     1      14.198  -4.685  31.709  0.00  0.00    +0.028 A 
ATOM      8  C   UNL     1      13.574  -4.725  32.248  0.00  0.00    +0.006 A 
ATOM      9  C   UNL     1      13.009  -5.323  32.180  0.00  0.00    +0.008 A 
ATOM     10  C   UNL     1      13.068  -5.880  31.574  0.00  0.00    +0.089 A 
BRANCH   3   2
ATOM      1  C   UNL     1      14.364  -6.348  29.882  0.00  0.00    +0.252 C 
ATOM      2  O   UNL     1      13.750  -6.396  30.430  0.00  0.00    -0.471 OA
ENDBRANCH   3   2
BRANCH   5   6
ATOM      6  S   UNL     1      14.762  -4.087  31.777  0.00  0.00    -0.113 S 
ATOM      7  C   UNL     1      15.272  -4.072  32.425  0.00  0.00    +0.074 C 
ENDBRANCH   5   6
ENDBRANCH  11  10
ENDBRANCH  14  13
TORSDOF 6
ENDMDL
