MODEL 1
REMARK VINA RESULT:     -12.5      0.000      0.000
REMARK  Name = 
REMARK  6 active torsions:
REMARK  status: ('A' for Active; 'I' for Inactive)
REMARK    1  A    between atoms: N_5  and  C_8
REMARK    2  A    between atoms: C_11  and  C_12
REMARK    3  A    between atoms: C_15  and  C_16
REMARK    4  A    between atoms: C_16  and  N_17
REMARK    5  A    between atoms: C_18  and  C_20
REMARK    6  A    between atoms: C_23  and  C_26
REMARK                            x       y       z     vdW  Elec       q    Type
REMARK                         _______ _______ _______ _____ _____    ______ ____
ROOT
ATOM      8  C   UNL     1      -3.879   3.037  25.305  0.00  0.00    +0.120 C 
ATOM      9  C   UNL     1      -4.588   3.356  25.582  0.00  0.00    +0.198 C 
ATOM     10  O   UNL     1      -4.700   4.128  25.849  0.00  0.00    -0.219 OA
ATOM     11  C   UNL     1      -5.164   2.767  25.543  0.00  0.00    +0.180 C 
ATOM     14  O   UNL     1      -4.811   2.085  25.242  0.00  0.00    -0.350 OA
ATOM     15  C   UNL     1      -4.017   2.251  25.095  0.00  0.00    +0.154 C 
ENDROOT
BRANCH   8   5
ATOM      1  C   UNL     1      -0.996   4.627  25.077  0.00  0.00    +0.000 C 
ATOM      2  C   UNL     1      -1.717   4.229  25.134  0.00  0.00    +0.003 C 
ATOM      3  C   UNL     1      -2.243   4.238  24.498  0.00  0.00    +0.017 C 
ATOM      4  C   UNL     1      -2.964   3.840  24.555  0.00  0.00    +0.072 C 
ATOM      5  N   UNL     1      -3.158   3.434  25.248  0.00  0.00    -0.270 NA
ATOM      6  C   UNL     1      -2.631   3.427  25.882  0.00  0.00    +0.072 C 
ATOM      7  C   UNL     1      -1.910   3.824  25.825  0.00  0.00    +0.017 C 
ENDBRANCH   8   5
BRANCH  11  12
ATOM     12  C   UNL     1      -5.955   2.847  25.766  0.00  0.00    +0.214 C 
ATOM     13  O   UNL     1      -6.392   2.181  25.979  0.00  0.00    -0.218 OA
ENDBRANCH  11  12
BRANCH  15  16
ATOM     16  C   UNL     1      -3.459   1.725  24.792  0.00  0.00    +0.146 C 
BRANCH  16  17
ATOM     17  N   UNL     1      -3.589   0.912  24.843  0.00  0.00    -0.199 NA
ATOM     18  C   UNL     1      -3.118   0.391  24.409  0.00  0.00    +0.265 C 
ATOM     19  O   UNL     1      -2.518   0.683  23.924  0.00  0.00    -0.268 OA
BRANCH  18  20
ATOM     20  C   UNL     1      -3.247  -0.423  24.461  0.00  0.00    +0.055 A 
ATOM     21  C   UNL     1      -3.867  -0.769  24.041  0.00  0.00    +0.005 A 
ATOM     22  C   UNL     1      -3.996  -1.583  24.092  0.00  0.00    +0.004 A 
ATOM     23  C   UNL     1      -3.505  -2.049  24.563  0.00  0.00    +0.071 A 
ATOM     24  C   UNL     1      -2.885  -1.702  24.983  0.00  0.00    +0.004 A 
ATOM     25  C   UNL     1      -2.756  -0.889  24.932  0.00  0.00    +0.005 A 
BRANCH  23  26
ATOM     26  C   UNL     1      -3.633  -2.862  24.615  0.00  0.00    +0.419 C 
ATOM     27  F   UNL     1      -3.761  -3.676  24.668  0.00  0.00    -0.166 F 
ATOM     28  F   UNL     1      -3.618  -2.918  23.792  0.00  0.00    -0.166 F 
ATOM     29  F   UNL     1      -3.648  -2.808  25.438  0.00  0.00    -0.166 F 
ENDBRANCH  23  26
ENDBRANCH  18  20
ENDBRANCH  16  17
ENDBRANCH  15  16
TORSDOF 6
ENDMDL
MODEL 2
REMARK VINA RESULT:     -11.6      1.669      2.917
REMARK  Name = 
REMARK  6 active torsions:
REMARK  status: ('A' for Active; 'I' for Inactive)
REMARK    1  A    between atoms: N_5  and  C_8
REMARK    2  A    between atoms: C_11  and  C_12
REMARK    3  A    between atoms: C_15  and  C_16
REMARK    4  A    between atoms: C_16  and  N_17
REMARK    5  A    between atoms: C_18  and  C_20
REMARK    6  A    between atoms: C_23  and  C_26
REMARK                            x       y       z     vdW  Elec       q    Type
REMARK                         _______ _______ _______ _____ _____    ______ ____
ROOT
ATOM      8  C   UNL     1      -1.169   2.246  24.732  0.00  0.00    +0.120 C 
ATOM      9  C   UNL     1      -0.389   2.267  24.461  0.00  0.00    +0.198 C 
ATOM     10  O   UNL     1       0.102   2.929  24.450  0.00  0.00    -0.219 OA
ATOM     11  C   UNL     1      -0.189   1.511  24.202  0.00  0.00    +0.180 C 
ATOM     14  O   UNL     1      -0.844   1.021  24.314  0.00  0.00    -0.350 OA
ATOM     15  C   UNL     1      -1.449   1.476  24.641  0.00  0.00    +0.154 C 
ENDROOT
BRANCH   8   5
ATOM      1  C   UNL     1      -2.863   4.795  25.966  0.00  0.00    +0.000 C 
ATOM      2  C   UNL     1      -2.439   4.158  25.657  0.00  0.00    +0.003 C 
ATOM      3  C   UNL     1      -2.485   3.983  24.852  0.00  0.00    +0.017 C 
ATOM      4  C   UNL     1      -2.062   3.346  24.544  0.00  0.00    +0.072 C 
ATOM      5  N   UNL     1      -1.592   2.883  25.041  0.00  0.00    -0.270 NA
ATOM      6  C   UNL     1      -1.547   3.058  25.845  0.00  0.00    +0.072 C 
ATOM      7  C   UNL     1      -1.970   3.696  26.154  0.00  0.00    +0.017 C 
ENDBRANCH   8   5
BRANCH  11  12
ATOM     12  C   UNL     1       0.539   1.282  23.887  0.00  0.00    +0.214 C 
ATOM     13  O   UNL     1       0.611   0.558  23.499  0.00  0.00    -0.218 OA
ENDBRANCH  11  12
BRANCH  15  16
ATOM     16  C   UNL     1      -2.203   1.207  24.842  0.00  0.00    +0.146 C 
BRANCH  16  17
ATOM     17  N   UNL     1      -2.423   0.431  24.670  0.00  0.00    -0.199 NA
ATOM     18  C   UNL     1      -3.175   0.161  24.878  0.00  0.00    +0.265 C 
ATOM     19  O   UNL     1      -3.706   0.666  25.257  0.00  0.00    -0.268 OA
BRANCH  18  20
ATOM     20  C   UNL     1      -3.397  -0.616  24.706  0.00  0.00    +0.055 A 
ATOM     21  C   UNL     1      -3.164  -1.231  25.204  0.00  0.00    +0.005 A 
ATOM     22  C   UNL     1      -3.386  -2.007  25.032  0.00  0.00    +0.004 A 
ATOM     23  C   UNL     1      -3.840  -2.167  24.362  0.00  0.00    +0.071 A 
ATOM     24  C   UNL     1      -4.073  -1.552  23.864  0.00  0.00    +0.004 A 
ATOM     25  C   UNL     1      -3.851  -0.776  24.037  0.00  0.00    +0.005 A 
BRANCH  23  26
ATOM     26  C   UNL     1      -4.062  -2.943  24.190  0.00  0.00    +0.419 C 
ATOM     27  F   UNL     1      -4.284  -3.719  24.017  0.00  0.00    -0.166 F 
ATOM     28  F   UNL     1      -3.640  -3.211  24.847  0.00  0.00    -0.166 F 
ATOM     29  F   UNL     1      -4.483  -2.677  23.533  0.00  0.00    -0.166 F 
ENDBRANCH  23  26
ENDBRANCH  18  20
ENDBRANCH  16  17
ENDBRANCH  15  16
TORSDOF 6
ENDMDL
MODEL 3
REMARK VINA RESULT:     -11.1      3.061      5.157
REMARK  Name = 
REMARK  6 active torsions:
REMARK  status: ('A' for Active; 'I' for Inactive)
REMARK    1  A    between atoms: N_5  and  C_8
REMARK    2  A    between atoms: C_11  and  C_12
REMARK    3  A    between atoms: C_15  and  C_16
REMARK    4  A    between atoms: C_16  and  N_17
REMARK    5  A    between atoms: C_18  and  C_20
REMARK    6  A    between atoms: C_23  and  C_26
REMARK                            x       y       z     vdW  Elec       q    Type
REMARK                         _______ _______ _______ _____ _____    ______ ____
ROOT
ATOM      8  C   UNL     1      -4.439   0.618  24.919  0.00  0.00    +0.120 C 
ATOM      9  C   UNL     1      -5.246   0.789  24.935  0.00  0.00    +0.198 C 
ATOM     10  O   UNL     1      -5.859   0.238  24.897  0.00  0.00    -0.219 OA
ATOM     11  C   UNL     1      -5.332   1.607  24.994  0.00  0.00    +0.180 C 
ATOM     14  O   UNL     1      -4.578   1.942  25.016  0.00  0.00    -0.350 OA
ATOM     15  C   UNL     1      -4.026   1.331  24.969  0.00  0.00    +0.154 C 
ENDROOT
BRANCH   8   5
ATOM      1  C   UNL     1      -3.096  -2.388  24.695  0.00  0.00    +0.000 C 
ATOM      2  C   UNL     1      -3.432  -1.637  24.751  0.00  0.00    +0.003 C 
ATOM      3  C   UNL     1      -3.638  -1.225  24.066  0.00  0.00    +0.017 C 
ATOM      4  C   UNL     1      -3.974  -0.474  24.122  0.00  0.00    +0.072 C 
ATOM      5  N   UNL     1      -4.103  -0.133  24.863  0.00  0.00    -0.270 NA
ATOM      6  C   UNL     1      -3.896  -0.545  25.547  0.00  0.00    +0.072 C 
ATOM      7  C   UNL     1      -3.561  -1.297  25.491  0.00  0.00    +0.017 C 
ENDBRANCH   8   5
BRANCH  11  12
ATOM     12  C   UNL     1      -6.047   2.018  25.027  0.00  0.00    +0.214 C 
ATOM     13  O   UNL     1      -6.074   2.770  25.365  0.00  0.00    -0.218 OA
ENDBRANCH  11  12
BRANCH  15  16
ATOM     16  C   UNL     1      -3.206   1.417  24.972  0.00  0.00    +0.146 C 
BRANCH  16  17
ATOM     17  N   UNL     1      -2.870   2.169  24.914  0.00  0.00    -0.199 NA
ATOM     18  C   UNL     1      -2.063   2.271  25.050  0.00  0.00    +0.265 C 
ATOM     19  O   UNL     1      -1.591   1.622  25.244  0.00  0.00    -0.268 OA
BRANCH  18  20
ATOM     20  C   UNL     1      -1.726   3.022  24.992  0.00  0.00    +0.055 A 
ATOM     21  C   UNL     1      -2.023   3.644  25.445  0.00  0.00    +0.005 A 
ATOM     22  C   UNL     1      -1.687   4.395  25.386  0.00  0.00    +0.004 A 
ATOM     23  C   UNL     1      -1.053   4.524  24.875  0.00  0.00    +0.071 A 
ATOM     24  C   UNL     1      -0.755   3.902  24.421  0.00  0.00    +0.004 A 
ATOM     25  C   UNL     1      -1.092   3.151  24.480  0.00  0.00    +0.005 A 
BRANCH  23  26
ATOM     26  C   UNL     1      -0.716   5.275  24.816  0.00  0.00    +0.419 C 
ATOM     27  F   UNL     1      -0.378   6.025  24.757  0.00  0.00    -0.166 F 
ATOM     28  F   UNL     1      -1.318   5.583  25.289  0.00  0.00    -0.166 F 
ATOM     29  F   UNL     1      -0.114   4.968  24.343  0.00  0.00    -0.166 F 
ENDBRANCH  23  26
ENDBRANCH  18  20
ENDBRANCH  16  17
ENDBRANCH  15  16
TORSDOF 6
ENDMDL
MODEL 4
REMARK VINA RESULT:     -10.5      3.385      6.106
REMARK  Name = 
REMARK  6 active torsions:
REMARK  status: ('A' for Active; 'I' for Inactive)
REMARK    1  A    between atoms: N_5  and  C_8
REMARK    2  A    between atoms: C_11  and  C_12
REMARK    3  A    between atoms: C_15  and  C_16
REMARK    4  A    between atoms: C_16  and  N_17
REMARK    5  A    between atoms: C_18  and  C_20
REMARK    6  A    between atoms: C_23  and  C_26
REMARK                            x       y       z     vdW  Elec       q    Type
REMARK                         _______ _______ _______ _____ _____    ______ ____
ROOT
ATOM      8  C   UNL     1      -1.079  -0.539  24.351  0.00  0.00    +0.120 C 
ATOM      9  C   UNL     1      -0.409  -0.832  23.968  0.00  0.00    +0.198 C 
ATOM     10  O   UNL     1      -0.257  -1.625  23.798  0.00  0.00    -0.219 OA
ATOM     11  C   UNL     1       0.080  -0.194  23.786  0.00  0.00    +0.180 C 
ATOM     14  O   UNL     1      -0.287   0.494  24.056  0.00  0.00    -0.350 OA
ATOM     15  C   UNL     1      -1.003   0.281  24.405  0.00  0.00    +0.154 C 
ENDROOT
BRANCH   8   5
ATOM      1  C   UNL     1      -3.616  -2.329  25.468  0.00  0.00    +0.000 C 
ATOM      2  C   UNL     1      -2.982  -1.881  25.189  0.00  0.00    +0.003 C 
ATOM      3  C   UNL     1      -2.340  -1.723  25.683  0.00  0.00    +0.017 C 
ATOM      4  C   UNL     1      -1.706  -1.275  25.403  0.00  0.00    +0.072 C 
ATOM      5  N   UNL     1      -1.713  -0.986  24.630  0.00  0.00    -0.270 NA
ATOM      6  C   UNL     1      -2.355  -1.146  24.137  0.00  0.00    +0.072 C 
ATOM      7  C   UNL     1      -2.989  -1.593  24.416  0.00  0.00    +0.017 C 
ENDBRANCH   8   5
BRANCH  11  12
ATOM     12  C   UNL     1       0.809  -0.236  23.401  0.00  0.00    +0.214 C 
ATOM     13  O   UNL     1       1.113   0.429  23.021  0.00  0.00    -0.218 OA
ENDBRANCH  11  12
BRANCH  15  16
ATOM     16  C   UNL     1      -1.548   0.797  24.748  0.00  0.00    +0.146 C 
BRANCH  16  17
ATOM     17  N   UNL     1      -1.399   1.608  24.754  0.00  0.00    -0.199 NA
ATOM     18  C   UNL     1      -1.942   2.124  25.100  0.00  0.00    +0.265 C 
ATOM     19  O   UNL     1      -2.634   1.829  25.440  0.00  0.00    -0.268 OA
BRANCH  18  20
ATOM     20  C   UNL     1      -1.795   2.936  25.107  0.00  0.00    +0.055 A 
ATOM     21  C   UNL     1      -2.351   3.460  24.796  0.00  0.00    +0.005 A 
ATOM     22  C   UNL     1      -2.203   4.271  24.803  0.00  0.00    +0.004 A 
ATOM     23  C   UNL     1      -1.498   4.559  25.120  0.00  0.00    +0.071 A 
ATOM     24  C   UNL     1      -0.941   4.036  25.431  0.00  0.00    +0.004 A 
ATOM     25  C   UNL     1      -1.090   3.224  25.424  0.00  0.00    +0.005 A 
BRANCH  23  26
ATOM     26  C   UNL     1      -1.350   5.371  25.127  0.00  0.00    +0.419 C 
ATOM     27  F   UNL     1      -1.202   6.182  25.135  0.00  0.00    -0.166 F 
ATOM     28  F   UNL     1      -0.673   5.252  24.671  0.00  0.00    -0.166 F 
ATOM     29  F   UNL     1      -2.026   5.491  25.584  0.00  0.00    -0.166 F 
ENDBRANCH  23  26
ENDBRANCH  18  20
ENDBRANCH  16  17
ENDBRANCH  15  16
TORSDOF 6
ENDMDL
MODEL 5
REMARK VINA RESULT:     -10.3      3.020      5.452
REMARK  Name = 
REMARK  6 active torsions:
REMARK  status: ('A' for Active; 'I' for Inactive)
REMARK    1  A    between atoms: N_5  and  C_8
REMARK    2  A    between atoms: C_11  and  C_12
REMARK    3  A    between atoms: C_15  and  C_16
REMARK    4  A    between atoms: C_16  and  N_17
REMARK    5  A    between atoms: C_18  and  C_20
REMARK    6  A    between atoms: C_23  and  C_26
REMARK                            x       y       z     vdW  Elec       q    Type
REMARK                         _______ _______ _______ _____ _____    ______ ____
ROOT
ATOM      8  C   UNL     1      -1.991  -0.440  24.921  0.00  0.00    +0.120 C 
ATOM      9  C   UNL     1      -1.187  -0.321  25.066  0.00  0.00    +0.198 C 
ATOM     10  O   UNL     1      -0.628  -0.910  25.211  0.00  0.00    -0.219 OA
ATOM     11  C   UNL     1      -1.041   0.490  25.040  0.00  0.00    +0.180 C 
ATOM     14  O   UNL     1      -1.754   0.872  24.879  0.00  0.00    -0.350 OA
ATOM     15  C   UNL     1      -2.341   0.298  24.805  0.00  0.00    +0.154 C 
ENDROOT
BRANCH   8   5
ATOM      1  C   UNL     1      -3.532  -3.356  24.821  0.00  0.00    +0.000 C 
ATOM      2  C   UNL     1      -3.147  -2.627  24.846  0.00  0.00    +0.003 C 
ATOM      3  C   UNL     1      -3.131  -2.193  25.548  0.00  0.00    +0.017 C 
ATOM      4  C   UNL     1      -2.746  -1.464  25.573  0.00  0.00    +0.072 C 
ATOM      5  N   UNL     1      -2.376  -1.169  24.896  0.00  0.00    -0.270 NA
ATOM      6  C   UNL     1      -2.392  -1.604  24.195  0.00  0.00    +0.072 C 
ATOM      7  C   UNL     1      -2.778  -2.333  24.170  0.00  0.00    +0.017 C 
ENDBRANCH   8   5
BRANCH  11  12
ATOM     12  C   UNL     1      -0.310   0.855  25.154  0.00  0.00    +0.214 C 
ATOM     13  O   UNL     1      -0.166   1.600  24.830  0.00  0.00    -0.218 OA
ENDBRANCH  11  12
BRANCH  15  16
ATOM     16  C   UNL     1      -3.139   0.436  24.644  0.00  0.00    +0.146 C 
BRANCH  16  17
ATOM     17  N   UNL     1      -3.483   1.154  24.859  0.00  0.00    -0.199 NA
ATOM     18  C   UNL     1      -4.281   1.293  24.696  0.00  0.00    +0.265 C 
ATOM     19  O   UNL     1      -4.732   0.715  24.319  0.00  0.00    -0.268 OA
BRANCH  18  20
ATOM     20  C   UNL     1      -4.626   2.011  24.910  0.00  0.00    +0.055 A 
ATOM     21  C   UNL     1      -5.160   2.042  25.538  0.00  0.00    +0.005 A 
ATOM     22  C   UNL     1      -5.505   2.760  25.752  0.00  0.00    +0.004 A 
ATOM     23  C   UNL     1      -5.317   3.447  25.337  0.00  0.00    +0.071 A 
ATOM     24  C   UNL     1      -4.784   3.417  24.709  0.00  0.00    +0.004 A 
ATOM     25  C   UNL     1      -4.438   2.699  24.495  0.00  0.00    +0.005 A 
BRANCH  23  26
ATOM     26  C   UNL     1      -5.663   4.166  25.551  0.00  0.00    +0.419 C 
ATOM     27  F   UNL     1      -6.009   4.884  25.764  0.00  0.00    -0.166 F 
ATOM     28  F   UNL     1      -4.915   4.508  25.613  0.00  0.00    -0.166 F 
ATOM     29  F   UNL     1      -6.411   3.824  25.489  0.00  0.00    -0.166 F 
ENDBRANCH  23  26
ENDBRANCH  18  20
ENDBRANCH  16  17
ENDBRANCH  15  16
TORSDOF 6
ENDMDL
