MODEL 1
REMARK VINA RESULT:     -11.0      0.000      0.000
REMARK  Name = 
REMARK  6 active torsions:
REMARK  status: ('A' for Active; 'I' for Inactive)
REMARK    1  A    between atoms: O_2  and  C_3
REMARK    2  A    between atoms: C_6  and  C_9
REMARK    3  A    between atoms: N_11  and  C_12
REMARK    4  A    between atoms: C_12  and  C_13
REMARK    5  A    between atoms: C_20  and  C_21
REMARK    6  A    between atoms: C_23  and  C_28
REMARK                            x       y       z     vdW  Elec       q    Type
REMARK                         _______ _______ _______ _____ _____    ______ ____
ROOT
ATOM     13  C   UNL     1       0.199   0.204  23.520  0.00  0.00    +0.079 C 
ATOM     14  C   UNL     1      -0.064   0.211  24.252  0.00  0.00    +0.018 C 
ATOM     15  C   UNL     1      -0.809   0.426  24.484  0.00  0.00    +0.010 C 
ATOM     16  C   UNL     1      -0.913   0.366  25.373  0.00  0.00    +0.018 C 
ATOM     17  C   UNL     1      -0.590   0.322  24.807  0.00  0.00    +0.072 C 
ATOM     18  N   UNL     1      -0.559   0.421  23.764  0.00  0.00    -0.272 NA
ATOM     19  C   UNL     1      -1.292   0.705  23.300  0.00  0.00    +0.078 C 
ATOM     20  C   UNL     1      -1.510   0.698  24.031  0.00  0.00    +0.056 C 
ENDROOT
BRANCH  20  21
ATOM     21  C   UNL     1      -2.251   0.904  24.333  0.00  0.00    +0.063 A 
ATOM     22  C   UNL     1      -2.428   1.695  24.486  0.00  0.00    +0.034 A 
ATOM     23  C   UNL     1      -3.168   1.900  24.787  0.00  0.00    +0.084 A 
ATOM     24  N   UNL     1      -3.730   1.315  24.936  0.00  0.00    -0.231 NA
ATOM     25  C   UNL     1      -3.552   0.524  24.783  0.00  0.00    +0.139 A 
ATOM     26  C   UNL     1      -4.114  -0.062  24.932  0.00  0.00    +0.074 C 
ATOM     27  N   UNL     1      -2.812   0.319  24.482  0.00  0.00    -0.235 NA
BRANCH  23  28
ATOM     28  C   UNL     1      -3.346   2.691  24.941  0.00  0.00    +0.024 A 
ATOM     29  C   UNL     1      -3.730   3.145  24.368  0.00  0.00    +0.036 A 
ATOM     30 BR   UNL     1      -3.935   2.809  23.643  0.00  0.00    -0.049 Br
ATOM     31  C   UNL     1      -3.909   3.935  24.520  0.00  0.00    +0.007 A 
ATOM     32  C   UNL     1      -3.704   4.272  25.246  0.00  0.00    +0.001 A 
ATOM     33  C   UNL     1      -3.321   3.819  25.817  0.00  0.00    +0.000 A 
ATOM     34  C   UNL     1      -3.141   3.027  25.665  0.00  0.00    +0.002 A 
ENDBRANCH  23  28
ENDBRANCH  20  21
BRANCH  13  12
ATOM     12  C   UNL     1       0.779   0.078  22.948  0.00  0.00    +0.131 C 
BRANCH  12  11
ATOM      9  C   UNL     1       2.155   0.067  22.561  0.00  0.00    +0.265 C 
ATOM     10  O   UNL     1       1.938  -0.145  21.795  0.00  0.00    -0.268 OA
ATOM     11  N   UNL     1       1.575   0.178  23.138  0.00  0.00    -0.200 NA
BRANCH   9   6
ATOM      3  C   UNL     1       4.543   0.368  23.133  0.00  0.00    +0.139 A 
ATOM      4  C   UNL     1       4.173  -0.356  23.275  0.00  0.00    +0.037 A 
ATOM      5  C   UNL     1       3.377  -0.457  23.085  0.00  0.00    +0.008 A 
ATOM      6  C   UNL     1       2.951   0.167  22.752  0.00  0.00    +0.055 A 
ATOM      7  C   UNL     1       3.321   0.890  22.611  0.00  0.00    +0.008 A 
ATOM      8  C   UNL     1       4.117   0.990  22.801  0.00  0.00    +0.037 A 
BRANCH   3   2
ATOM      1  C   UNL     1       5.702  -0.046  23.860  0.00  0.00    +0.252 C 
ATOM      2  O   UNL     1       5.340   0.467  23.324  0.00  0.00    -0.471 OA
ENDBRANCH   3   2
ENDBRANCH   9   6
ENDBRANCH  12  11
ENDBRANCH  13  12
TORSDOF 6
ENDMDL
MODEL 2
REMARK VINA RESULT:     -11.0      0.968      1.578
REMARK  Name = 
REMARK  6 active torsions:
REMARK  status: ('A' for Active; 'I' for Inactive)
REMARK    1  A    between atoms: O_2  and  C_3
REMARK    2  A    between atoms: C_6  and  C_9
REMARK    3  A    between atoms: N_11  and  C_12
REMARK    4  A    between atoms: C_12  and  C_13
REMARK    5  A    between atoms: C_20  and  C_21
REMARK    6  A    between atoms: C_23  and  C_28
REMARK                            x       y       z     vdW  Elec       q    Type
REMARK                         _______ _______ _______ _____ _____    ______ ____
ROOT
ATOM     13  C   UNL     1       0.132   0.416  23.668  0.00  0.00    +0.079 C 
ATOM     14  C   UNL     1      -0.223   0.338  24.356  0.00  0.00    +0.018 C 
ATOM     15  C   UNL     1      -0.788   0.836  24.654  0.00  0.00    +0.010 C 
ATOM     16  C   UNL     1      -1.072   0.572  25.463  0.00  0.00    +0.018 C 
ATOM     17  C   UNL     1      -0.715   0.537  24.917  0.00  0.00    +0.072 C 
ATOM     18  N   UNL     1      -0.444   0.918  23.978  0.00  0.00    -0.272 NA
ATOM     19  C   UNL     1      -0.834   1.676  23.651  0.00  0.00    +0.078 C 
ATOM     20  C   UNL     1      -1.159   1.564  24.333  0.00  0.00    +0.056 C 
ENDROOT
BRANCH  20  21
ATOM     21  C   UNL     1      -1.737   2.030  24.693  0.00  0.00    +0.063 A 
ATOM     22  C   UNL     1      -2.534   1.833  24.611  0.00  0.00    +0.034 A 
ATOM     23  C   UNL     1      -3.112   2.299  24.971  0.00  0.00    +0.084 A 
ATOM     24  N   UNL     1      -2.893   2.961  25.412  0.00  0.00    -0.231 NA
ATOM     25  C   UNL     1      -2.096   3.157  25.494  0.00  0.00    +0.139 A 
ATOM     26  C   UNL     1      -1.877   3.818  25.935  0.00  0.00    +0.074 C 
ATOM     27  N   UNL     1      -1.518   2.691  25.134  0.00  0.00    -0.235 NA
BRANCH  23  28
ATOM     28  C   UNL     1      -3.910   2.104  24.889  0.00  0.00    +0.024 A 
ATOM     29  C   UNL     1      -4.384   2.523  24.360  0.00  0.00    +0.036 A 
ATOM     30 BR   UNL     1      -4.062   3.136  23.912  0.00  0.00    -0.049 Br
ATOM     31  C   UNL     1      -5.181   2.328  24.278  0.00  0.00    +0.007 A 
ATOM     32  C   UNL     1      -5.504   1.714  24.726  0.00  0.00    +0.001 A 
ATOM     33  C   UNL     1      -5.030   1.296  25.254  0.00  0.00    +0.000 A 
ATOM     34  C   UNL     1      -4.232   1.490  25.337  0.00  0.00    +0.002 A 
ENDBRANCH  23  28
ENDBRANCH  20  21
BRANCH  13  12
ATOM     12  C   UNL     1       0.666   0.180  23.085  0.00  0.00    +0.131 C 
BRANCH  12  11
ATOM      9  C   UNL     1       2.010   0.068  22.613  0.00  0.00    +0.265 C 
ATOM     10  O   UNL     1       1.731  -0.183  21.879  0.00  0.00    -0.268 OA
ATOM     11  N   UNL     1       1.478   0.250  23.217  0.00  0.00    -0.200 NA
BRANCH   9   6
ATOM      3  C   UNL     1       4.444   0.276  23.007  0.00  0.00    +0.139 A 
ATOM      4  C   UNL     1       4.018   0.918  22.712  0.00  0.00    +0.037 A 
ATOM      5  C   UNL     1       3.206   0.849  22.581  0.00  0.00    +0.008 A 
ATOM      6  C   UNL     1       2.821   0.137  22.744  0.00  0.00    +0.055 A 
ATOM      7  C   UNL     1       3.248  -0.504  23.039  0.00  0.00    +0.008 A 
ATOM      8  C   UNL     1       4.059  -0.435  23.170  0.00  0.00    +0.037 A 
BRANCH   3   2
ATOM      1  C   UNL     1       5.574   0.135  23.869  0.00  0.00    +0.252 C 
ATOM      2  O   UNL     1       5.256   0.347  23.138  0.00  0.00    -0.471 OA
ENDBRANCH   3   2
ENDBRANCH   9   6
ENDBRANCH  12  11
ENDBRANCH  13  12
TORSDOF 6
ENDMDL
MODEL 3
REMARK VINA RESULT:      -9.9      2.133      2.883
REMARK  Name = 
REMARK  6 active torsions:
REMARK  status: ('A' for Active; 'I' for Inactive)
REMARK    1  A    between atoms: O_2  and  C_3
REMARK    2  A    between atoms: C_6  and  C_9
REMARK    3  A    between atoms: N_11  and  C_12
REMARK    4  A    between atoms: C_12  and  C_13
REMARK    5  A    between atoms: C_20  and  C_21
REMARK    6  A    between atoms: C_23  and  C_28
REMARK                            x       y       z     vdW  Elec       q    Type
REMARK                         _______ _______ _______ _____ _____    ______ ____
ROOT
ATOM     13  C   UNL     1       0.756   0.292  23.122  0.00  0.00    +0.079 C 
ATOM     14  C   UNL     1       0.208   0.709  23.485  0.00  0.00    +0.018 C 
ATOM     15  C   UNL     1      -0.376   0.409  23.959  0.00  0.00    +0.010 C 
ATOM     16  C   UNL     1      -0.907   1.054  24.283  0.00  0.00    +0.018 C 
ATOM     17  C   UNL     1      -0.409   0.811  23.937  0.00  0.00    +0.072 C 
ATOM     18  N   UNL     1       0.158  -0.006  23.606  0.00  0.00    -0.272 NA
ATOM     19  C   UNL     1      -0.052  -0.856  23.863  0.00  0.00    +0.078 C 
ATOM     20  C   UNL     1      -0.572  -0.411  24.202  0.00  0.00    +0.056 C 
ENDROOT
BRANCH  20  21
ATOM     21  C   UNL     1      -1.190  -0.651  24.694  0.00  0.00    +0.063 A 
ATOM     22  C   UNL     1      -1.890  -0.938  24.366  0.00  0.00    +0.034 A 
ATOM     23  C   UNL     1      -2.507  -1.178  24.858  0.00  0.00    +0.084 A 
ATOM     24  N   UNL     1      -2.424  -1.132  25.678  0.00  0.00    -0.231 NA
ATOM     25  C   UNL     1      -1.723  -0.845  26.005  0.00  0.00    +0.139 A 
ATOM     26  C   UNL     1      -1.640  -0.798  26.825  0.00  0.00    +0.074 C 
ATOM     27  N   UNL     1      -1.106  -0.605  25.513  0.00  0.00    -0.235 NA
BRANCH  23  28
ATOM     28  C   UNL     1      -3.209  -1.465  24.531  0.00  0.00    +0.024 A 
ATOM     29  C   UNL     1      -3.314  -2.278  24.431  0.00  0.00    +0.036 A 
ATOM     30 BR   UNL     1      -2.719  -2.802  24.657  0.00  0.00    -0.049 Br
ATOM     31  C   UNL     1      -4.014  -2.565  24.104  0.00  0.00    +0.007 A 
ATOM     32  C   UNL     1      -4.610  -2.040  23.877  0.00  0.00    +0.001 A 
ATOM     33  C   UNL     1      -4.504  -1.229  23.978  0.00  0.00    +0.000 A 
ATOM     34  C   UNL     1      -3.803  -0.941  24.305  0.00  0.00    +0.002 A 
ENDBRANCH  23  28
ENDBRANCH  20  21
BRANCH  13  12
ATOM     12  C   UNL     1       1.416   0.212  22.635  0.00  0.00    +0.131 C 
BRANCH  12  11
ATOM      9  C   UNL     1       2.835   0.149  22.472  0.00  0.00    +0.265 C 
ATOM     10  O   UNL     1       2.739   0.082  21.656  0.00  0.00    -0.268 OA
ATOM     11  N   UNL     1       2.173   0.214  22.962  0.00  0.00    -0.200 NA
BRANCH   9   6
ATOM      3  C   UNL     1       5.106   0.157  23.455  0.00  0.00    +0.139 A 
ATOM      4  C   UNL     1       4.638  -0.522  23.502  0.00  0.00    +0.037 A 
ATOM      5  C   UNL     1       3.881  -0.524  23.175  0.00  0.00    +0.008 A 
ATOM      6  C   UNL     1       3.592   0.152  22.800  0.00  0.00    +0.055 A 
ATOM      7  C   UNL     1       4.059   0.829  22.753  0.00  0.00    +0.008 A 
ATOM      8  C   UNL     1       4.816   0.832  23.081  0.00  0.00    +0.037 A 
BRANCH   3   2
ATOM      1  C   UNL     1       6.092  -0.450  24.292  0.00  0.00    +0.252 C 
ATOM      2  O   UNL     1       5.863   0.158  23.783  0.00  0.00    -0.471 OA
ENDBRANCH   3   2
ENDBRANCH   9   6
ENDBRANCH  12  11
ENDBRANCH  13  12
TORSDOF 6
ENDMDL
MODEL 4
REMARK VINA RESULT:      -8.6      3.014      4.506
REMARK  Name = 
REMARK  6 active torsions:
REMARK  status: ('A' for Active; 'I' for Inactive)
REMARK    1  A    between atoms: O_2  and  C_3
REMARK    2  A    between atoms: C_6  and  C_9
REMARK    3  A    between atoms: N_11  and  C_12
REMARK    4  A    between atoms: C_12  and  C_13
REMARK    5  A    between atoms: C_20  and  C_21
REMARK    6  A    between atoms: C_23  and  C_28
REMARK                            x       y       z     vdW  Elec       q    Type
REMARK                         _______ _______ _______ _____ _____    ______ ____
ROOT
ATOM     13  C   UNL     1      -0.524   0.566  25.238  0.00  0.00    +0.079 C 
ATOM     14  C   UNL     1      -0.364   1.182  25.686  0.00  0.00    +0.018 C 
ATOM     15  C   UNL     1      -0.725   1.905  25.640  0.00  0.00    +0.010 C 
ATOM     16  C   UNL     1      -0.397   2.480  26.245  0.00  0.00    +0.018 C 
ATOM     17  C   UNL     1      -0.446   1.909  25.933  0.00  0.00    +0.072 C 
ATOM     18  N   UNL     1      -0.887   1.307  25.197  0.00  0.00    -0.272 NA
ATOM     19  C   UNL     1      -1.546   1.634  24.658  0.00  0.00    +0.078 C 
ATOM     20  C   UNL     1      -1.359   2.214  25.118  0.00  0.00    +0.056 C 
ENDROOT
BRANCH  20  21
ATOM     21  C   UNL     1      -1.685   2.972  25.124  0.00  0.00    +0.063 A 
ATOM     22  C   UNL     1      -2.493   3.072  25.256  0.00  0.00    +0.034 A 
ATOM     23  C   UNL     1      -2.819   3.830  25.261  0.00  0.00    +0.084 A 
ATOM     24  N   UNL     1      -2.337   4.488  25.135  0.00  0.00    -0.231 NA
ATOM     25  C   UNL     1      -1.529   4.387  25.002  0.00  0.00    +0.139 A 
ATOM     26  C   UNL     1      -1.047   5.044  24.875  0.00  0.00    +0.074 C 
ATOM     27  N   UNL     1      -1.203   3.629  24.997  0.00  0.00    -0.235 NA
BRANCH  23  28
ATOM     28  C   UNL     1      -3.627   3.931  25.394  0.00  0.00    +0.024 A 
ATOM     29  C   UNL     1      -4.153   3.916  24.758  0.00  0.00    +0.036 A 
ATOM     30 BR   UNL     1      -3.872   3.800  23.992  0.00  0.00    -0.049 Br
ATOM     31  C   UNL     1      -4.961   4.017  24.890  0.00  0.00    +0.007 A 
ATOM     32  C   UNL     1      -5.243   4.133  25.657  0.00  0.00    +0.001 A 
ATOM     33  C   UNL     1      -4.717   4.148  26.291  0.00  0.00    +0.000 A 
ATOM     34  C   UNL     1      -3.908   4.047  26.160  0.00  0.00    +0.002 A 
ENDBRANCH  23  28
ENDBRANCH  20  21
BRANCH  13  12
ATOM     12  C   UNL     1      -0.417  -0.214  24.994  0.00  0.00    +0.131 C 
BRANCH  12  11
ATOM      9  C   UNL     1      -1.065  -1.487  24.989  0.00  0.00    +0.265 C 
ATOM     10  O   UNL     1      -0.408  -1.824  25.356  0.00  0.00    -0.268 OA
ATOM     11  N   UNL     1      -1.070  -0.682  24.808  0.00  0.00    -0.200 NA
BRANCH   9   6
ATOM      3  C   UNL     1      -3.025  -2.892  24.431  0.00  0.00    +0.139 A 
ATOM      4  C   UNL     1      -2.307  -3.012  24.042  0.00  0.00    +0.037 A 
ATOM      5  C   UNL     1      -1.654  -2.544  24.228  0.00  0.00    +0.008 A 
ATOM      6  C   UNL     1      -1.718  -1.955  24.803  0.00  0.00    +0.055 A 
ATOM      7  C   UNL     1      -2.436  -1.836  25.192  0.00  0.00    +0.008 A 
ATOM      8  C   UNL     1      -3.089  -2.304  25.006  0.00  0.00    +0.037 A 
BRANCH   3   2
ATOM      1  C   UNL     1      -4.321  -3.030  23.846  0.00  0.00    +0.252 C 
ATOM      2  O   UNL     1      -3.678  -3.360  24.245  0.00  0.00    -0.471 OA
ENDBRANCH   3   2
ENDBRANCH   9   6
ENDBRANCH  12  11
ENDBRANCH  13  12
TORSDOF 6
ENDMDL
