MODEL 1
REMARK VINA RESULT:     -15.3      0.000      0.000
REMARK  Name = 
REMARK  5 active torsions:
REMARK  status: ('A' for Active; 'I' for Inactive)
REMARK    1  A    between atoms: C_2  and  C_3
REMARK    2  A    between atoms: C_11  and  C_12
REMARK    3  A    between atoms: C_12  and  C_13
REMARK    4  A    between atoms: N_15  and  C_16
REMARK    5  A    between atoms: C_28  and  C_30
REMARK                            x       y       z     vdW  Elec       q    Type
REMARK                         _______ _______ _______ _____ _____    ______ ____
ROOT
ATOM      1  C   UNL     1      -2.386  -2.621  24.689  0.00  0.00    +0.005 C 
ATOM      2  C   UNL     1      -2.645  -1.845  24.585  0.00  0.00    +0.059 C 
ATOM      5  C   UNL     1      -3.333  -2.253  24.387  0.00  0.00    +0.154 C 
ATOM      6  O   UNL     1      -3.345  -3.078  24.409  0.00  0.00    -0.223 OA
ATOM      7  C   UNL     1      -4.011  -1.837  24.166  0.00  0.00    +0.033 C 
ATOM      8  C   UNL     1      -3.999  -1.013  24.144  0.00  0.00    +0.003 C 
ATOM      9  C   UNL     1      -3.311  -0.604  24.343  0.00  0.00    +0.006 C 
ATOM     10  C   UNL     1      -3.988  -0.189  24.122  0.00  0.00    +0.000 C 
ATOM     11  C   UNL     1      -3.299   0.220  24.321  0.00  0.00    +0.050 C 
ATOM     21  C   UNL     1      -2.611   0.629  24.519  0.00  0.00    +0.063 A 
ATOM     22  C   UNL     1      -1.933   0.212  24.740  0.00  0.00    +0.023 A 
ATOM     23  C   UNL     1      -1.944  -0.612  24.762  0.00  0.00    +0.034 C 
ATOM     24  C   UNL     1      -2.633  -1.021  24.563  0.00  0.00    +0.010 C 
ATOM     25  S   UNL     1      -1.340   0.761  24.905  0.00  0.00    -0.054 S 
ATOM     26  C   UNL     1      -1.649   1.516  24.787  0.00  0.00    +0.185 A 
ATOM     27  N   UNL     1      -1.245   2.228  24.889  0.00  0.00    -0.154 NA
ATOM     28  C   UNL     1      -1.629   2.944  24.749  0.00  0.00    +0.247 C 
ATOM     29  O   UNL     1      -2.418   2.949  24.507  0.00  0.00    -0.273 OA
ATOM     34  N   UNL     1      -2.435   1.434  24.548  0.00  0.00    -0.227 NA
ENDROOT
BRANCH  28  30
ATOM     30  C   UNL     1      -1.225   3.656  24.851  0.00  0.00    +0.079 C 
ATOM     31  C   UNL     1      -1.358   4.346  25.284  0.00  0.00    +0.009 C 
ATOM     32  C   UNL     1      -0.653   4.663  24.995  0.00  0.00    +0.001 C 
ATOM     33  C   UNL     1      -0.520   3.973  24.562  0.00  0.00    +0.009 C 
ENDBRANCH  28  30
BRANCH   2   3
ATOM      3  C   UNL     1      -1.866  -1.707  24.820  0.00  0.00    +0.184 C 
ATOM      4  O   UNL     1      -1.354  -2.342  24.947  0.00  0.00    -0.220 OA
ENDBRANCH   2   3
BRANCH  11  12
ATOM     12  C   UNL     1      -3.976   0.637  24.100  0.00  0.00    +0.093 C 
BRANCH  12  13
ATOM     13  C   UNL     1      -4.430   1.020  24.674  0.00  0.00    +0.242 C 
ATOM     14  O   UNL     1      -4.381   0.786  25.463  0.00  0.00    -0.273 OA
ATOM     15  N   UNL     1      -4.932   1.637  24.457  0.00  0.00    -0.207 NA
BRANCH  15  16
ATOM     16  C   UNL     1      -5.386   2.020  25.029  0.00  0.00    +0.095 C 
ATOM     17  C   UNL     1      -5.292   2.801  25.279  0.00  0.00    +0.022 C 
ATOM     18  C   UNL     1      -5.861   2.954  25.857  0.00  0.00    +0.002 C 
ATOM     19  C   UNL     1      -6.307   2.268  25.964  0.00  0.00    +0.002 C 
ATOM     20  C   UNL     1      -6.014   1.690  25.453  0.00  0.00    +0.022 C 
ENDBRANCH  15  16
ENDBRANCH  12  13
ENDBRANCH  11  12
TORSDOF 5
ENDMDL
MODEL 2
REMARK VINA RESULT:     -14.1      1.216      4.224
REMARK  Name = 
REMARK  5 active torsions:
REMARK  status: ('A' for Active; 'I' for Inactive)
REMARK    1  A    between atoms: C_2  and  C_3
REMARK    2  A    between atoms: C_11  and  C_12
REMARK    3  A    between atoms: C_12  and  C_13
REMARK    4  A    between atoms: N_15  and  C_16
REMARK    5  A    between atoms: C_28  and  C_30
REMARK                            x       y       z     vdW  Elec       q    Type
REMARK                         _______ _______ _______ _____ _____    ______ ____
ROOT
ATOM      1  C   UNL     1       0.077   3.303  25.541  0.00  0.00    +0.005 C 
ATOM      2  C   UNL     1      -0.629   2.969  25.276  0.00  0.00    +0.059 C 
ATOM      5  C   UNL     1      -0.798   3.768  25.162  0.00  0.00    +0.154 C 
ATOM      6  O   UNL     1      -0.236   4.340  25.355  0.00  0.00    -0.223 OA
ATOM      7  C   UNL     1      -1.530   3.995  24.855  0.00  0.00    +0.033 C 
ATOM      8  C   UNL     1      -2.091   3.424  24.662  0.00  0.00    +0.003 C 
ATOM      9  C   UNL     1      -1.923   2.625  24.777  0.00  0.00    +0.006 C 
ATOM     10  C   UNL     1      -2.653   2.852  24.470  0.00  0.00    +0.000 C 
ATOM     11  C   UNL     1      -2.485   2.052  24.584  0.00  0.00    +0.050 C 
ATOM     21  C   UNL     1      -2.316   1.253  24.698  0.00  0.00    +0.063 A 
ATOM     22  C   UNL     1      -1.584   1.026  25.005  0.00  0.00    +0.023 A 
ATOM     23  C   UNL     1      -1.023   1.597  25.198  0.00  0.00    +0.034 C 
ATOM     24  C   UNL     1      -1.191   2.397  25.084  0.00  0.00    +0.010 C 
ATOM     25  S   UNL     1      -1.575   0.202  25.057  0.00  0.00    -0.054 S 
ATOM     26  C   UNL     1      -2.300  -0.079  24.782  0.00  0.00    +0.185 A 
ATOM     27  N   UNL     1      -2.527  -0.871  24.737  0.00  0.00    -0.154 NA
ATOM     28  C   UNL     1      -3.274  -1.070  24.448  0.00  0.00    +0.247 C 
ATOM     29  O   UNL     1      -3.794  -0.477  24.205  0.00  0.00    -0.273 OA
ATOM     34  N   UNL     1      -2.758   0.570  24.560  0.00  0.00    -0.227 NA
ENDROOT
BRANCH  28  30
ATOM     30  C   UNL     1      -3.501  -1.862  24.403  0.00  0.00    +0.079 C 
ATOM     31  C   UNL     1      -4.042  -2.289  23.949  0.00  0.00    +0.009 C 
ATOM     32  C   UNL     1      -3.822  -2.982  24.339  0.00  0.00    +0.001 C 
ATOM     33  C   UNL     1      -3.282  -2.555  24.793  0.00  0.00    +0.009 C 
ENDBRANCH  28  30
BRANCH   2   3
ATOM      3  C   UNL     1      -0.215   2.286  25.483  0.00  0.00    +0.184 C 
ATOM      4  O   UNL     1       0.526   2.345  25.843  0.00  0.00    -0.220 OA
ENDBRANCH   2   3
BRANCH  11  12
ATOM     12  C   UNL     1      -3.216   2.279  24.277  0.00  0.00    +0.093 C 
BRANCH  12  13
ATOM     13  C   UNL     1      -3.886   2.278  24.760  0.00  0.00    +0.242 C 
ATOM     14  O   UNL     1      -3.802   2.219  25.579  0.00  0.00    -0.273 OA
ATOM     15  N   UNL     1      -4.636   2.334  24.425  0.00  0.00    -0.207 NA
BRANCH  15  16
ATOM     16  C   UNL     1      -5.305   2.332  24.907  0.00  0.00    +0.095 C 
ATOM     17  C   UNL     1      -5.851   1.716  24.977  0.00  0.00    +0.022 C 
ATOM     18  C   UNL     1      -6.429   1.949  25.517  0.00  0.00    +0.002 C 
ATOM     19  C   UNL     1      -6.241   2.708  25.782  0.00  0.00    +0.002 C 
ATOM     20  C   UNL     1      -5.547   2.945  25.405  0.00  0.00    +0.022 C 
ENDBRANCH  15  16
ENDBRANCH  12  13
ENDBRANCH  11  12
TORSDOF 5
ENDMDL
MODEL 3
REMARK VINA RESULT:     -13.9      1.628      5.132
REMARK  Name = 
REMARK  5 active torsions:
REMARK  status: ('A' for Active; 'I' for Inactive)
REMARK    1  A    between atoms: C_2  and  C_3
REMARK    2  A    between atoms: C_11  and  C_12
REMARK    3  A    between atoms: C_12  and  C_13
REMARK    4  A    between atoms: N_15  and  C_16
REMARK    5  A    between atoms: C_28  and  C_30
REMARK                            x       y       z     vdW  Elec       q    Type
REMARK                         _______ _______ _______ _____ _____    ______ ____
ROOT
ATOM      1  C   UNL     1      -5.539   3.722  25.677  0.00  0.00    +0.005 C 
ATOM      2  C   UNL     1      -5.016   3.217  25.289  0.00  0.00    +0.059 C 
ATOM      5  C   UNL     1      -4.731   3.945  25.029  0.00  0.00    +0.154 C 
ATOM      6  O   UNL     1      -5.092   4.643  25.279  0.00  0.00    -0.223 OA
ATOM      7  C   UNL     1      -4.084   3.975  24.516  0.00  0.00    +0.033 C 
ATOM      8  C   UNL     1      -3.723   3.278  24.266  0.00  0.00    +0.003 C 
ATOM      9  C   UNL     1      -4.008   2.550  24.526  0.00  0.00    +0.006 C 
ATOM     10  C   UNL     1      -3.363   2.580  24.015  0.00  0.00    +0.000 C 
ATOM     11  C   UNL     1      -3.648   1.851  24.276  0.00  0.00    +0.050 C 
ATOM     21  C   UNL     1      -3.933   1.123  24.537  0.00  0.00    +0.063 A 
ATOM     22  C   UNL     1      -4.580   1.092  25.049  0.00  0.00    +0.023 A 
ATOM     23  C   UNL     1      -4.940   1.790  25.299  0.00  0.00    +0.034 C 
ATOM     24  C   UNL     1      -4.655   2.519  25.039  0.00  0.00    +0.010 C 
ATOM     25  S   UNL     1      -4.737   0.299  25.212  0.00  0.00    -0.054 S 
ATOM     26  C   UNL     1      -4.189  -0.161  24.802  0.00  0.00    +0.185 A 
ATOM     27  N   UNL     1      -4.145  -0.985  24.808  0.00  0.00    -0.154 NA
ATOM     28  C   UNL     1      -3.564  -1.370  24.368  0.00  0.00    +0.247 C 
ATOM     29  O   UNL     1      -3.025  -0.932  23.921  0.00  0.00    -0.273 OA
ATOM     34  N   UNL     1      -3.692   0.348  24.385  0.00  0.00    -0.227 NA
ENDROOT
BRANCH  28  30
ATOM     30  C   UNL     1      -3.520  -2.193  24.374  0.00  0.00    +0.079 C 
ATOM     31  C   UNL     1      -3.925  -2.803  23.990  0.00  0.00    +0.009 C 
ATOM     32  C   UNL     1      -3.458  -3.359  24.382  0.00  0.00    +0.001 C 
ATOM     33  C   UNL     1      -3.054  -2.751  24.765  0.00  0.00    +0.009 C 
ENDBRANCH  28  30
BRANCH   2   3
ATOM      3  C   UNL     1      -5.483   2.664  25.685  0.00  0.00    +0.184 C 
ATOM      4  O   UNL     1      -6.064   2.917  26.213  0.00  0.00    -0.220 OA
ENDBRANCH   2   3
BRANCH  11  12
ATOM     12  C   UNL     1      -3.001   1.881  23.764  0.00  0.00    +0.093 C 
BRANCH  12  13
ATOM     13  C   UNL     1      -2.236   1.781  24.059  0.00  0.00    +0.242 C 
ATOM     14  O   UNL     1      -2.106   1.777  24.873  0.00  0.00    -0.273 OA
ATOM     15  N   UNL     1      -1.604   1.686  23.539  0.00  0.00    -0.207 NA
BRANCH  15  16
ATOM     16  C   UNL     1      -0.840   1.586  23.833  0.00  0.00    +0.095 C 
ATOM     17  C   UNL     1      -0.421   0.875  23.862  0.00  0.00    +0.022 C 
ATOM     18  C   UNL     1       0.318   1.028  24.196  0.00  0.00    +0.002 C 
ATOM     19  C   UNL     1       0.356   1.834  24.373  0.00  0.00    +0.002 C 
ATOM     20  C   UNL     1      -0.359   2.178  24.149  0.00  0.00    +0.022 C 
ENDBRANCH  15  16
ENDBRANCH  12  13
ENDBRANCH  11  12
TORSDOF 5
ENDMDL
MODEL 4
REMARK VINA RESULT:     -13.6      1.235      3.318
REMARK  Name = 
REMARK  5 active torsions:
REMARK  status: ('A' for Active; 'I' for Inactive)
REMARK    1  A    between atoms: C_2  and  C_3
REMARK    2  A    between atoms: C_11  and  C_12
REMARK    3  A    between atoms: C_12  and  C_13
REMARK    4  A    between atoms: N_15  and  C_16
REMARK    5  A    between atoms: C_28  and  C_30
REMARK                            x       y       z     vdW  Elec       q    Type
REMARK                         _______ _______ _______ _____ _____    ______ ____
ROOT
ATOM      1  C   UNL     1      -3.602  -2.904  24.007  0.00  0.00    +0.005 C 
ATOM      2  C   UNL     1      -3.372  -2.177  24.321  0.00  0.00    +0.059 C 
ATOM      5  C   UNL     1      -2.687  -2.614  24.457  0.00  0.00    +0.154 C 
ATOM      6  O   UNL     1      -2.649  -3.406  24.229  0.00  0.00    -0.223 OA
ATOM      7  C   UNL     1      -2.037  -2.259  24.823  0.00  0.00    +0.033 C 
ATOM      8  C   UNL     1      -2.074  -1.468  25.052  0.00  0.00    +0.003 C 
ATOM      9  C   UNL     1      -2.759  -1.031  24.916  0.00  0.00    +0.006 C 
ATOM     10  C   UNL     1      -2.110  -0.677  25.281  0.00  0.00    +0.000 C 
ATOM     11  C   UNL     1      -2.796  -0.239  25.145  0.00  0.00    +0.050 C 
ATOM     21  C   UNL     1      -3.482   0.198  25.008  0.00  0.00    +0.063 A 
ATOM     22  C   UNL     1      -4.132  -0.156  24.643  0.00  0.00    +0.023 A 
ATOM     23  C   UNL     1      -4.095  -0.947  24.414  0.00  0.00    +0.034 C 
ATOM     24  C   UNL     1      -3.409  -1.385  24.550  0.00  0.00    +0.010 C 
ATOM     25  S   UNL     1      -4.729   0.410  24.581  0.00  0.00    -0.054 S 
ATOM     26  C   UNL     1      -4.449   1.114  24.908  0.00  0.00    +0.185 A 
ATOM     27  N   UNL     1      -4.866   1.823  24.961  0.00  0.00    -0.154 NA
ATOM     28  C   UNL     1      -4.513   2.484  25.304  0.00  0.00    +0.247 C 
ATOM     29  O   UNL     1      -3.742   2.437  25.594  0.00  0.00    -0.273 OA
ATOM     34  N   UNL     1      -3.679   0.983  25.172  0.00  0.00    -0.227 NA
ENDROOT
BRANCH  28  30
ATOM     30  C   UNL     1      -4.930   3.194  25.358  0.00  0.00    +0.079 C 
ATOM     31  C   UNL     1      -5.610   3.443  25.755  0.00  0.00    +0.009 C 
ATOM     32  C   UNL     1      -5.520   4.198  25.433  0.00  0.00    +0.001 C 
ATOM     33  C   UNL     1      -4.842   3.949  25.037  0.00  0.00    +0.009 C 
ENDBRANCH  28  30
BRANCH   2   3
ATOM      3  C   UNL     1      -4.138  -1.992  24.076  0.00  0.00    +0.184 C 
ATOM      4  O   UNL     1      -4.589  -2.554  23.674  0.00  0.00    -0.220 OA
ENDBRANCH   2   3
BRANCH  11  12
ATOM     12  C   UNL     1      -2.147   0.115  25.510  0.00  0.00    +0.093 C 
BRANCH  12  13
ATOM     13  C   UNL     1      -1.661   0.627  25.082  0.00  0.00    +0.242 C 
ATOM     14  O   UNL     1      -1.715   0.656  24.259  0.00  0.00    -0.273 OA
ATOM     15  N   UNL     1      -1.122   1.110  25.477  0.00  0.00    -0.207 NA
BRANCH  15  16
ATOM     16  C   UNL     1      -0.636   1.622  25.049  0.00  0.00    +0.095 C 
ATOM     17  C   UNL     1      -0.746   2.435  24.963  0.00  0.00    +0.022 C 
ATOM     18  C   UNL     1      -0.133   2.727  24.494  0.00  0.00    +0.002 C 
ATOM     19  C   UNL     1       0.356   2.093  24.291  0.00  0.00    +0.002 C 
ATOM     20  C   UNL     1       0.046   1.410  24.634  0.00  0.00    +0.022 C 
ENDBRANCH  15  16
ENDBRANCH  12  13
ENDBRANCH  11  12
TORSDOF 5
ENDMDL
MODEL 5
REMARK VINA RESULT:     -13.6      1.643      4.054
REMARK  Name = 
REMARK  5 active torsions:
REMARK  status: ('A' for Active; 'I' for Inactive)
REMARK    1  A    between atoms: C_2  and  C_3
REMARK    2  A    between atoms: C_11  and  C_12
REMARK    3  A    between atoms: C_12  and  C_13
REMARK    4  A    between atoms: N_15  and  C_16
REMARK    5  A    between atoms: C_28  and  C_30
REMARK                            x       y       z     vdW  Elec       q    Type
REMARK                         _______ _______ _______ _____ _____    ______ ____
ROOT
ATOM      1  C   UNL     1      -4.804   3.753  25.827  0.00  0.00    +0.005 C 
ATOM      2  C   UNL     1      -4.505   3.085  25.447  0.00  0.00    +0.059 C 
ATOM      5  C   UNL     1      -5.309   2.899  25.454  0.00  0.00    +0.154 C 
ATOM      6  O   UNL     1      -5.851   3.422  25.791  0.00  0.00    -0.223 OA
ATOM      7  C   UNL     1      -5.571   2.189  25.125  0.00  0.00    +0.033 C 
ATOM      8  C   UNL     1      -5.030   1.665  24.789  0.00  0.00    +0.003 C 
ATOM      9  C   UNL     1      -4.227   1.851  24.782  0.00  0.00    +0.006 C 
ATOM     10  C   UNL     1      -4.489   1.142  24.453  0.00  0.00    +0.000 C 
ATOM     11  C   UNL     1      -3.685   1.327  24.445  0.00  0.00    +0.050 C 
ATOM     21  C   UNL     1      -2.881   1.513  24.438  0.00  0.00    +0.063 A 
ATOM     22  C   UNL     1      -2.619   2.223  24.768  0.00  0.00    +0.023 A 
ATOM     23  C   UNL     1      -3.160   2.747  25.104  0.00  0.00    +0.034 C 
ATOM     24  C   UNL     1      -3.964   2.561  25.111  0.00  0.00    +0.010 C 
ATOM     25  S   UNL     1      -1.799   2.256  24.680  0.00  0.00    -0.054 S 
ATOM     26  C   UNL     1      -1.555   1.568  24.298  0.00  0.00    +0.185 A 
ATOM     27  N   UNL     1      -0.778   1.373  24.099  0.00  0.00    -0.154 NA
ATOM     28  C   UNL     1      -0.617   0.661  23.716  0.00  0.00    +0.247 C 
ATOM     29  O   UNL     1      -1.232   0.144  23.529  0.00  0.00    -0.273 OA
ATOM     34  N   UNL     1      -2.223   1.109  24.148  0.00  0.00    -0.227 NA
ENDROOT
BRANCH  28  30
ATOM     30  C   UNL     1       0.160   0.466  23.517  0.00  0.00    +0.079 C 
ATOM     31  C   UNL     1       0.539  -0.214  23.244  0.00  0.00    +0.009 C 
ATOM     32  C   UNL     1       1.258   0.190  23.237  0.00  0.00    +0.001 C 
ATOM     33  C   UNL     1       0.880   0.870  23.510  0.00  0.00    +0.009 C 
ENDBRANCH  28  30
BRANCH   2   3
ATOM      3  C   UNL     1      -3.806   3.503  25.572  0.00  0.00    +0.184 C 
ATOM      4  O   UNL     1      -3.821   4.221  25.978  0.00  0.00    -0.220 OA
ENDBRANCH   2   3
BRANCH  11  12
ATOM     12  C   UNL     1      -3.947   0.618  24.116  0.00  0.00    +0.093 C 
BRANCH  12  13
ATOM     13  C   UNL     1      -3.807  -0.096  24.508  0.00  0.00    +0.242 C 
ATOM     14  O   UNL     1      -3.628  -0.095  25.313  0.00  0.00    -0.273 OA
ATOM     15  N   UNL     1      -3.846  -0.807  24.094  0.00  0.00    -0.207 NA
BRANCH  15  16
ATOM     16  C   UNL     1      -3.706  -1.520  24.484  0.00  0.00    +0.095 C 
ATOM     17  C   UNL     1      -3.684  -2.268  24.135  0.00  0.00    +0.022 C 
ATOM     18  C   UNL     1      -3.528  -2.821  24.727  0.00  0.00    +0.002 C 
ATOM     19  C   UNL     1      -3.453  -2.415  25.442  0.00  0.00    +0.002 C 
ATOM     20  C   UNL     1      -3.562  -1.611  25.292  0.00  0.00    +0.022 C 
ENDBRANCH  15  16
ENDBRANCH  12  13
ENDBRANCH  11  12
TORSDOF 5
ENDMDL
MODEL 6
REMARK VINA RESULT:     -13.4      1.736      5.478
REMARK  Name = 
REMARK  5 active torsions:
REMARK  status: ('A' for Active; 'I' for Inactive)
REMARK    1  A    between atoms: C_2  and  C_3
REMARK    2  A    between atoms: C_11  and  C_12
REMARK    3  A    between atoms: C_12  and  C_13
REMARK    4  A    between atoms: N_15  and  C_16
REMARK    5  A    between atoms: C_28  and  C_30
REMARK                            x       y       z     vdW  Elec       q    Type
REMARK                         _______ _______ _______ _____ _____    ______ ____
ROOT
ATOM      1  C   UNL     1      -2.689   4.585  25.191  0.00  0.00    +0.005 C 
ATOM      2  C   UNL     1      -2.386   3.819  25.150  0.00  0.00    +0.059 C 
ATOM      5  C   UNL     1      -1.694   4.239  25.308  0.00  0.00    +0.154 C 
ATOM      6  O   UNL     1      -1.719   5.058  25.399  0.00  0.00    -0.223 OA
ATOM      7  C   UNL     1      -0.975   3.838  25.375  0.00  0.00    +0.033 C 
ATOM      8  C   UNL     1      -0.949   3.019  25.284  0.00  0.00    +0.003 C 
ATOM      9  C   UNL     1      -1.641   2.600  25.126  0.00  0.00    +0.006 C 
ATOM     10  C   UNL     1      -0.923   2.200  25.193  0.00  0.00    +0.000 C 
ATOM     11  C   UNL     1      -1.616   1.780  25.035  0.00  0.00    +0.050 C 
ATOM     21  C   UNL     1      -2.308   1.361  24.877  0.00  0.00    +0.063 A 
ATOM     22  C   UNL     1      -3.027   1.761  24.810  0.00  0.00    +0.023 A 
ATOM     23  C   UNL     1      -3.053   2.580  24.901  0.00  0.00    +0.034 C 
ATOM     24  C   UNL     1      -2.360   3.000  25.059  0.00  0.00    +0.010 C 
ATOM     25  S   UNL     1      -3.614   1.204  24.652  0.00  0.00    -0.054 S 
ATOM     26  C   UNL     1      -3.260   0.460  24.622  0.00  0.00    +0.185 A 
ATOM     27  N   UNL     1      -3.644  -0.256  24.478  0.00  0.00    -0.154 NA
ATOM     28  C   UNL     1      -3.215  -0.959  24.464  0.00  0.00    +0.247 C 
ATOM     29  O   UNL     1      -2.400  -0.948  24.594  0.00  0.00    -0.273 OA
ATOM     34  N   UNL     1      -2.452   0.557  24.761  0.00  0.00    -0.227 NA
ENDROOT
BRANCH  28  30
ATOM     30  C   UNL     1      -3.600  -1.675  24.320  0.00  0.00    +0.079 C 
ATOM     31  C   UNL     1      -3.486  -2.457  24.558  0.00  0.00    +0.009 C 
ATOM     32  C   UNL     1      -4.144  -2.686  24.116  0.00  0.00    +0.001 C 
ATOM     33  C   UNL     1      -4.258  -1.905  23.879  0.00  0.00    +0.009 C 
ENDBRANCH  28  30
BRANCH   2   3
ATOM      3  C   UNL     1      -3.184   3.666  25.006  0.00  0.00    +0.184 C 
ATOM      4  O   UNL     1      -3.726   4.288  24.983  0.00  0.00    -0.220 OA
ENDBRANCH   2   3
BRANCH  11  12
ATOM     12  C   UNL     1      -0.897   1.380  25.102  0.00  0.00    +0.093 C 
BRANCH  12  13
ATOM     13  C   UNL     1      -0.504   1.121  24.424  0.00  0.00    +0.242 C 
ATOM     14  O   UNL     1      -0.736   1.397  23.682  0.00  0.00    -0.273 OA
ATOM     15  N   UNL     1       0.121   0.588  24.488  0.00  0.00    -0.207 NA
BRANCH  15  16
ATOM     16  C   UNL     1       0.514   0.329  23.811  0.00  0.00    +0.095 C 
ATOM     17  C   UNL     1       1.164   0.696  23.458  0.00  0.00    +0.022 C 
ATOM     18  C   UNL     1       1.379   0.252  22.797  0.00  0.00    +0.002 C 
ATOM     19  C   UNL     1       0.862  -0.389  22.741  0.00  0.00    +0.002 C 
ATOM     20  C   UNL     1       0.327  -0.342  23.368  0.00  0.00    +0.022 C 
ENDBRANCH  15  16
ENDBRANCH  12  13
ENDBRANCH  11  12
TORSDOF 5
ENDMDL
MODEL 7
REMARK VINA RESULT:     -12.3      1.243      3.611
REMARK  Name = 
REMARK  5 active torsions:
REMARK  status: ('A' for Active; 'I' for Inactive)
REMARK    1  A    between atoms: C_2  and  C_3
REMARK    2  A    between atoms: C_11  and  C_12
REMARK    3  A    between atoms: C_12  and  C_13
REMARK    4  A    between atoms: N_15  and  C_16
REMARK    5  A    between atoms: C_28  and  C_30
REMARK                            x       y       z     vdW  Elec       q    Type
REMARK                         _______ _______ _______ _____ _____    ______ ____
ROOT
ATOM      1  C   UNL     1      -0.205  -1.443  24.513  0.00  0.00    +0.005 C 
ATOM      2  C   UNL     1      -0.632  -0.745  24.405  0.00  0.00    +0.059 C 
ATOM      5  C   UNL     1       0.085  -0.529  24.060  0.00  0.00    +0.154 C 
ATOM      6  O   UNL     1       0.710  -1.067  24.034  0.00  0.00    -0.223 OA
ATOM      7  C   UNL     1       0.178   0.226  23.739  0.00  0.00    +0.033 C 
ATOM      8  C   UNL     1      -0.446   0.764  23.765  0.00  0.00    +0.003 C 
ATOM      9  C   UNL     1      -1.163   0.548  24.110  0.00  0.00    +0.006 C 
ATOM     10  C   UNL     1      -1.071   1.302  23.791  0.00  0.00    +0.000 C 
ATOM     11  C   UNL     1      -1.788   1.087  24.136  0.00  0.00    +0.050 C 
ATOM     21  C   UNL     1      -2.505   0.871  24.482  0.00  0.00    +0.063 A 
ATOM     22  C   UNL     1      -2.598   0.115  24.802  0.00  0.00    +0.023 A 
ATOM     23  C   UNL     1      -1.974  -0.423  24.777  0.00  0.00    +0.034 C 
ATOM     24  C   UNL     1      -1.256  -0.207  24.431  0.00  0.00    +0.010 C 
ATOM     25  S   UNL     1      -3.363   0.060  25.105  0.00  0.00    -0.054 S 
ATOM     26  C   UNL     1      -3.744   0.779  24.972  0.00  0.00    +0.185 A 
ATOM     27  N   UNL     1      -4.518   0.966  25.186  0.00  0.00    -0.154 NA
ATOM     28  C   UNL     1      -4.825   1.712  25.016  0.00  0.00    +0.247 C 
ATOM     29  O   UNL     1      -4.358   2.273  24.632  0.00  0.00    -0.273 OA
ATOM     34  N   UNL     1      -3.213   1.280  24.587  0.00  0.00    -0.227 NA
ENDROOT
BRANCH  28  30
ATOM     30  C   UNL     1      -5.600   1.898  25.231  0.00  0.00    +0.079 C 
ATOM     31  C   UNL     1      -5.947   2.406  25.781  0.00  0.00    +0.009 C 
ATOM     32  C   UNL     1      -6.695   2.161  25.534  0.00  0.00    +0.001 C 
ATOM     33  C   UNL     1      -6.348   1.654  24.984  0.00  0.00    +0.009 C 
ENDBRANCH  28  30
BRANCH   2   3
ATOM      3  C   UNL     1      -1.200  -1.204  24.788  0.00  0.00    +0.184 C 
ATOM      4  O   UNL     1      -1.017  -1.971  25.032  0.00  0.00    -0.220 OA
ENDBRANCH   2   3
BRANCH  11  12
ATOM     12  C   UNL     1      -1.695   1.841  23.816  0.00  0.00    +0.093 C 
BRANCH  12  13
ATOM     13  C   UNL     1      -1.566   2.488  24.313  0.00  0.00    +0.242 C 
ATOM     14  O   UNL     1      -1.350   2.365  25.100  0.00  0.00    -0.273 OA
ATOM     15  N   UNL     1      -1.651   3.254  24.023  0.00  0.00    -0.207 NA
BRANCH  15  16
ATOM     16  C   UNL     1      -1.521   3.900  24.519  0.00  0.00    +0.095 C 
ATOM     17  C   UNL     1      -2.095   4.292  24.965  0.00  0.00    +0.022 C 
ATOM     18  C   UNL     1      -1.725   4.902  25.378  0.00  0.00    +0.002 C 
ATOM     19  C   UNL     1      -0.921   4.887  25.188  0.00  0.00    +0.002 C 
ATOM     20  C   UNL     1      -0.795   4.268  24.658  0.00  0.00    +0.022 C 
ENDBRANCH  15  16
ENDBRANCH  12  13
ENDBRANCH  11  12
TORSDOF 5
ENDMDL
