MODEL 1
REMARK VINA RESULT:     -11.9      0.000      0.000
REMARK  Name = 
REMARK  7 active torsions:
REMARK  status: ('A' for Active; 'I' for Inactive)
REMARK    1  A    between atoms: C_5  and  N_8
REMARK    2  A    between atoms: N_11  and  C_12
REMARK    3  A    between atoms: C_12  and  C_13
REMARK    4  A    between atoms: C_20  and  C_21
REMARK    5  A    between atoms: C_21  and  N_22
REMARK    6  A    between atoms: N_25  and  C_26
REMARK    7  A    between atoms: C_28  and  C_32
REMARK                            x       y       z     vdW  Elec       q    Type
REMARK                         _______ _______ _______ _____ _____    ______ ____
ROOT
ATOM     13  C   UNL     1      -5.160   1.542  25.167  0.00  0.00    +0.032 C 
ATOM     14  C   UNL     1      -4.455   1.726  24.892  0.00  0.00    +0.073 C 
ATOM     15  N   UNL     1      -5.015   2.254  25.192  0.00  0.00    -0.272 NA
ATOM     16  C   UNL     1      -5.852   1.690  25.476  0.00  0.00    +0.072 C 
ATOM     17  C   UNL     1      -6.455   1.653  25.725  0.00  0.00    +0.017 C 
ATOM     18  C   UNL     1      -5.704   2.066  25.459  0.00  0.00    +0.005 C 
ATOM     19  C   UNL     1      -5.687   2.938  25.557  0.00  0.00    +0.018 C 
ATOM     20  C   UNL     1      -5.005   3.160  25.297  0.00  0.00    +0.079 C 
ENDROOT
BRANCH  13  12
ATOM     12  C   UNL     1      -5.371   0.743  25.159  0.00  0.00    +0.074 C 
BRANCH  12  11
ATOM      8  N   UNL     1      -3.648  -0.988  24.766  0.00  0.00    -0.305 N 
ATOM      9  C   UNL     1      -4.095  -0.699  24.135  0.00  0.00    +0.108 C 
ATOM     10  C   UNL     1      -4.669  -0.122  24.267  0.00  0.00    +0.094 C 
ATOM     11  N   UNL     1      -4.797   0.167  25.029  0.00  0.00    -0.270 NA
ATOM     34  C   UNL     1      -4.351  -0.122  25.660  0.00  0.00    +0.094 C 
ATOM     35  C   UNL     1      -3.777  -0.700  25.528  0.00  0.00    +0.108 C 
BRANCH   8   5
ATOM      1  F   UNL     1      -1.349  -3.297  24.242  0.00  0.00    -0.204 F 
ATOM      2  C   UNL     1      -1.924  -2.720  24.373  0.00  0.00    +0.140 A 
ATOM      3  C   UNL     1      -1.700  -1.937  24.501  0.00  0.00    +0.031 A 
ATOM      4  C   UNL     1      -2.275  -1.359  24.632  0.00  0.00    +0.017 A 
ATOM      5  C   UNL     1      -3.074  -1.566  24.635  0.00  0.00    +0.048 A 
ATOM      6  C   UNL     1      -3.297  -2.349  24.507  0.00  0.00    +0.017 A 
ATOM      7  C   UNL     1      -2.722  -2.927  24.376  0.00  0.00    +0.031 A 
ENDBRANCH   8   5
ENDBRANCH  12  11
ENDBRANCH  13  12
BRANCH  20  21
ATOM     21  C   UNL     1      -4.535   3.828  25.180  0.00  0.00    +0.133 C 
BRANCH  21  22
ATOM     22  N   UNL     1      -3.863   3.945  25.644  0.00  0.00    -0.185 NA
ATOM     23  C   UNL     1      -3.136   4.098  25.286  0.00  0.00    +0.344 C 
ATOM     24  O   UNL     1      -3.081   4.134  24.464  0.00  0.00    -0.249 OA
ATOM     25  N   UNL     1      -2.464   4.216  25.750  0.00  0.00    -0.161 NA
BRANCH  25  26
ATOM     26  C   UNL     1      -1.737   4.369  25.391  0.00  0.00    +0.076 A 
ATOM     27  C   UNL     1      -1.225   3.747  25.214  0.00  0.00    +0.027 A 
ATOM     28  C   UNL     1      -0.498   3.900  24.856  0.00  0.00    +0.070 A 
ATOM     29  C   UNL     1      -0.282   4.676  24.674  0.00  0.00    +0.010 A 
ATOM     30  C   UNL     1      -0.794   5.298  24.850  0.00  0.00    +0.002 A 
ATOM     31  C   UNL     1      -1.522   5.145  25.209  0.00  0.00    +0.017 A 
BRANCH  28  32
ATOM     32  C   UNL     1       0.015   3.278  24.679  0.00  0.00    +0.100 C 
ATOM     33  N   UNL     1       0.527   2.655  24.501  0.00  0.00    -0.191 NA
ENDBRANCH  28  32
ENDBRANCH  25  26
ENDBRANCH  21  22
ENDBRANCH  20  21
TORSDOF 7
ENDMDL
MODEL 2
REMARK VINA RESULT:     -11.8      3.630      5.699
REMARK  Name = 
REMARK  7 active torsions:
REMARK  status: ('A' for Active; 'I' for Inactive)
REMARK    1  A    between atoms: C_5  and  N_8
REMARK    2  A    between atoms: N_11  and  C_12
REMARK    3  A    between atoms: C_12  and  C_13
REMARK    4  A    between atoms: C_20  and  C_21
REMARK    5  A    between atoms: C_21  and  N_22
REMARK    6  A    between atoms: N_25  and  C_26
REMARK    7  A    between atoms: C_28  and  C_32
REMARK                            x       y       z     vdW  Elec       q    Type
REMARK                         _______ _______ _______ _____ _____    ______ ____
ROOT
ATOM     13  C   UNL     1      -1.621  -0.108  24.324  0.00  0.00    +0.032 C 
ATOM     14  C   UNL     1      -1.464   0.616  24.085  0.00  0.00    +0.073 C 
ATOM     15  N   UNL     1      -0.950  -0.029  24.058  0.00  0.00    -0.272 NA
ATOM     16  C   UNL     1      -1.464  -0.853  24.453  0.00  0.00    +0.072 C 
ATOM     17  C   UNL     1      -1.483  -1.485  24.618  0.00  0.00    +0.017 C 
ATOM     18  C   UNL     1      -1.111  -0.736  24.294  0.00  0.00    +0.005 C 
ATOM     19  C   UNL     1      -0.284  -0.808  24.009  0.00  0.00    +0.018 C 
ATOM     20  C   UNL     1      -0.090  -0.112  23.763  0.00  0.00    +0.079 C 
ENDROOT
BRANCH  13  12
ATOM     12  C   UNL     1      -2.374  -0.249  24.636  0.00  0.00    +0.074 C 
BRANCH  12  11
ATOM      8  N   UNL     1      -3.924   1.641  25.023  0.00  0.00    -0.305 N 
ATOM      9  C   UNL     1      -4.039   1.137  24.379  0.00  0.00    +0.108 C 
ATOM     10  C   UNL     1      -3.522   0.507  24.251  0.00  0.00    +0.094 C 
ATOM     11  N   UNL     1      -2.890   0.381  24.765  0.00  0.00    -0.270 NA
ATOM     34  C   UNL     1      -2.774   0.884  25.409  0.00  0.00    +0.094 C 
ATOM     35  C   UNL     1      -3.292   1.514  25.537  0.00  0.00    +0.108 C 
BRANCH   8   5
ATOM      1  F   UNL     1      -5.993   4.159  25.541  0.00  0.00    -0.204 F 
ATOM      2  C   UNL     1      -5.476   3.530  25.412  0.00  0.00    +0.140 A 
ATOM      3  C   UNL     1      -5.732   2.754  25.529  0.00  0.00    +0.031 A 
ATOM      4  C   UNL     1      -5.215   2.124  25.399  0.00  0.00    +0.017 A 
ATOM      5  C   UNL     1      -4.441   2.271  25.153  0.00  0.00    +0.048 A 
ATOM      6  C   UNL     1      -4.185   3.045  25.036  0.00  0.00    +0.017 A 
ATOM      7  C   UNL     1      -4.702   3.675  25.165  0.00  0.00    +0.031 A 
ENDBRANCH   8   5
ENDBRANCH  12  11
ENDBRANCH  13  12
BRANCH  20  21
ATOM     21  C   UNL     1       0.531   0.314  23.429  0.00  0.00    +0.133 C 
BRANCH  21  22
ATOM     22  N   UNL     1       1.164  -0.085  23.080  0.00  0.00    -0.185 NA
ATOM     23  C   UNL     1       1.927   0.224  23.132  0.00  0.00    +0.344 C 
ATOM     24  O   UNL     1       2.057   0.933  23.534  0.00  0.00    -0.249 OA
ATOM     25  N   UNL     1       2.559  -0.174  22.783  0.00  0.00    -0.161 NA
BRANCH  25  26
ATOM     26  C   UNL     1       3.322   0.135  22.836  0.00  0.00    +0.076 A 
ATOM     27  C   UNL     1       3.886  -0.237  23.308  0.00  0.00    +0.027 A 
ATOM     28  C   UNL     1       4.649   0.073  23.361  0.00  0.00    +0.070 A 
ATOM     29  C   UNL     1       4.848   0.755  22.942  0.00  0.00    +0.010 A 
ATOM     30  C   UNL     1       4.283   1.128  22.470  0.00  0.00    +0.002 A 
ATOM     31  C   UNL     1       3.520   0.818  22.417  0.00  0.00    +0.017 A 
BRANCH  28  32
ATOM     32  C   UNL     1       5.214  -0.300  23.833  0.00  0.00    +0.100 C 
ATOM     33  N   UNL     1       5.779  -0.674  24.305  0.00  0.00    -0.191 NA
ENDBRANCH  28  32
ENDBRANCH  25  26
ENDBRANCH  21  22
ENDBRANCH  20  21
TORSDOF 7
ENDMDL
MODEL 3
REMARK VINA RESULT:     -11.7      1.974      5.397
REMARK  Name = 
REMARK  7 active torsions:
REMARK  status: ('A' for Active; 'I' for Inactive)
REMARK    1  A    between atoms: C_5  and  N_8
REMARK    2  A    between atoms: N_11  and  C_12
REMARK    3  A    between atoms: C_12  and  C_13
REMARK    4  A    between atoms: C_20  and  C_21
REMARK    5  A    between atoms: C_21  and  N_22
REMARK    6  A    between atoms: N_25  and  C_26
REMARK    7  A    between atoms: C_28  and  C_32
REMARK                            x       y       z     vdW  Elec       q    Type
REMARK                         _______ _______ _______ _____ _____    ______ ____
ROOT
ATOM     13  C   UNL     1      -4.928   2.360  25.180  0.00  0.00    +0.032 C 
ATOM     14  C   UNL     1      -4.318   2.011  24.846  0.00  0.00    +0.073 C 
ATOM     15  N   UNL     1      -5.035   1.654  25.044  0.00  0.00    -0.272 NA
ATOM     16  C   UNL     1      -5.640   2.394  25.475  0.00  0.00    +0.072 C 
ATOM     17  C   UNL     1      -6.204   2.578  25.749  0.00  0.00    +0.017 C 
ATOM     18  C   UNL     1      -5.629   2.003  25.371  0.00  0.00    +0.005 C 
ATOM     19  C   UNL     1      -5.914   1.179  25.276  0.00  0.00    +0.018 C 
ATOM     20  C   UNL     1      -5.339   0.799  24.948  0.00  0.00    +0.079 C 
ENDROOT
BRANCH  13  12
ATOM     12  C   UNL     1      -4.854   3.164  25.356  0.00  0.00    +0.074 C 
BRANCH  12  11
ATOM      8  N   UNL     1      -2.663   4.288  25.105  0.00  0.00    -0.305 N 
ATOM      9  C   UNL     1      -3.154   4.188  24.449  0.00  0.00    +0.108 C 
ATOM     10  C   UNL     1      -3.884   3.813  24.533  0.00  0.00    +0.094 C 
ATOM     11  N   UNL     1      -4.124   3.538  25.273  0.00  0.00    -0.270 NA
ATOM     34  C   UNL     1      -3.634   3.638  25.929  0.00  0.00    +0.094 C 
ATOM     35  C   UNL     1      -2.903   4.012  25.845  0.00  0.00    +0.108 C 
BRANCH   8   5
ATOM      1  F   UNL     1       0.260   5.784  24.772  0.00  0.00    -0.204 F 
ATOM      2  C   UNL     1      -0.471   5.411  24.855  0.00  0.00    +0.140 A 
ATOM      3  C   UNL     1      -0.515   4.587  24.858  0.00  0.00    +0.031 A 
ATOM      4  C   UNL     1      -1.246   4.212  24.941  0.00  0.00    +0.017 A 
ATOM      5  C   UNL     1      -1.933   4.662  25.022  0.00  0.00    +0.048 A 
ATOM      6  C   UNL     1      -1.889   5.485  25.020  0.00  0.00    +0.017 A 
ATOM      7  C   UNL     1      -1.158   5.860  24.936  0.00  0.00    +0.031 A 
ENDBRANCH   8   5
ENDBRANCH  12  11
ENDBRANCH  13  12
BRANCH  20  21
ATOM     21  C   UNL     1      -5.121   0.054  24.670  0.00  0.00    +0.133 C 
BRANCH  21  22
ATOM     22  N   UNL     1      -4.689  -0.456  25.154  0.00  0.00    -0.185 NA
ATOM     23  C   UNL     1      -4.082  -0.914  24.834  0.00  0.00    +0.344 C 
ATOM     24  O   UNL     1      -3.906  -0.861  24.030  0.00  0.00    -0.249 OA
ATOM     25  N   UNL     1      -3.650  -1.424  25.318  0.00  0.00    -0.161 NA
BRANCH  25  26
ATOM     26  C   UNL     1      -3.043  -1.881  24.998  0.00  0.00    +0.076 A 
ATOM     27  C   UNL     1      -2.264  -1.610  25.025  0.00  0.00    +0.027 A 
ATOM     28  C   UNL     1      -1.657  -2.068  24.705  0.00  0.00    +0.070 A 
ATOM     29  C   UNL     1      -1.828  -2.796  24.357  0.00  0.00    +0.010 A 
ATOM     30  C   UNL     1      -2.607  -3.067  24.330  0.00  0.00    +0.002 A 
ATOM     31  C   UNL     1      -3.214  -2.609  24.650  0.00  0.00    +0.017 A 
BRANCH  28  32
ATOM     32  C   UNL     1      -0.878  -1.797  24.732  0.00  0.00    +0.100 C 
ATOM     33  N   UNL     1      -0.099  -1.525  24.760  0.00  0.00    -0.191 NA
ENDBRANCH  28  32
ENDBRANCH  25  26
ENDBRANCH  21  22
ENDBRANCH  20  21
TORSDOF 7
ENDMDL
MODEL 4
REMARK VINA RESULT:     -10.5      3.074      5.300
REMARK  Name = 
REMARK  7 active torsions:
REMARK  status: ('A' for Active; 'I' for Inactive)
REMARK    1  A    between atoms: C_5  and  N_8
REMARK    2  A    between atoms: N_11  and  C_12
REMARK    3  A    between atoms: C_12  and  C_13
REMARK    4  A    between atoms: C_20  and  C_21
REMARK    5  A    between atoms: C_21  and  N_22
REMARK    6  A    between atoms: N_25  and  C_26
REMARK    7  A    between atoms: C_28  and  C_32
REMARK                            x       y       z     vdW  Elec       q    Type
REMARK                         _______ _______ _______ _____ _____    ______ ____
ROOT
ATOM     13  C   UNL     1      -2.756  -0.995  24.649  0.00  0.00    +0.032 C 
ATOM     14  C   UNL     1      -2.343  -0.336  24.660  0.00  0.00    +0.073 C 
ATOM     15  N   UNL     1      -2.039  -1.101  24.601  0.00  0.00    -0.272 NA
ATOM     16  C   UNL     1      -2.854  -1.760  24.613  0.00  0.00    +0.072 C 
ATOM     17  C   UNL     1      -3.094  -2.367  24.595  0.00  0.00    +0.017 C 
ATOM     18  C   UNL     1      -2.451  -1.742  24.590  0.00  0.00    +0.005 C 
ATOM     19  C   UNL     1      -1.627  -2.037  24.526  0.00  0.00    +0.018 C 
ATOM     20  C   UNL     1      -1.185  -1.415  24.533  0.00  0.00    +0.079 C 
ENDROOT
BRANCH  13  12
ATOM     12  C   UNL     1      -3.578  -0.926  24.701  0.00  0.00    +0.074 C 
BRANCH  12  11
ATOM      8  N   UNL     1      -4.612   1.287  25.091  0.00  0.00    -0.305 N 
ATOM      9  C   UNL     1      -4.539   0.751  25.713  0.00  0.00    +0.108 C 
ATOM     10  C   UNL     1      -4.194   0.013  25.582  0.00  0.00    +0.094 C 
ATOM     11  N   UNL     1      -3.922  -0.189  24.830  0.00  0.00    -0.270 NA
ATOM     34  C   UNL     1      -3.996   0.348  24.208  0.00  0.00    +0.094 C 
ATOM     35  C   UNL     1      -4.341   1.086  24.338  0.00  0.00    +0.108 C 
BRANCH   8   5
ATOM      1  F   UNL     1      -5.994   4.240  25.610  0.00  0.00    -0.204 F 
ATOM      2  C   UNL     1      -5.648   3.502  25.480  0.00  0.00    +0.140 A 
ATOM      3  C   UNL     1      -6.113   2.820  25.495  0.00  0.00    +0.031 A 
ATOM      4  C   UNL     1      -5.768   2.082  25.366  0.00  0.00    +0.017 A 
ATOM      5  C   UNL     1      -4.957   2.026  25.220  0.00  0.00    +0.048 A 
ATOM      6  C   UNL     1      -4.493   2.707  25.205  0.00  0.00    +0.017 A 
ATOM      7  C   UNL     1      -4.838   3.445  25.334  0.00  0.00    +0.031 A 
ENDBRANCH   8   5
ENDBRANCH  12  11
ENDBRANCH  13  12
BRANCH  20  21
ATOM     21  C   UNL     1      -0.398  -1.171  24.500  0.00  0.00    +0.133 C 
BRANCH  21  22
ATOM     22  N   UNL     1      -0.184  -0.534  24.021  0.00  0.00    -0.185 NA
ATOM     23  C   UNL     1       0.529  -0.550  23.607  0.00  0.00    +0.344 C 
ATOM     24  O   UNL     1       1.029  -1.203  23.672  0.00  0.00    -0.249 OA
ATOM     25  N   UNL     1       0.743   0.086  23.128  0.00  0.00    -0.161 NA
BRANCH  25  26
ATOM     26  C   UNL     1       1.457   0.070  22.714  0.00  0.00    +0.076 A 
ATOM     27  C   UNL     1       2.133   0.407  23.045  0.00  0.00    +0.027 A 
ATOM     28  C   UNL     1       2.847   0.390  22.631  0.00  0.00    +0.070 A 
ATOM     29  C   UNL     1       2.885   0.036  21.886  0.00  0.00    +0.010 A 
ATOM     30  C   UNL     1       2.208  -0.300  21.555  0.00  0.00    +0.002 A 
ATOM     31  C   UNL     1       1.494  -0.284  21.969  0.00  0.00    +0.017 A 
BRANCH  28  32
ATOM     32  C   UNL     1       3.524   0.727  22.962  0.00  0.00    +0.100 C 
ATOM     33  N   UNL     1       4.201   1.064  23.292  0.00  0.00    -0.191 NA
ENDBRANCH  28  32
ENDBRANCH  25  26
ENDBRANCH  21  22
ENDBRANCH  20  21
TORSDOF 7
ENDMDL
MODEL 5
REMARK VINA RESULT:     -10.3      1.300      3.908
REMARK  Name = 
REMARK  7 active torsions:
REMARK  status: ('A' for Active; 'I' for Inactive)
REMARK    1  A    between atoms: C_5  and  N_8
REMARK    2  A    between atoms: N_11  and  C_12
REMARK    3  A    between atoms: C_12  and  C_13
REMARK    4  A    between atoms: C_20  and  C_21
REMARK    5  A    between atoms: C_21  and  N_22
REMARK    6  A    between atoms: N_25  and  C_26
REMARK    7  A    between atoms: C_28  and  C_32
REMARK                            x       y       z     vdW  Elec       q    Type
REMARK                         _______ _______ _______ _____ _____    ______ ____
ROOT
ATOM     13  C   UNL     1      -0.644   1.677  25.048  0.00  0.00    +0.032 C 
ATOM     14  C   UNL     1      -1.384   1.705  25.287  0.00  0.00    +0.073 C 
ATOM     15  N   UNL     1      -0.893   2.353  25.144  0.00  0.00    -0.272 NA
ATOM     16  C   UNL     1       0.036   1.976  24.837  0.00  0.00    +0.072 C 
ATOM     17  C   UNL     1       0.652   2.073  24.641  0.00  0.00    +0.017 C 
ATOM     18  C   UNL     1      -0.168   2.317  24.910  0.00  0.00    +0.005 C 
ATOM     19  C   UNL     1      -0.311   3.181  24.977  0.00  0.00    +0.018 C 
ATOM     20  C   UNL     1      -1.034   3.252  25.211  0.00  0.00    +0.079 C 
ENDROOT
BRANCH  13  12
ATOM     12  C   UNL     1      -0.314   0.929  24.924  0.00  0.00    +0.074 C 
BRANCH  12  11
ATOM      8  N   UNL     1      -1.780  -1.060  24.785  0.00  0.00    -0.305 N 
ATOM      9  C   UNL     1      -1.440  -0.847  25.506  0.00  0.00    +0.108 C 
ATOM     10  C   UNL     1      -0.952  -0.184  25.552  0.00  0.00    +0.094 C 
ATOM     11  N   UNL     1      -0.803   0.267  24.877  0.00  0.00    -0.270 NA
ATOM     34  C   UNL     1      -1.142   0.054  24.156  0.00  0.00    +0.094 C 
ATOM     35  C   UNL     1      -1.631  -0.609  24.110  0.00  0.00    +0.108 C 
BRANCH   8   5
ATOM      1  F   UNL     1      -3.736  -3.711  24.598  0.00  0.00    -0.204 F 
ATOM      2  C   UNL     1      -3.247  -3.049  24.644  0.00  0.00    +0.140 A 
ATOM      3  C   UNL     1      -3.555  -2.325  24.895  0.00  0.00    +0.031 A 
ATOM      4  C   UNL     1      -3.066  -1.662  24.942  0.00  0.00    +0.017 A 
ATOM      5  C   UNL     1      -2.269  -1.723  24.738  0.00  0.00    +0.048 A 
ATOM      6  C   UNL     1      -1.961  -2.446  24.488  0.00  0.00    +0.017 A 
ATOM      7  C   UNL     1      -2.450  -3.109  24.441  0.00  0.00    +0.031 A 
ENDBRANCH   8   5
ENDBRANCH  12  11
ENDBRANCH  13  12
BRANCH  20  21
ATOM     21  C   UNL     1      -1.605   3.812  25.409  0.00  0.00    +0.133 C 
BRANCH  21  22
ATOM     22  N   UNL     1      -2.261   3.922  24.920  0.00  0.00    -0.185 NA
ATOM     23  C   UNL     1      -3.022   3.817  25.219  0.00  0.00    +0.344 C 
ATOM     24  O   UNL     1      -3.128   3.601  26.008  0.00  0.00    -0.249 OA
ATOM     25  N   UNL     1      -3.677   3.927  24.730  0.00  0.00    -0.161 NA
BRANCH  25  26
ATOM     26  C   UNL     1      -4.438   3.821  25.031  0.00  0.00    +0.076 A 
ATOM     27  C   UNL     1      -4.806   3.085  24.974  0.00  0.00    +0.027 A 
ATOM     28  C   UNL     1      -5.567   2.980  25.274  0.00  0.00    +0.070 A 
ATOM     29  C   UNL     1      -5.961   3.611  25.631  0.00  0.00    +0.010 A 
ATOM     30  C   UNL     1      -5.594   4.347  25.688  0.00  0.00    +0.002 A 
ATOM     31  C   UNL     1      -4.832   4.452  25.388  0.00  0.00    +0.017 A 
BRANCH  28  32
ATOM     32  C   UNL     1      -5.935   2.243  25.217  0.00  0.00    +0.100 C 
ATOM     33  N   UNL     1      -6.302   1.506  25.160  0.00  0.00    -0.191 NA
ENDBRANCH  28  32
ENDBRANCH  25  26
ENDBRANCH  21  22
ENDBRANCH  20  21
TORSDOF 7
ENDMDL
MODEL 6
REMARK VINA RESULT:      -9.4      2.216      4.523
REMARK  Name = 
REMARK  7 active torsions:
REMARK  status: ('A' for Active; 'I' for Inactive)
REMARK    1  A    between atoms: C_5  and  N_8
REMARK    2  A    between atoms: N_11  and  C_12
REMARK    3  A    between atoms: C_12  and  C_13
REMARK    4  A    between atoms: C_20  and  C_21
REMARK    5  A    between atoms: C_21  and  N_22
REMARK    6  A    between atoms: N_25  and  C_26
REMARK    7  A    between atoms: C_28  and  C_32
REMARK                            x       y       z     vdW  Elec       q    Type
REMARK                         _______ _______ _______ _____ _____    ______ ____
ROOT
ATOM     13  C   UNL     1      -2.393  -1.567  24.577  0.00  0.00    +0.032 C 
ATOM     14  C   UNL     1      -2.399  -0.796  24.682  0.00  0.00    +0.073 C 
ATOM     15  N   UNL     1      -3.054  -1.297  24.716  0.00  0.00    -0.272 NA
ATOM     16  C   UNL     1      -2.709  -2.270  24.531  0.00  0.00    +0.072 C 
ATOM     17  C   UNL     1      -2.823  -2.909  24.462  0.00  0.00    +0.017 C 
ATOM     18  C   UNL     1      -3.040  -2.052  24.612  0.00  0.00    +0.005 C 
ATOM     19  C   UNL     1      -3.889  -1.891  24.765  0.00  0.00    +0.018 C 
ATOM     20  C   UNL     1      -3.938  -1.137  24.875  0.00  0.00    +0.079 C 
ENDROOT
BRANCH  13  12
ATOM     12  C   UNL     1      -1.664  -1.921  24.416  0.00  0.00    +0.074 C 
BRANCH  12  11
ATOM      8  N   UNL     1       0.264  -0.527  23.737  0.00  0.00    -0.305 N 
ATOM      9  C   UNL     1      -0.265  -0.804  23.168  0.00  0.00    +0.108 C 
ATOM     10  C   UNL     1      -0.908  -1.269  23.396  0.00  0.00    +0.094 C 
ATOM     11  N   UNL     1      -1.022  -1.457  24.191  0.00  0.00    -0.270 NA
ATOM     34  C   UNL     1      -0.492  -1.180  24.759  0.00  0.00    +0.094 C 
ATOM     35  C   UNL     1       0.151  -0.715  24.532  0.00  0.00    +0.108 C 
BRANCH   8   5
ATOM      1  F   UNL     1       2.836   1.334  22.834  0.00  0.00    -0.204 F 
ATOM      2  C   UNL     1       2.194   0.868  23.060  0.00  0.00    +0.140 A 
ATOM      3  C   UNL     1       1.622   1.174  23.570  0.00  0.00    +0.031 A 
ATOM      4  C   UNL     1       0.978   0.710  23.796  0.00  0.00    +0.017 A 
ATOM      5  C   UNL     1       0.908  -0.062  23.511  0.00  0.00    +0.048 A 
ATOM      6  C   UNL     1       1.479  -0.368  23.002  0.00  0.00    +0.017 A 
ATOM      7  C   UNL     1       2.122   0.097  22.776  0.00  0.00    +0.031 A 
ENDBRANCH   8   5
ENDBRANCH  12  11
ENDBRANCH  13  12
BRANCH  20  21
ATOM     21  C   UNL     1      -4.475  -0.533  25.040  0.00  0.00    +0.133 C 
BRANCH  21  22
ATOM     22  N   UNL     1      -4.446   0.172  24.612  0.00  0.00    -0.185 NA
ATOM     23  C   UNL     1      -4.610   0.888  24.985  0.00  0.00    +0.344 C 
ATOM     24  O   UNL     1      -4.803   0.900  25.788  0.00  0.00    -0.249 OA
ATOM     25  N   UNL     1      -4.582   1.593  24.558  0.00  0.00    -0.161 NA
BRANCH  25  26
ATOM     26  C   UNL     1      -4.746   2.310  24.932  0.00  0.00    +0.076 A 
ATOM     27  C   UNL     1      -4.128   2.791  25.192  0.00  0.00    +0.027 A 
ATOM     28  C   UNL     1      -4.293   3.508  25.566  0.00  0.00    +0.070 A 
ATOM     29  C   UNL     1      -5.075   3.744  25.681  0.00  0.00    +0.010 A 
ATOM     30  C   UNL     1      -5.693   3.263  25.421  0.00  0.00    +0.002 A 
ATOM     31  C   UNL     1      -5.528   2.546  25.047  0.00  0.00    +0.017 A 
BRANCH  28  32
ATOM     32  C   UNL     1      -3.675   3.989  25.826  0.00  0.00    +0.100 C 
ATOM     33  N   UNL     1      -3.056   4.469  26.085  0.00  0.00    -0.191 NA
ENDBRANCH  28  32
ENDBRANCH  25  26
ENDBRANCH  21  22
ENDBRANCH  20  21
TORSDOF 7
ENDMDL
MODEL 7
REMARK VINA RESULT:      -9.2      3.165      4.747
REMARK  Name = 
REMARK  7 active torsions:
REMARK  status: ('A' for Active; 'I' for Inactive)
REMARK    1  A    between atoms: C_5  and  N_8
REMARK    2  A    between atoms: N_11  and  C_12
REMARK    3  A    between atoms: C_12  and  C_13
REMARK    4  A    between atoms: C_20  and  C_21
REMARK    5  A    between atoms: C_21  and  N_22
REMARK    6  A    between atoms: N_25  and  C_26
REMARK    7  A    between atoms: C_28  and  C_32
REMARK                            x       y       z     vdW  Elec       q    Type
REMARK                         _______ _______ _______ _____ _____    ______ ____
ROOT
ATOM     13  C   UNL     1      -1.184   1.613  24.914  0.00  0.00    +0.032 C 
ATOM     14  C   UNL     1      -0.910   1.127  24.371  0.00  0.00    +0.073 C 
ATOM     15  N   UNL     1      -0.535   1.808  24.649  0.00  0.00    -0.272 NA
ATOM     16  C   UNL     1      -1.164   2.235  25.372  0.00  0.00    +0.072 C 
ATOM     17  C   UNL     1      -1.292   2.704  25.808  0.00  0.00    +0.017 C 
ATOM     18  C   UNL     1      -0.810   2.280  25.181  0.00  0.00    +0.005 C 
ATOM     19  C   UNL     1      -0.041   2.648  24.971  0.00  0.00    +0.018 C 
ATOM     20  C   UNL     1       0.263   2.196  24.436  0.00  0.00    +0.079 C 
ENDROOT
BRANCH  13  12
ATOM     12  C   UNL     1      -1.919   1.434  25.245  0.00  0.00    +0.074 C 
BRANCH  12  11
ATOM      8  N   UNL     1      -3.069  -0.671  24.639  0.00  0.00    -0.305 N 
ATOM      9  C   UNL     1      -2.455  -0.680  25.190  0.00  0.00    +0.108 C 
ATOM     10  C   UNL     1      -2.072   0.022  25.392  0.00  0.00    +0.094 C 
ATOM     11  N   UNL     1      -2.302   0.733  25.043  0.00  0.00    -0.270 NA
ATOM     34  C   UNL     1      -2.916   0.742  24.491  0.00  0.00    +0.094 C 
ATOM     35  C   UNL     1      -3.299   0.040  24.290  0.00  0.00    +0.108 C 
BRANCH   8   5
ATOM      1  F   UNL     1      -4.602  -3.480  23.830  0.00  0.00    -0.204 F 
ATOM      2  C   UNL     1      -4.219  -2.778  24.032  0.00  0.00    +0.140 A 
ATOM      3  C   UNL     1      -3.600  -2.788  24.577  0.00  0.00    +0.031 A 
ATOM      4  C   UNL     1      -3.216  -2.086  24.780  0.00  0.00    +0.017 A 
ATOM      5  C   UNL     1      -3.452  -1.373  24.436  0.00  0.00    +0.048 A 
ATOM      6  C   UNL     1      -4.071  -1.363  23.891  0.00  0.00    +0.017 A 
ATOM      7  C   UNL     1      -4.455  -2.065  23.689  0.00  0.00    +0.031 A 
ENDBRANCH   8   5
ENDBRANCH  12  11
ENDBRANCH  13  12
BRANCH  20  21
ATOM     21  C   UNL     1       0.924   2.111  23.951  0.00  0.00    +0.133 C 
BRANCH  21  22
ATOM     22  N   UNL     1       1.254   1.364  23.832  0.00  0.00    -0.185 NA
ATOM     23  C   UNL     1       1.994   1.291  23.476  0.00  0.00    +0.344 C 
ATOM     24  O   UNL     1       2.405   1.966  23.238  0.00  0.00    -0.249 OA
ATOM     25  N   UNL     1       2.324   0.545  23.358  0.00  0.00    -0.161 NA
BRANCH  25  26
ATOM     26  C   UNL     1       3.065   0.473  23.002  0.00  0.00    +0.076 A 
ATOM     27  C   UNL     1       3.738   0.364  23.467  0.00  0.00    +0.027 A 
ATOM     28  C   UNL     1       4.479   0.292  23.110  0.00  0.00    +0.070 A 
ATOM     29  C   UNL     1       4.547   0.329  22.289  0.00  0.00    +0.010 A 
ATOM     30  C   UNL     1       3.874   0.438  21.824  0.00  0.00    +0.002 A 
ATOM     31  C   UNL     1       3.133   0.510  22.180  0.00  0.00    +0.017 A 
BRANCH  28  32
ATOM     32  C   UNL     1       5.151   0.184  23.576  0.00  0.00    +0.100 C 
ATOM     33  N   UNL     1       5.825   0.076  24.040  0.00  0.00    -0.191 NA
ENDBRANCH  28  32
ENDBRANCH  25  26
ENDBRANCH  21  22
ENDBRANCH  20  21
TORSDOF 7
ENDMDL
MODEL 8
REMARK VINA RESULT:      -9.1      2.281      6.112
REMARK  Name = 
REMARK  7 active torsions:
REMARK  status: ('A' for Active; 'I' for Inactive)
REMARK    1  A    between atoms: C_5  and  N_8
REMARK    2  A    between atoms: N_11  and  C_12
REMARK    3  A    between atoms: C_12  and  C_13
REMARK    4  A    between atoms: C_20  and  C_21
REMARK    5  A    between atoms: C_21  and  N_22
REMARK    6  A    between atoms: N_25  and  C_26
REMARK    7  A    between atoms: C_28  and  C_32
REMARK                            x       y       z     vdW  Elec       q    Type
REMARK                         _______ _______ _______ _____ _____    ______ ____
ROOT
ATOM     13  C   UNL     1      -0.920   2.612  24.662  0.00  0.00    +0.032 C 
ATOM     14  C   UNL     1      -1.431   2.027  24.620  0.00  0.00    +0.073 C 
ATOM     15  N   UNL     1      -0.610   1.961  24.574  0.00  0.00    -0.272 NA
ATOM     16  C   UNL     1      -0.215   2.928  24.665  0.00  0.00    +0.072 C 
ATOM     17  C   UNL     1       0.297   3.333  24.688  0.00  0.00    +0.017 C 
ATOM     18  C   UNL     1      -0.115   2.539  24.617  0.00  0.00    +0.005 C 
ATOM     19  C   UNL     1       0.408   1.841  24.513  0.00  0.00    +0.018 C 
ATOM     20  C   UNL     1      -0.061   1.240  24.466  0.00  0.00    +0.079 C 
ENDROOT
BRANCH  13  12
ATOM     12  C   UNL     1      -1.224   3.374  24.763  0.00  0.00    +0.074 C 
BRANCH  12  11
ATOM      8  N   UNL     1      -3.638   3.693  25.202  0.00  0.00    -0.305 N 
ATOM      9  C   UNL     1      -3.099   3.711  25.826  0.00  0.00    +0.108 C 
ATOM     10  C   UNL     1      -2.294   3.604  25.679  0.00  0.00    +0.094 C 
ATOM     11  N   UNL     1      -2.028   3.480  24.909  0.00  0.00    -0.270 NA
ATOM     34  C   UNL     1      -2.567   3.462  24.284  0.00  0.00    +0.094 C 
ATOM     35  C   UNL     1      -3.372   3.568  24.431  0.00  0.00    +0.108 C 
BRANCH   8   5
ATOM      1  F   UNL     1      -6.859   4.116  25.786  0.00  0.00    -0.204 F 
ATOM      2  C   UNL     1      -6.054   4.011  25.640  0.00  0.00    +0.140 A 
ATOM      3  C   UNL     1      -5.731   3.251  25.642  0.00  0.00    +0.031 A 
ATOM      4  C   UNL     1      -4.925   3.145  25.496  0.00  0.00    +0.017 A 
ATOM      5  C   UNL     1      -4.444   3.799  25.348  0.00  0.00    +0.048 A 
ATOM      6  C   UNL     1      -4.767   4.557  25.346  0.00  0.00    +0.017 A 
ATOM      7  C   UNL     1      -5.572   4.664  25.492  0.00  0.00    +0.031 A 
ENDBRANCH   8   5
ENDBRANCH  12  11
ENDBRANCH  13  12
BRANCH  20  21
ATOM     21  C   UNL     1      -0.066   0.421  24.374  0.00  0.00    +0.133 C 
BRANCH  21  22
ATOM     22  N   UNL     1      -0.494  -0.050  24.898  0.00  0.00    -0.185 NA
ATOM     23  C   UNL     1      -0.943  -0.681  24.614  0.00  0.00    +0.344 C 
ATOM     24  O   UNL     1      -0.965  -0.841  23.805  0.00  0.00    -0.249 OA
ATOM     25  N   UNL     1      -1.372  -1.152  25.139  0.00  0.00    -0.161 NA
BRANCH  25  26
ATOM     26  C   UNL     1      -1.821  -1.783  24.854  0.00  0.00    +0.076 A 
ATOM     27  C   UNL     1      -2.604  -1.662  24.625  0.00  0.00    +0.027 A 
ATOM     28  C   UNL     1      -3.053  -2.293  24.340  0.00  0.00    +0.070 A 
ATOM     29  C   UNL     1      -2.720  -3.045  24.284  0.00  0.00    +0.010 A 
ATOM     30  C   UNL     1      -1.936  -3.167  24.513  0.00  0.00    +0.002 A 
ATOM     31  C   UNL     1      -1.487  -2.536  24.798  0.00  0.00    +0.017 A 
BRANCH  28  32
ATOM     32  C   UNL     1      -3.837  -2.171  24.112  0.00  0.00    +0.100 C 
ATOM     33  N   UNL     1      -4.620  -2.050  23.883  0.00  0.00    -0.191 NA
ENDBRANCH  28  32
ENDBRANCH  25  26
ENDBRANCH  21  22
ENDBRANCH  20  21
TORSDOF 7
ENDMDL
MODEL 9
REMARK VINA RESULT:      -9.0      3.070      5.491
REMARK  Name = 
REMARK  7 active torsions:
REMARK  status: ('A' for Active; 'I' for Inactive)
REMARK    1  A    between atoms: C_5  and  N_8
REMARK    2  A    between atoms: N_11  and  C_12
REMARK    3  A    between atoms: C_12  and  C_13
REMARK    4  A    between atoms: C_20  and  C_21
REMARK    5  A    between atoms: C_21  and  N_22
REMARK    6  A    between atoms: N_25  and  C_26
REMARK    7  A    between atoms: C_28  and  C_32
REMARK                            x       y       z     vdW  Elec       q    Type
REMARK                         _______ _______ _______ _____ _____    ______ ____
ROOT
ATOM     13  C   UNL     1      -1.372   3.468  24.817  0.00  0.00    +0.032 C 
ATOM     14  C   UNL     1      -1.499   2.713  24.677  0.00  0.00    +0.073 C 
ATOM     15  N   UNL     1      -0.769   3.099  24.652  0.00  0.00    -0.272 NA
ATOM     16  C   UNL     1      -0.942   4.105  24.889  0.00  0.00    +0.072 C 
ATOM     17  C   UNL     1      -0.721   4.712  24.985  0.00  0.00    +0.017 C 
ATOM     18  C   UNL     1      -0.653   3.839  24.791  0.00  0.00    +0.005 C 
ATOM     19  C   UNL     1       0.154   3.545  24.612  0.00  0.00    +0.018 C 
ATOM     20  C   UNL     1       0.073   2.800  24.467  0.00  0.00    +0.079 C 
ENDROOT
BRANCH  13  12
ATOM     12  C   UNL     1      -2.029   3.932  25.010  0.00  0.00    +0.074 C 
BRANCH  12  11
ATOM      8  N   UNL     1      -4.277   2.904  25.123  0.00  0.00    -0.305 N 
ATOM      9  C   UNL     1      -3.971   3.150  24.397  0.00  0.00    +0.108 C 
ATOM     10  C   UNL     1      -3.222   3.492  24.360  0.00  0.00    +0.094 C 
ATOM     11  N   UNL     1      -2.778   3.589  25.048  0.00  0.00    -0.270 NA
ATOM     34  C   UNL     1      -3.083   3.344  25.774  0.00  0.00    +0.094 C 
ATOM     35  C   UNL     1      -3.833   3.001  25.811  0.00  0.00    +0.108 C 
BRANCH   8   5
ATOM      1  F   UNL     1      -7.275   1.532  25.274  0.00  0.00    -0.204 F 
ATOM      2  C   UNL     1      -6.526   1.875  25.236  0.00  0.00    +0.140 A 
ATOM      3  C   UNL     1      -5.948   1.552  24.744  0.00  0.00    +0.031 A 
ATOM      4  C   UNL     1      -5.198   1.894  24.706  0.00  0.00    +0.017 A 
ATOM      5  C   UNL     1      -5.027   2.561  25.161  0.00  0.00    +0.048 A 
ATOM      6  C   UNL     1      -5.604   2.884  25.653  0.00  0.00    +0.017 A 
ATOM      7  C   UNL     1      -6.354   2.542  25.691  0.00  0.00    +0.031 A 
ENDBRANCH   8   5
ENDBRANCH  12  11
ENDBRANCH  13  12
BRANCH  20  21
ATOM     21  C   UNL     1       0.498   2.123  24.262  0.00  0.00    +0.133 C 
BRANCH  21  22
ATOM     22  N   UNL     1       1.176   2.187  23.797  0.00  0.00    -0.185 NA
ATOM     23  C   UNL     1       1.622   1.516  23.623  0.00  0.00    +0.344 C 
ATOM     24  O   UNL     1       1.390   0.780  23.914  0.00  0.00    -0.249 OA
ATOM     25  N   UNL     1       2.300   1.580  23.158  0.00  0.00    -0.161 NA
BRANCH  25  26
ATOM     26  C   UNL     1       2.746   0.908  22.983  0.00  0.00    +0.076 A 
ATOM     27  C   UNL     1       3.547   0.881  23.181  0.00  0.00    +0.027 A 
ATOM     28  C   UNL     1       3.993   0.209  23.007  0.00  0.00    +0.070 A 
ATOM     29  C   UNL     1       3.638  -0.437  22.635  0.00  0.00    +0.010 A 
ATOM     30  C   UNL     1       2.838  -0.410  22.437  0.00  0.00    +0.002 A 
ATOM     31  C   UNL     1       2.392   0.262  22.611  0.00  0.00    +0.017 A 
BRANCH  28  32
ATOM     32  C   UNL     1       4.793   0.182  23.205  0.00  0.00    +0.100 C 
ATOM     33  N   UNL     1       5.594   0.156  23.404  0.00  0.00    -0.191 NA
ENDBRANCH  28  32
ENDBRANCH  25  26
ENDBRANCH  21  22
ENDBRANCH  20  21
TORSDOF 7
ENDMDL
MODEL 10
REMARK VINA RESULT:      -9.0      3.925      6.362
REMARK  Name = 
REMARK  7 active torsions:
REMARK  status: ('A' for Active; 'I' for Inactive)
REMARK    1  A    between atoms: C_5  and  N_8
REMARK    2  A    between atoms: N_11  and  C_12
REMARK    3  A    between atoms: C_12  and  C_13
REMARK    4  A    between atoms: C_20  and  C_21
REMARK    5  A    between atoms: C_21  and  N_22
REMARK    6  A    between atoms: N_25  and  C_26
REMARK    7  A    between atoms: C_28  and  C_32
REMARK                            x       y       z     vdW  Elec       q    Type
REMARK                         _______ _______ _______ _____ _____    ______ ____
ROOT
ATOM     13  C   UNL     1      -0.886   0.379  24.349  0.00  0.00    +0.032 C 
ATOM     14  C   UNL     1      -0.434   0.887  23.971  0.00  0.00    +0.073 C 
ATOM     15  N   UNL     1      -0.348   0.066  23.974  0.00  0.00    -0.272 NA
ATOM     16  C   UNL     1      -1.112  -0.324  24.576  0.00  0.00    +0.072 C 
ATOM     17  C   UNL     1      -1.419  -0.834  24.845  0.00  0.00    +0.017 C 
ATOM     18  C   UNL     1      -0.795  -0.426  24.347  0.00  0.00    +0.005 C 
ATOM     19  C   UNL     1      -0.211  -0.950  23.954  0.00  0.00    +0.018 C 
ATOM     20  C   UNL     1       0.256  -0.485  23.568  0.00  0.00    +0.079 C 
ENDROOT
BRANCH  13  12
ATOM     12  C   UNL     1      -1.512   0.686  24.792  0.00  0.00    +0.074 C 
BRANCH  12  11
ATOM      8  N   UNL     1      -1.739   3.133  25.081  0.00  0.00    -0.305 N 
ATOM      9  C   UNL     1      -1.264   2.699  25.597  0.00  0.00    +0.108 C 
ATOM     10  C   UNL     1      -1.189   1.883  25.500  0.00  0.00    +0.094 C 
ATOM     11  N   UNL     1      -1.588   1.501  24.888  0.00  0.00    -0.270 NA
ATOM     34  C   UNL     1      -2.062   1.936  24.371  0.00  0.00    +0.094 C 
ATOM     35  C   UNL     1      -2.138   2.752  24.468  0.00  0.00    +0.108 C 
BRANCH   8   5
ATOM      1  F   UNL     1      -2.043   6.397  25.466  0.00  0.00    -0.204 F 
ATOM      2  C   UNL     1      -1.967   5.581  25.369  0.00  0.00    +0.140 A 
ATOM      3  C   UNL     1      -2.575   5.079  25.610  0.00  0.00    +0.031 A 
ATOM      4  C   UNL     1      -2.499   4.263  25.514  0.00  0.00    +0.017 A 
ATOM      5  C   UNL     1      -1.814   3.949  25.177  0.00  0.00    +0.048 A 
ATOM      6  C   UNL     1      -1.207   4.452  24.936  0.00  0.00    +0.017 A 
ATOM      7  C   UNL     1      -1.282   5.268  25.032  0.00  0.00    +0.031 A 
ENDBRANCH   8   5
ENDBRANCH  12  11
ENDBRANCH  13  12
BRANCH  20  21
ATOM     21  C   UNL     1       0.917  -0.483  23.075  0.00  0.00    +0.133 C 
BRANCH  21  22
ATOM     22  N   UNL     1       1.452   0.143  23.107  0.00  0.00    -0.185 NA
ATOM     23  C   UNL     1       2.257   0.005  22.988  0.00  0.00    +0.344 C 
ATOM     24  O   UNL     1       2.526  -0.760  22.837  0.00  0.00    -0.249 OA
ATOM     25  N   UNL     1       2.793   0.631  23.020  0.00  0.00    -0.161 NA
BRANCH  25  26
ATOM     26  C   UNL     1       3.597   0.492  22.901  0.00  0.00    +0.076 A 
ATOM     27  C   UNL     1       4.063   0.208  23.520  0.00  0.00    +0.027 A 
ATOM     28  C   UNL     1       4.868   0.069  23.401  0.00  0.00    +0.070 A 
ATOM     29  C   UNL     1       5.207   0.214  22.663  0.00  0.00    +0.010 A 
ATOM     30  C   UNL     1       4.741   0.498  22.044  0.00  0.00    +0.002 A 
ATOM     31  C   UNL     1       3.937   0.637  22.163  0.00  0.00    +0.017 A 
BRANCH  28  32
ATOM     32  C   UNL     1       5.333  -0.214  24.020  0.00  0.00    +0.100 C 
ATOM     33  N   UNL     1       5.799  -0.498  24.640  0.00  0.00    -0.191 NA
ENDBRANCH  28  32
ENDBRANCH  25  26
ENDBRANCH  21  22
ENDBRANCH  20  21
TORSDOF 7
ENDMDL
