MODEL 1
REMARK VINA RESULT:     -12.8      0.000      0.000
REMARK  Name = 
REMARK  3 active torsions:
REMARK  status: ('A' for Active; 'I' for Inactive)
REMARK    1  A    between atoms: C_5  and  C_6
REMARK    2  A    between atoms: C_6  and  N_7
REMARK    3  A    between atoms: N_19  and  C_20
REMARK                            x       y       z     vdW  Elec       q    Type
REMARK                         _______ _______ _______ _____ _____    ______ ____
ROOT
ATOM      7  N   UNL     1      -0.520   2.215  25.493  0.00  0.00    -0.258 N 
ATOM      8  C   UNL     1      -1.225   1.786  25.528  0.00  0.00    +0.117 C 
ATOM      9  C   UNL     1      -1.110   1.075  25.127  0.00  0.00    +0.117 C 
ATOM     10  C   UNL     1      -1.611   0.436  24.982  0.00  0.00    +0.117 C 
ATOM     11  N   UNL     1      -1.338  -0.214  24.555  0.00  0.00    -0.259 N 
ATOM     12  C   UNL     1      -0.563  -0.226  24.273  0.00  0.00    +0.117 C 
ATOM     13  C   UNL     1      -0.061   0.413  24.417  0.00  0.00    +0.117 C 
ATOM     14  N   UNL     1      -0.335   1.064  24.844  0.00  0.00    -0.261 N 
ATOM     15  C   UNL     1       0.029   1.768  25.071  0.00  0.00    +0.308 C 
ATOM     16  O   UNL     1       0.807   1.987  24.904  0.00  0.00    -0.252 OA
ATOM     17  C   UNL     1      -1.839  -0.854  24.410  0.00  0.00    +0.328 C 
ATOM     18  O   UNL     1      -1.566  -1.504  23.984  0.00  0.00    -0.250 OA
ATOM     19  N   UNL     1      -2.614  -0.842  24.693  0.00  0.00    -0.162 NA
ENDROOT
BRANCH  19  20
ATOM     20  C   UNL     1      -3.115  -1.481  24.549  0.00  0.00    +0.075 A 
ATOM     21  C   UNL     1      -3.034  -2.177  24.985  0.00  0.00    +0.017 A 
ATOM     22  C   UNL     1      -3.537  -2.815  24.840  0.00  0.00    +0.001 A 
ATOM     23  C   UNL     1      -4.120  -2.758  24.260  0.00  0.00    +0.000 A 
ATOM     24  C   UNL     1      -4.201  -2.062  23.824  0.00  0.00    +0.001 A 
ATOM     25  C   UNL     1      -3.699  -1.424  23.968  0.00  0.00    +0.017 A 
ENDBRANCH  19  20
BRANCH   7   6
ATOM      6  C   UNL     1      -0.388   2.959  25.824  0.00  0.00    +0.122 C 
BRANCH   6   5
ATOM      1  F   UNL     1      -2.292   5.511  24.956  0.00  0.00    -0.204 F 
ATOM      2  C   UNL     1      -1.817   4.873  25.174  0.00  0.00    +0.140 A 
ATOM      3  C   UNL     1      -2.084   4.331  25.735  0.00  0.00    +0.029 A 
ATOM      4  C   UNL     1      -1.608   3.693  25.952  0.00  0.00    -0.000 A 
ATOM      5  C   UNL     1      -0.865   3.597  25.607  0.00  0.00    -0.002 A 
ATOM     26  C   UNL     1      -0.597   4.139  25.045  0.00  0.00    -0.000 A 
ATOM     27  C   UNL     1      -1.073   4.777  24.829  0.00  0.00    +0.029 A 
ENDBRANCH   6   5
ENDBRANCH   7   6
TORSDOF 3
ENDMDL
MODEL 2
REMARK VINA RESULT:     -12.7      2.307      2.890
REMARK  Name = 
REMARK  3 active torsions:
REMARK  status: ('A' for Active; 'I' for Inactive)
REMARK    1  A    between atoms: C_5  and  C_6
REMARK    2  A    between atoms: C_6  and  N_7
REMARK    3  A    between atoms: N_19  and  C_20
REMARK                            x       y       z     vdW  Elec       q    Type
REMARK                         _______ _______ _______ _____ _____    ______ ____
ROOT
ATOM      7  N   UNL     1      -3.452   3.448  25.677  0.00  0.00    -0.258 N 
ATOM      8  C   UNL     1      -3.128   2.694  25.591  0.00  0.00    +0.117 C 
ATOM      9  C   UNL     1      -3.728   2.186  25.344  0.00  0.00    +0.117 C 
ATOM     10  C   UNL     1      -3.733   1.379  25.171  0.00  0.00    +0.117 C 
ATOM     11  N   UNL     1      -4.431   1.012  24.931  0.00  0.00    -0.259 N 
ATOM     12  C   UNL     1      -5.126   1.452  24.864  0.00  0.00    +0.117 C 
ATOM     13  C   UNL     1      -5.123   2.258  25.037  0.00  0.00    +0.117 C 
ATOM     14  N   UNL     1      -4.423   2.625  25.277  0.00  0.00    -0.261 N 
ATOM     15  C   UNL     1      -4.253   3.405  25.482  0.00  0.00    +0.308 C 
ATOM     16  O   UNL     1      -4.788   4.033  25.492  0.00  0.00    -0.252 OA
ATOM     17  C   UNL     1      -4.436   0.205  24.758  0.00  0.00    +0.328 C 
ATOM     18  O   UNL     1      -5.134  -0.162  24.518  0.00  0.00    -0.250 OA
ATOM     19  N   UNL     1      -3.741  -0.234  24.826  0.00  0.00    -0.162 NA
ENDROOT
BRANCH  19  20
ATOM     20  C   UNL     1      -3.744  -1.041  24.653  0.00  0.00    +0.075 A 
ATOM     21  C   UNL     1      -3.953  -1.301  23.898  0.00  0.00    +0.017 A 
ATOM     22  C   UNL     1      -3.956  -2.108  23.727  0.00  0.00    +0.001 A 
ATOM     23  C   UNL     1      -3.750  -2.655  24.309  0.00  0.00    +0.000 A 
ATOM     24  C   UNL     1      -3.542  -2.395  25.064  0.00  0.00    +0.001 A 
ATOM     25  C   UNL     1      -3.538  -1.588  25.236  0.00  0.00    +0.017 A 
ENDBRANCH  19  20
BRANCH   7   6
ATOM      6  C   UNL     1      -3.047   4.126  25.915  0.00  0.00    +0.122 C 
BRANCH   6   5
ATOM      1  F   UNL     1      -0.114   4.851  24.586  0.00  0.00    -0.204 F 
ATOM      2  C   UNL     1      -0.847   4.669  24.918  0.00  0.00    +0.140 A 
ATOM      3  C   UNL     1      -0.915   4.046  25.454  0.00  0.00    +0.029 A 
ATOM      4  C   UNL     1      -1.648   3.864  25.787  0.00  0.00    -0.000 A 
ATOM      5  C   UNL     1      -2.313   4.307  25.583  0.00  0.00    -0.002 A 
ATOM     26  C   UNL     1      -2.246   4.931  25.047  0.00  0.00    -0.000 A 
ATOM     27  C   UNL     1      -1.513   5.112  24.715  0.00  0.00    +0.029 A 
ENDBRANCH   6   5
ENDBRANCH   7   6
TORSDOF 3
ENDMDL
MODEL 3
REMARK VINA RESULT:     -12.0      2.580      5.827
REMARK  Name = 
REMARK  3 active torsions:
REMARK  status: ('A' for Active; 'I' for Inactive)
REMARK    1  A    between atoms: C_5  and  C_6
REMARK    2  A    between atoms: C_6  and  N_7
REMARK    3  A    between atoms: N_19  and  C_20
REMARK                            x       y       z     vdW  Elec       q    Type
REMARK                         _______ _______ _______ _____ _____    ______ ____
ROOT
ATOM      7  N   UNL     1      -3.938  -0.124  25.165  0.00  0.00    -0.258 N 
ATOM      8  C   UNL     1      -3.273   0.350  25.281  0.00  0.00    +0.117 C 
ATOM      9  C   UNL     1      -3.452   1.110  25.016  0.00  0.00    +0.117 C 
ATOM     10  C   UNL     1      -3.010   1.806  24.994  0.00  0.00    +0.117 C 
ATOM     11  N   UNL     1      -3.343   2.497  24.691  0.00  0.00    -0.259 N 
ATOM     12  C   UNL     1      -4.119   2.493  24.411  0.00  0.00    +0.117 C 
ATOM     13  C   UNL     1      -4.562   1.797  24.433  0.00  0.00    +0.117 C 
ATOM     14  N   UNL     1      -4.228   1.105  24.736  0.00  0.00    -0.261 N 
ATOM     15  C   UNL     1      -4.528   0.343  24.828  0.00  0.00    +0.308 C 
ATOM     16  O   UNL     1      -5.286   0.091  24.619  0.00  0.00    -0.252 OA
ATOM     17  C   UNL     1      -2.900   3.193  24.669  0.00  0.00    +0.328 C 
ATOM     18  O   UNL     1      -3.233   3.884  24.367  0.00  0.00    -0.250 OA
ATOM     19  N   UNL     1      -2.125   3.198  24.949  0.00  0.00    -0.162 NA
ENDROOT
BRANCH  19  20
ATOM     20  C   UNL     1      -1.681   3.893  24.927  0.00  0.00    +0.075 A 
ATOM     21  C   UNL     1      -1.959   4.572  25.303  0.00  0.00    +0.017 A 
ATOM     22  C   UNL     1      -1.515   5.267  25.281  0.00  0.00    +0.001 A 
ATOM     23  C   UNL     1      -0.794   5.283  24.882  0.00  0.00    +0.000 A 
ATOM     24  C   UNL     1      -0.516   4.604  24.505  0.00  0.00    +0.001 A 
ATOM     25  C   UNL     1      -0.959   3.909  24.527  0.00  0.00    +0.017 A 
ENDBRANCH  19  20
BRANCH   7   6
ATOM      6  C   UNL     1      -4.001  -0.925  25.352  0.00  0.00    +0.122 C 
BRANCH   6   5
ATOM      1  F   UNL     1      -1.859  -3.093  24.087  0.00  0.00    -0.204 F 
ATOM      2  C   UNL     1      -2.394  -2.551  24.404  0.00  0.00    +0.140 A 
ATOM      3  C   UNL     1      -2.178  -2.088  25.050  0.00  0.00    +0.029 A 
ATOM      4  C   UNL     1      -2.714  -1.545  25.367  0.00  0.00    -0.000 A 
ATOM      5  C   UNL     1      -3.465  -1.467  25.036  0.00  0.00    -0.002 A 
ATOM     26  C   UNL     1      -3.682  -1.931  24.389  0.00  0.00    -0.000 A 
ATOM     27  C   UNL     1      -3.146  -2.473  24.073  0.00  0.00    +0.029 A 
ENDBRANCH   6   5
ENDBRANCH   7   6
TORSDOF 3
ENDMDL
MODEL 4
REMARK VINA RESULT:     -11.8      1.881      5.308
REMARK  Name = 
REMARK  3 active torsions:
REMARK  status: ('A' for Active; 'I' for Inactive)
REMARK    1  A    between atoms: C_5  and  C_6
REMARK    2  A    between atoms: C_6  and  N_7
REMARK    3  A    between atoms: N_19  and  C_20
REMARK                            x       y       z     vdW  Elec       q    Type
REMARK                         _______ _______ _______ _____ _____    ______ ____
ROOT
ATOM      7  N   UNL     1      -1.131  -0.853  24.987  0.00  0.00    -0.258 N 
ATOM      8  C   UNL     1      -1.478  -0.147  25.237  0.00  0.00    +0.117 C 
ATOM      9  C   UNL     1      -1.072   0.476  24.882  0.00  0.00    +0.117 C 
ATOM     10  C   UNL     1      -1.169   1.294  24.925  0.00  0.00    +0.117 C 
ATOM     11  N   UNL     1      -0.668   1.792  24.500  0.00  0.00    -0.259 N 
ATOM     12  C   UNL     1      -0.070   1.472  24.031  0.00  0.00    +0.117 C 
ATOM     13  C   UNL     1       0.028   0.655  23.987  0.00  0.00    +0.117 C 
ATOM     14  N   UNL     1      -0.473   0.156  24.413  0.00  0.00    -0.261 N 
ATOM     15  C   UNL     1      -0.510  -0.665  24.478  0.00  0.00    +0.308 C 
ATOM     16  O   UNL     1      -0.012  -1.204  24.100  0.00  0.00    -0.252 OA
ATOM     17  C   UNL     1      -0.765   2.611  24.543  0.00  0.00    +0.328 C 
ATOM     18  O   UNL     1      -0.265   3.109  24.117  0.00  0.00    -0.250 OA
ATOM     19  N   UNL     1      -1.364   2.931  25.012  0.00  0.00    -0.162 NA
ENDROOT
BRANCH  19  20
ATOM     20  C   UNL     1      -1.462   3.748  25.056  0.00  0.00    +0.075 A 
ATOM     21  C   UNL     1      -0.803   4.245  25.042  0.00  0.00    +0.017 A 
ATOM     22  C   UNL     1      -0.902   5.063  25.086  0.00  0.00    +0.001 A 
ATOM     23  C   UNL     1      -1.659   5.384  25.143  0.00  0.00    +0.000 A 
ATOM     24  C   UNL     1      -2.318   4.888  25.157  0.00  0.00    +0.001 A 
ATOM     25  C   UNL     1      -2.220   4.070  25.113  0.00  0.00    +0.017 A 
ENDBRANCH  19  20
BRANCH   7   6
ATOM      6  C   UNL     1      -1.364  -1.613  25.208  0.00  0.00    +0.122 C 
BRANCH   6   5
ATOM      1  F   UNL     1      -4.373  -2.714  24.418  0.00  0.00    -0.204 F 
ATOM      2  C   UNL     1      -3.620  -2.439  24.616  0.00  0.00    +0.140 A 
ATOM      3  C   UNL     1      -3.518  -1.959  25.278  0.00  0.00    +0.029 A 
ATOM      4  C   UNL     1      -2.766  -1.683  25.476  0.00  0.00    -0.000 A 
ATOM      5  C   UNL     1      -2.116  -1.888  25.011  0.00  0.00    -0.002 A 
ATOM     26  C   UNL     1      -2.219  -2.369  24.347  0.00  0.00    -0.000 A 
ATOM     27  C   UNL     1      -2.971  -2.644  24.150  0.00  0.00    +0.029 A 
ENDBRANCH   6   5
ENDBRANCH   7   6
TORSDOF 3
ENDMDL
