MODEL 1
REMARK VINA RESULT:     -10.8      0.000      0.000
REMARK  Name = 
REMARK  6 active torsions:
REMARK  status: ('A' for Active; 'I' for Inactive)
REMARK    1  A    between atoms: C_2  and  C_4
REMARK    2  A    between atoms: C_6  and  C_7
REMARK    3  A    between atoms: C_7  and  C_8
REMARK    4  A    between atoms: N_10  and  C_12
REMARK    5  A    between atoms: C_12  and  C_13
REMARK    6  A    between atoms: C_22  and  C_23
REMARK                            x       y       z     vdW  Elec       q    Type
REMARK                         _______ _______ _______ _____ _____    ______ ____
ROOT
ATOM      4  C   UNL     1      -2.203  -1.031  24.967  0.00  0.00    +0.007 C 
ATOM      5  C   UNL     1      -2.848  -0.516  24.962  0.00  0.00    +0.005 C 
ATOM      6  C   UNL     1      -3.565  -0.758  24.633  0.00  0.00    +0.027 C 
ATOM     19  C   UNL     1      -3.637  -1.514  24.310  0.00  0.00    -0.048 C 
ATOM     20  C   UNL     1      -4.354  -1.755  23.981  0.00  0.00    +0.026 C 
ATOM     21  C   UNL     1      -2.993  -2.027  24.315  0.00  0.00    -0.032 C 
ATOM     22  C   UNL     1      -2.275  -1.787  24.644  0.00  0.00    +0.054 C 
ENDROOT
BRANCH   4   2
ATOM      1  C   UNL     1      -1.383  -0.802  26.115  0.00  0.00    +0.000 C 
ATOM      2  C   UNL     1      -1.486  -0.789  25.296  0.00  0.00    +0.000 C 
ATOM      3  C   UNL     1      -0.873  -0.535  24.808  0.00  0.00    +0.000 C 
ENDBRANCH   4   2
BRANCH  22  23
ATOM     23  C   UNL     1      -1.630  -2.301  24.650  0.00  0.00    +0.186 C 
ATOM     24  O   UNL     1      -1.678  -3.026  24.259  0.00  0.00    -0.220 OA
ENDBRANCH  22  23
BRANCH   6   7
ATOM      7  C   UNL     1      -4.210  -0.243  24.628  0.00  0.00    +0.089 C 
BRANCH   7   8
ATOM      8  C   UNL     1      -4.130   0.514  24.309  0.00  0.00    +0.226 C 
ATOM      9  O   UNL     1      -3.657   0.633  23.643  0.00  0.00    -0.275 OA
ATOM     10  N   UNL     1      -4.523   1.152  24.656  0.00  0.00    -0.274 N 
ATOM     11  C   UNL     1      -4.995   1.032  25.321  0.00  0.00    +0.115 C 
BRANCH  10  12
ATOM     12  C   UNL     1      -4.443   1.908  24.337  0.00  0.00    +0.122 C 
BRANCH  12  13
ATOM     13  C   UNL     1      -4.499   2.569  24.827  0.00  0.00    +0.017 A 
ATOM     14  C   UNL     1      -3.815   2.944  25.094  0.00  0.00    +0.001 A 
ATOM     15  C   UNL     1      -3.872   3.606  25.584  0.00  0.00    +0.020 A 
ATOM     16  C   UNL     1      -4.613   3.891  25.806  0.00  0.00    +0.099 A 
ATOM     17  N   UNL     1      -5.297   3.516  25.540  0.00  0.00    -0.243 NA
ATOM     18  C   UNL     1      -5.241   2.855  25.050  0.00  0.00    +0.096 A 
ENDBRANCH  12  13
ENDBRANCH  10  12
ENDBRANCH   7   8
ENDBRANCH   6   7
TORSDOF 6
ENDMDL
MODEL 2
REMARK VINA RESULT:     -10.7      2.031      4.545
REMARK  Name = 
REMARK  6 active torsions:
REMARK  status: ('A' for Active; 'I' for Inactive)
REMARK    1  A    between atoms: C_2  and  C_4
REMARK    2  A    between atoms: C_6  and  C_7
REMARK    3  A    between atoms: C_7  and  C_8
REMARK    4  A    between atoms: N_10  and  C_12
REMARK    5  A    between atoms: C_12  and  C_13
REMARK    6  A    between atoms: C_22  and  C_23
REMARK                            x       y       z     vdW  Elec       q    Type
REMARK                         _______ _______ _______ _____ _____    ______ ____
ROOT
ATOM      4  C   UNL     1      -1.728   3.053  25.200  0.00  0.00    +0.007 C 
ATOM      5  C   UNL     1      -2.272   2.441  25.092  0.00  0.00    +0.005 C 
ATOM      6  C   UNL     1      -3.067   2.616  24.958  0.00  0.00    +0.027 C 
ATOM     19  C   UNL     1      -3.318   3.401  24.931  0.00  0.00    -0.048 C 
ATOM     20  C   UNL     1      -4.113   3.574  24.796  0.00  0.00    +0.026 C 
ATOM     21  C   UNL     1      -2.775   4.012  25.038  0.00  0.00    -0.032 C 
ATOM     22  C   UNL     1      -1.980   3.839  25.173  0.00  0.00    +0.054 C 
ENDROOT
BRANCH   4   2
ATOM      1  C   UNL     1      -0.397   2.889  24.707  0.00  0.00    +0.000 C 
ATOM      2  C   UNL     1      -0.933   2.879  25.335  0.00  0.00    +0.000 C 
ATOM      3  C   UNL     1      -0.674   2.695  26.095  0.00  0.00    +0.000 C 
ENDBRANCH   4   2
BRANCH  22  23
ATOM     23  C   UNL     1      -1.437   4.449  25.281  0.00  0.00    +0.186 C 
ATOM     24  O   UNL     1      -1.689   5.235  25.256  0.00  0.00    -0.220 OA
ENDBRANCH  22  23
BRANCH   6   7
ATOM      7  C   UNL     1      -3.609   2.004  24.850  0.00  0.00    +0.089 C 
BRANCH   7   8
ATOM      8  C   UNL     1      -3.462   1.416  24.289  0.00  0.00    +0.226 C 
ATOM      9  O   UNL     1      -3.084   1.607  23.581  0.00  0.00    -0.275 OA
ATOM     10  N   UNL     1      -3.694   0.638  24.437  0.00  0.00    -0.274 N 
ATOM     11  C   UNL     1      -4.072   0.447  25.144  0.00  0.00    +0.115 C 
BRANCH  10  12
ATOM     12  C   UNL     1      -3.546   0.051  23.876  0.00  0.00    +0.122 C 
BRANCH  12  13
ATOM     13  C   UNL     1      -3.551  -0.743  24.100  0.00  0.00    +0.017 A 
ATOM     14  C   UNL     1      -4.200  -1.218  23.922  0.00  0.00    +0.001 A 
ATOM     15  C   UNL     1      -4.204  -2.013  24.147  0.00  0.00    +0.020 A 
ATOM     16  C   UNL     1      -3.558  -2.330  24.550  0.00  0.00    +0.099 A 
ATOM     17  N   UNL     1      -2.909  -1.854  24.728  0.00  0.00    -0.243 NA
ATOM     18  C   UNL     1      -2.904  -1.061  24.504  0.00  0.00    +0.096 A 
ENDBRANCH  12  13
ENDBRANCH  10  12
ENDBRANCH   7   8
ENDBRANCH   6   7
TORSDOF 6
ENDMDL
MODEL 3
REMARK VINA RESULT:     -10.5      1.635      4.857
REMARK  Name = 
REMARK  6 active torsions:
REMARK  status: ('A' for Active; 'I' for Inactive)
REMARK    1  A    between atoms: C_2  and  C_4
REMARK    2  A    between atoms: C_6  and  C_7
REMARK    3  A    between atoms: C_7  and  C_8
REMARK    4  A    between atoms: N_10  and  C_12
REMARK    5  A    between atoms: C_12  and  C_13
REMARK    6  A    between atoms: C_22  and  C_23
REMARK                            x       y       z     vdW  Elec       q    Type
REMARK                         _______ _______ _______ _____ _____    ______ ____
ROOT
ATOM      4  C   UNL     1      -4.267   2.911  25.097  0.00  0.00    +0.007 C 
ATOM      5  C   UNL     1      -4.177   2.121  24.874  0.00  0.00    +0.005 C 
ATOM      6  C   UNL     1      -4.835   1.626  24.835  0.00  0.00    +0.027 C 
ATOM     19  C   UNL     1      -5.584   1.920  25.018  0.00  0.00    -0.048 C 
ATOM     20  C   UNL     1      -6.242   1.425  24.978  0.00  0.00    +0.026 C 
ATOM     21  C   UNL     1      -5.674   2.709  25.241  0.00  0.00    -0.032 C 
ATOM     22  C   UNL     1      -5.016   3.205  25.280  0.00  0.00    +0.054 C 
ENDROOT
BRANCH   4   2
ATOM      1  C   UNL     1      -3.318   3.761  24.450  0.00  0.00    +0.000 C 
ATOM      2  C   UNL     1      -3.609   3.406  25.136  0.00  0.00    +0.000 C 
ATOM      3  C   UNL     1      -3.240   3.546  25.860  0.00  0.00    +0.000 C 
ENDBRANCH   4   2
BRANCH  22  23
ATOM     23  C   UNL     1      -5.106   3.993  25.503  0.00  0.00    +0.186 C 
ATOM     24  O   UNL     1      -5.850   4.279  25.716  0.00  0.00    -0.220 OA
ENDBRANCH  22  23
BRANCH   6   7
ATOM      7  C   UNL     1      -4.744   0.837  24.612  0.00  0.00    +0.089 C 
BRANCH   7   8
ATOM      8  C   UNL     1      -4.332   0.316  25.101  0.00  0.00    +0.226 C 
ATOM      9  O   UNL     1      -4.380   0.394  25.921  0.00  0.00    -0.275 OA
ATOM     10  N   UNL     1      -3.872  -0.284  24.770  0.00  0.00    -0.274 N 
ATOM     11  C   UNL     1      -3.824  -0.363  23.951  0.00  0.00    +0.115 C 
BRANCH  10  12
ATOM     12  C   UNL     1      -3.460  -0.805  25.260  0.00  0.00    +0.122 C 
BRANCH  12  13
ATOM     13  C   UNL     1      -3.150  -1.503  24.949  0.00  0.00    +0.017 A 
ATOM     14  C   UNL     1      -3.632  -2.167  24.864  0.00  0.00    +0.001 A 
ATOM     15  C   UNL     1      -3.321  -2.866  24.553  0.00  0.00    +0.020 A 
ATOM     16  C   UNL     1      -2.529  -2.899  24.327  0.00  0.00    +0.099 A 
ATOM     17  N   UNL     1      -2.047  -2.236  24.412  0.00  0.00    -0.243 NA
ATOM     18  C   UNL     1      -2.357  -1.538  24.722  0.00  0.00    +0.096 A 
ENDBRANCH  12  13
ENDBRANCH  10  12
ENDBRANCH   7   8
ENDBRANCH   6   7
TORSDOF 6
ENDMDL
MODEL 4
REMARK VINA RESULT:     -10.4      2.306      5.010
REMARK  Name = 
REMARK  6 active torsions:
REMARK  status: ('A' for Active; 'I' for Inactive)
REMARK    1  A    between atoms: C_2  and  C_4
REMARK    2  A    between atoms: C_6  and  C_7
REMARK    3  A    between atoms: C_7  and  C_8
REMARK    4  A    between atoms: N_10  and  C_12
REMARK    5  A    between atoms: C_12  and  C_13
REMARK    6  A    between atoms: C_22  and  C_23
REMARK                            x       y       z     vdW  Elec       q    Type
REMARK                         _______ _______ _______ _____ _____    ______ ____
ROOT
ATOM      4  C   UNL     1      -2.177   3.411  25.328  0.00  0.00    +0.007 C 
ATOM      5  C   UNL     1      -2.069   2.593  25.350  0.00  0.00    +0.005 C 
ATOM      6  C   UNL     1      -1.307   2.277  25.329  0.00  0.00    +0.027 C 
ATOM     19  C   UNL     1      -0.654   2.779  25.286  0.00  0.00    -0.048 C 
ATOM     20  C   UNL     1       0.107   2.463  25.265  0.00  0.00    +0.026 C 
ATOM     21  C   UNL     1      -0.762   3.596  25.263  0.00  0.00    -0.032 C 
ATOM     22  C   UNL     1      -1.524   3.913  25.284  0.00  0.00    +0.054 C 
ENDROOT
BRANCH   4   2
ATOM      1  C   UNL     1      -3.288   3.914  26.074  0.00  0.00    +0.000 C 
ATOM      2  C   UNL     1      -2.939   3.727  25.349  0.00  0.00    +0.000 C 
ATOM      3  C   UNL     1      -3.352   3.855  24.647  0.00  0.00    +0.000 C 
ENDBRANCH   4   2
BRANCH  22  23
ATOM     23  C   UNL     1      -1.632   4.730  25.261  0.00  0.00    +0.186 C 
ATOM     24  O   UNL     1      -0.999   5.224  25.075  0.00  0.00    -0.220 OA
ENDBRANCH  22  23
BRANCH   6   7
ATOM      7  C   UNL     1      -1.200   1.460  25.352  0.00  0.00    +0.089 C 
BRANCH   7   8
ATOM      8  C   UNL     1      -1.548   0.982  24.775  0.00  0.00    +0.226 C 
ATOM      9  O   UNL     1      -1.662   1.274  24.012  0.00  0.00    -0.275 OA
ATOM     10  N   UNL     1      -1.781   0.213  24.962  0.00  0.00    -0.274 N 
ATOM     11  C   UNL     1      -1.667  -0.078  25.725  0.00  0.00    +0.115 C 
BRANCH  10  12
ATOM     12  C   UNL     1      -2.129  -0.264  24.386  0.00  0.00    +0.122 C 
BRANCH  12  13
ATOM     13  C   UNL     1      -2.547  -0.939  24.608  0.00  0.00    +0.017 A 
ATOM     14  C   UNL     1      -3.344  -0.883  24.811  0.00  0.00    +0.001 A 
ATOM     15  C   UNL     1      -3.762  -1.559  25.033  0.00  0.00    +0.020 A 
ATOM     16  C   UNL     1      -3.382  -2.291  25.052  0.00  0.00    +0.099 A 
ATOM     17  N   UNL     1      -2.585  -2.347  24.849  0.00  0.00    -0.243 NA
ATOM     18  C   UNL     1      -2.167  -1.672  24.627  0.00  0.00    +0.096 A 
ENDBRANCH  12  13
ENDBRANCH  10  12
ENDBRANCH   7   8
ENDBRANCH   6   7
TORSDOF 6
ENDMDL
MODEL 5
REMARK VINA RESULT:     -10.3      2.070      2.937
REMARK  Name = 
REMARK  6 active torsions:
REMARK  status: ('A' for Active; 'I' for Inactive)
REMARK    1  A    between atoms: C_2  and  C_4
REMARK    2  A    between atoms: C_6  and  C_7
REMARK    3  A    between atoms: C_7  and  C_8
REMARK    4  A    between atoms: N_10  and  C_12
REMARK    5  A    between atoms: C_12  and  C_13
REMARK    6  A    between atoms: C_22  and  C_23
REMARK                            x       y       z     vdW  Elec       q    Type
REMARK                         _______ _______ _______ _____ _____    ______ ____
ROOT
ATOM      4  C   UNL     1      -2.600  -0.832  24.814  0.00  0.00    +0.007 C 
ATOM      5  C   UNL     1      -2.217  -0.105  24.737  0.00  0.00    +0.005 C 
ATOM      6  C   UNL     1      -1.414  -0.080  24.550  0.00  0.00    +0.027 C 
ATOM     19  C   UNL     1      -0.994  -0.781  24.440  0.00  0.00    -0.048 C 
ATOM     20  C   UNL     1      -0.191  -0.756  24.253  0.00  0.00    +0.026 C 
ATOM     21  C   UNL     1      -1.377  -1.507  24.517  0.00  0.00    -0.032 C 
ATOM     22  C   UNL     1      -2.180  -1.533  24.704  0.00  0.00    +0.054 C 
ENDROOT
BRANCH   4   2
ATOM      1  C   UNL     1      -3.968  -0.744  24.409  0.00  0.00    +0.000 C 
ATOM      2  C   UNL     1      -3.403  -0.857  25.001  0.00  0.00    +0.000 C 
ATOM      3  C   UNL     1      -3.642  -0.993  25.778  0.00  0.00    +0.000 C 
ENDBRANCH   4   2
BRANCH  22  23
ATOM     23  C   UNL     1      -2.563  -2.259  24.781  0.00  0.00    +0.186 C 
ATOM     24  O   UNL     1      -2.174  -2.955  24.567  0.00  0.00    -0.220 OA
ENDBRANCH  22  23
BRANCH   6   7
ATOM      7  C   UNL     1      -1.032   0.647  24.473  0.00  0.00    +0.089 C 
BRANCH   7   8
ATOM      8  C   UNL     1      -1.020   1.175  25.107  0.00  0.00    +0.226 C 
ATOM      9  O   UNL     1      -0.945   0.892  25.879  0.00  0.00    -0.275 OA
ATOM     10  N   UNL     1      -1.082   1.987  24.969  0.00  0.00    -0.274 N 
ATOM     11  C   UNL     1      -1.157   2.269  24.199  0.00  0.00    +0.115 C 
BRANCH  10  12
ATOM     12  C   UNL     1      -1.070   2.515  25.603  0.00  0.00    +0.122 C 
BRANCH  12  13
ATOM     13  C   UNL     1      -1.266   3.307  25.483  0.00  0.00    +0.017 A 
ATOM     14  C   UNL     1      -2.022   3.578  25.666  0.00  0.00    +0.001 A 
ATOM     15  C   UNL     1      -2.217   4.371  25.545  0.00  0.00    +0.020 A 
ATOM     16  C   UNL     1      -1.654   4.892  25.241  0.00  0.00    +0.099 A 
ATOM     17  N   UNL     1      -0.898   4.621  25.058  0.00  0.00    -0.243 NA
ATOM     18  C   UNL     1      -0.702   3.828  25.178  0.00  0.00    +0.096 A 
ENDBRANCH  12  13
ENDBRANCH  10  12
ENDBRANCH   7   8
ENDBRANCH   6   7
TORSDOF 6
ENDMDL
