MODEL 1
REMARK VINA RESULT:     -10.0      0.000      0.000
REMARK  Name = 
REMARK  6 active torsions:
REMARK  status: ('A' for Active; 'I' for Inactive)
REMARK    1  A    between atoms: C_4  and  C_15
REMARK    2  A    between atoms: C_6  and  C_8
REMARK    3  A    between atoms: C_22  and  C_23
REMARK    4  A    between atoms: C_23  and  N_24
REMARK    5  A    between atoms: N_24  and  S_25
REMARK    6  A    between atoms: S_25  and  C_28
REMARK                            x       y       z     vdW  Elec       q    Type
REMARK                         _______ _______ _______ _____ _____    ______ ____
ROOT
ATOM     15  C   UNL     1      -0.785   0.021  24.915  0.00  0.00    +0.056 C 
ATOM     16  C   UNL     1      -1.069   0.486  25.470  0.00  0.00    +0.078 C 
ATOM     17  N   UNL     1      -0.612   0.721  24.825  0.00  0.00    -0.272 NA
ATOM     18  C   UNL     1      -0.392  -0.142  24.271  0.00  0.00    +0.072 C 
ATOM     19  C   UNL     1      -0.107  -0.431  23.759  0.00  0.00    +0.018 C 
ATOM     20  C   UNL     1      -0.336   0.259  24.285  0.00  0.00    +0.010 C 
ATOM     21  C   UNL     1      -0.045   1.048  24.035  0.00  0.00    +0.018 C 
ATOM     22  C   UNL     1      -0.306   1.538  24.559  0.00  0.00    +0.077 C 
ENDROOT
BRANCH  15   4
ATOM      1  C   UNL     1       0.039  -2.642  25.552  0.00  0.00    +0.074 C 
ATOM      2  C   UNL     1      -0.542  -2.116  25.293  0.00  0.00    +0.139 A 
ATOM      3  N   UNL     1      -0.373  -1.311  25.234  0.00  0.00    -0.235 NA
ATOM      4  C   UNL     1      -0.954  -0.786  24.974  0.00  0.00    +0.063 A 
ATOM      5  C   UNL     1      -1.703  -1.065  24.774  0.00  0.00    +0.034 A 
ATOM      6  C   UNL     1      -1.872  -1.870  24.833  0.00  0.00    +0.084 A 
ATOM      7  N   UNL     1      -1.292  -2.396  25.092  0.00  0.00    -0.231 NA
BRANCH   6   8
ATOM      8  C   UNL     1      -2.622  -2.150  24.633  0.00  0.00    +0.024 A 
ATOM      9  C   UNL     1      -3.242  -2.093  25.175  0.00  0.00    +0.036 A 
ATOM     10 BR   UNL     1      -3.112  -1.755  25.916  0.00  0.00    -0.049 Br
ATOM     11  C   UNL     1      -3.992  -2.373  24.975  0.00  0.00    +0.007 A 
ATOM     12  C   UNL     1      -4.122  -2.711  24.233  0.00  0.00    +0.001 A 
ATOM     13  C   UNL     1      -3.503  -2.768  23.693  0.00  0.00    +0.000 A 
ATOM     14  C   UNL     1      -2.752  -2.488  23.892  0.00  0.00    +0.002 A 
ENDBRANCH   6   8
ENDBRANCH  15   4
BRANCH  22  23
ATOM     23  C   UNL     1      -0.309   2.337  24.763  0.00  0.00    +0.131 C 
BRANCH  23  24
ATOM     24  N   UNL     1      -0.632   2.894  24.247  0.00  0.00    -0.076 NA
BRANCH  24  25
ATOM     25  S   UNL     1      -0.939   3.600  24.540  0.00  0.00    +0.083 S 
ATOM     26  O   UNL     1      -1.668   3.426  24.195  0.00  0.00    -0.151 OA
ATOM     27  O   UNL     1      -0.210   3.775  24.886  0.00  0.00    -0.151 OA
BRANCH  25  28
ATOM     28  C   UNL     1      -1.247   4.307  24.834  0.00  0.00    +0.153 A 
ATOM     29  C   UNL     1      -0.896   5.051  24.774  0.00  0.00    +0.027 A 
ATOM     30  C   UNL     1      -1.392   5.599  25.142  0.00  0.00    +0.009 A 
ATOM     31  C   UNL     1      -2.049   5.193  25.429  0.00  0.00    +0.037 A 
ATOM     32  S   UNL     1      -1.960   4.394  25.240  0.00  0.00    -0.067 S 
ENDBRANCH  25  28
ENDBRANCH  24  25
ENDBRANCH  23  24
ENDBRANCH  22  23
TORSDOF 6
ENDMDL
MODEL 2
REMARK VINA RESULT:      -9.8      2.690      3.822
REMARK  Name = 
REMARK  6 active torsions:
REMARK  status: ('A' for Active; 'I' for Inactive)
REMARK    1  A    between atoms: C_4  and  C_15
REMARK    2  A    between atoms: C_6  and  C_8
REMARK    3  A    between atoms: C_22  and  C_23
REMARK    4  A    between atoms: C_23  and  N_24
REMARK    5  A    between atoms: N_24  and  S_25
REMARK    6  A    between atoms: S_25  and  C_28
REMARK                            x       y       z     vdW  Elec       q    Type
REMARK                         _______ _______ _______ _____ _____    ______ ____
ROOT
ATOM     15  C   UNL     1      -1.047   0.574  24.248  0.00  0.00    +0.056 C 
ATOM     16  C   UNL     1      -0.515   0.213  24.685  0.00  0.00    +0.078 C 
ATOM     17  N   UNL     1      -0.366   0.669  24.014  0.00  0.00    -0.272 NA
ATOM     18  C   UNL     1      -1.291   1.012  23.661  0.00  0.00    +0.072 C 
ATOM     19  C   UNL     1      -1.644   1.352  23.228  0.00  0.00    +0.018 C 
ATOM     20  C   UNL     1      -0.893   1.021  23.590  0.00  0.00    +0.010 C 
ATOM     21  C   UNL     1      -0.144   1.230  23.184  0.00  0.00    +0.018 C 
ATOM     22  C   UNL     1       0.409   0.891  23.586  0.00  0.00    +0.077 C 
ENDROOT
BRANCH  15   4
ATOM      1  C   UNL     1      -3.432   1.709  25.343  0.00  0.00    +0.074 C 
ATOM      2  C   UNL     1      -3.030   1.064  25.021  0.00  0.00    +0.139 A 
ATOM      3  N   UNL     1      -2.240   1.142  24.796  0.00  0.00    -0.235 NA
ATOM      4  C   UNL     1      -1.838   0.497  24.474  0.00  0.00    +0.063 A 
ATOM      5  C   UNL     1      -2.225  -0.225  24.378  0.00  0.00    +0.034 A 
ATOM      6  C   UNL     1      -3.014  -0.302  24.604  0.00  0.00    +0.084 A 
ATOM      7  N   UNL     1      -3.417   0.342  24.926  0.00  0.00    -0.231 NA
BRANCH   6   8
ATOM      8  C   UNL     1      -3.402  -1.024  24.509  0.00  0.00    +0.024 A 
ATOM      9  C   UNL     1      -3.392  -1.581  25.117  0.00  0.00    +0.036 A 
ATOM     10 BR   UNL     1      -2.994  -1.416  25.820  0.00  0.00    -0.049 Br
ATOM     11  C   UNL     1      -3.780  -2.304  25.023  0.00  0.00    +0.007 A 
ATOM     12  C   UNL     1      -4.178  -2.468  24.318  0.00  0.00    +0.001 A 
ATOM     13  C   UNL     1      -4.188  -1.912  23.711  0.00  0.00    +0.000 A 
ATOM     14  C   UNL     1      -3.800  -1.189  23.805  0.00  0.00    +0.002 A 
ENDBRANCH   6   8
ENDBRANCH  15   4
BRANCH  22  23
ATOM     23  C   UNL     1       1.226   0.786  23.615  0.00  0.00    +0.131 C 
BRANCH  23  24
ATOM     24  N   UNL     1       1.648   0.636  22.922  0.00  0.00    -0.076 NA
BRANCH  24  25
ATOM     25  S   UNL     1       2.468   0.549  22.948  0.00  0.00    +0.083 S 
ATOM     26  O   UNL     1       2.397  -0.206  22.623  0.00  0.00    -0.151 OA
ATOM     27  O   UNL     1       2.538   1.304  23.273  0.00  0.00    -0.151 OA
BRANCH  25  28
ATOM     28  C   UNL     1       3.288   0.462  22.973  0.00  0.00    +0.153 A 
ATOM     29  C   UNL     1       3.844   1.051  22.820  0.00  0.00    +0.027 A 
ATOM     30  C   UNL     1       4.596   0.723  22.908  0.00  0.00    +0.009 A 
ATOM     31  C   UNL     1       4.504  -0.069  23.116  0.00  0.00    +0.037 A 
ATOM     32  S   UNL     1       3.696  -0.232  23.156  0.00  0.00    -0.067 S 
ENDBRANCH  25  28
ENDBRANCH  24  25
ENDBRANCH  23  24
ENDBRANCH  22  23
TORSDOF 6
ENDMDL
MODEL 3
REMARK VINA RESULT:      -9.7      3.219      6.297
REMARK  Name = 
REMARK  6 active torsions:
REMARK  status: ('A' for Active; 'I' for Inactive)
REMARK    1  A    between atoms: C_4  and  C_15
REMARK    2  A    between atoms: C_6  and  C_8
REMARK    3  A    between atoms: C_22  and  C_23
REMARK    4  A    between atoms: C_23  and  N_24
REMARK    5  A    between atoms: N_24  and  S_25
REMARK    6  A    between atoms: S_25  and  C_28
REMARK                            x       y       z     vdW  Elec       q    Type
REMARK                         _______ _______ _______ _____ _____    ______ ____
ROOT
ATOM     15  C   UNL     1      -3.298   2.223  24.981  0.00  0.00    +0.056 C 
ATOM     16  C   UNL     1      -2.823   1.620  25.115  0.00  0.00    +0.078 C 
ATOM     17  N   UNL     1      -3.507   1.609  24.652  0.00  0.00    -0.272 NA
ATOM     18  C   UNL     1      -3.913   2.575  24.675  0.00  0.00    +0.072 C 
ATOM     19  C   UNL     1      -4.374   3.002  24.496  0.00  0.00    +0.018 C 
ATOM     20  C   UNL     1      -3.967   2.204  24.525  0.00  0.00    +0.010 C 
ATOM     21  C   UNL     1      -4.350   1.559  24.070  0.00  0.00    +0.018 C 
ATOM     22  C   UNL     1      -3.910   0.943  24.176  0.00  0.00    +0.077 C 
ENDROOT
BRANCH  15   4
ATOM      1  C   UNL     1      -3.772   4.208  26.982  0.00  0.00    +0.074 C 
ATOM      2  C   UNL     1      -3.339   3.936  26.334  0.00  0.00    +0.139 A 
ATOM      3  N   UNL     1      -3.534   3.216  25.982  0.00  0.00    -0.235 NA
ATOM      4  C   UNL     1      -3.102   2.944  25.334  0.00  0.00    +0.063 A 
ATOM      5  C   UNL     1      -2.476   3.390  25.038  0.00  0.00    +0.034 A 
ATOM      6  C   UNL     1      -2.281   4.110  25.390  0.00  0.00    +0.084 A 
ATOM      7  N   UNL     1      -2.712   4.383  26.038  0.00  0.00    -0.231 NA
BRANCH   6   8
ATOM      8  C   UNL     1      -1.654   4.558  25.096  0.00  0.00    +0.024 A 
ATOM      9  C   UNL     1      -0.877   4.299  25.200  0.00  0.00    +0.036 A 
ATOM     10 BR   UNL     1      -0.728   3.593  25.599  0.00  0.00    -0.049 Br
ATOM     11  C   UNL     1      -0.249   4.746  24.905  0.00  0.00    +0.007 A 
ATOM     12  C   UNL     1      -0.399   5.453  24.506  0.00  0.00    +0.001 A 
ATOM     13  C   UNL     1      -1.174   5.711  24.402  0.00  0.00    +0.000 A 
ATOM     14  C   UNL     1      -1.802   5.264  24.696  0.00  0.00    +0.002 A 
ENDBRANCH   6   8
ENDBRANCH  15   4
BRANCH  22  23
ATOM     23  C   UNL     1      -3.842   0.146  23.977  0.00  0.00    +0.131 C 
BRANCH  23  24
ATOM     24  N   UNL     1      -4.306  -0.416  24.363  0.00  0.00    -0.076 NA
BRANCH  24  25
ATOM     25  S   UNL     1      -4.087  -1.211  24.352  0.00  0.00    +0.083 S 
ATOM     26  O   UNL     1      -4.058  -1.215  25.176  0.00  0.00    -0.151 OA
ATOM     27  O   UNL     1      -4.116  -1.208  23.527  0.00  0.00    -0.151 OA
BRANCH  25  28
ATOM     28  C   UNL     1      -3.868  -2.007  24.341  0.00  0.00    +0.153 A 
ATOM     29  C   UNL     1      -4.146  -2.579  23.816  0.00  0.00    +0.027 A 
ATOM     30  C   UNL     1      -3.782  -3.296  24.003  0.00  0.00    +0.009 A 
ATOM     31  C   UNL     1      -3.279  -3.166  24.644  0.00  0.00    +0.037 A 
ATOM     32  S   UNL     1      -3.332  -2.369  24.853  0.00  0.00    -0.067 S 
ENDBRANCH  25  28
ENDBRANCH  24  25
ENDBRANCH  23  24
ENDBRANCH  22  23
TORSDOF 6
ENDMDL
MODEL 4
REMARK VINA RESULT:      -9.5      3.080      4.611
REMARK  Name = 
REMARK  6 active torsions:
REMARK  status: ('A' for Active; 'I' for Inactive)
REMARK    1  A    between atoms: C_4  and  C_15
REMARK    2  A    between atoms: C_6  and  C_8
REMARK    3  A    between atoms: C_22  and  C_23
REMARK    4  A    between atoms: C_23  and  N_24
REMARK    5  A    between atoms: N_24  and  S_25
REMARK    6  A    between atoms: S_25  and  C_28
REMARK                            x       y       z     vdW  Elec       q    Type
REMARK                         _______ _______ _______ _____ _____    ______ ____
ROOT
ATOM     15  C   UNL     1      -1.748   0.897  24.046  0.00  0.00    +0.056 C 
ATOM     16  C   UNL     1      -1.493   1.224  23.387  0.00  0.00    +0.078 C 
ATOM     17  N   UNL     1      -1.029   0.842  23.953  0.00  0.00    -0.272 NA
ATOM     18  C   UNL     1      -1.673   0.516  24.713  0.00  0.00    +0.072 C 
ATOM     19  C   UNL     1      -1.771   0.214  25.284  0.00  0.00    +0.018 C 
ATOM     20  C   UNL     1      -1.286   0.523  24.596  0.00  0.00    +0.010 C 
ATOM     21  C   UNL     1      -0.422   0.373  24.634  0.00  0.00    +0.018 C 
ATOM     22  C   UNL     1      -0.132   0.682  23.999  0.00  0.00    +0.077 C 
ENDROOT
BRANCH  15   4
ATOM      1  C   UNL     1      -4.309  -0.369  24.141  0.00  0.00    +0.074 C 
ATOM      2  C   UNL     1      -3.839   0.301  24.245  0.00  0.00    +0.139 A 
ATOM      3  N   UNL     1      -3.029   0.264  24.094  0.00  0.00    -0.235 NA
ATOM      4  C   UNL     1      -2.559   0.935  24.198  0.00  0.00    +0.063 A 
ATOM      5  C   UNL     1      -2.898   1.641  24.452  0.00  0.00    +0.034 A 
ATOM      6  C   UNL     1      -3.708   1.678  24.604  0.00  0.00    +0.084 A 
ATOM      7  N   UNL     1      -4.179   1.009  24.500  0.00  0.00    -0.231 NA
BRANCH   6   8
ATOM      8  C   UNL     1      -4.049   2.385  24.859  0.00  0.00    +0.024 A 
ATOM      9  C   UNL     1      -4.275   2.956  24.308  0.00  0.00    +0.036 A 
ATOM     10 BR   UNL     1      -4.161   2.820  23.502  0.00  0.00    -0.049 Br
ATOM     11  C   UNL     1      -4.616   3.663  24.562  0.00  0.00    +0.007 A 
ATOM     12  C   UNL     1      -4.730   3.799  25.368  0.00  0.00    +0.001 A 
ATOM     13  C   UNL     1      -4.504   3.229  25.919  0.00  0.00    +0.000 A 
ATOM     14  C   UNL     1      -4.163   2.521  25.664  0.00  0.00    +0.002 A 
ENDBRANCH   6   8
ENDBRANCH  15   4
BRANCH  22  23
ATOM     23  C   UNL     1       0.576   0.800  23.594  0.00  0.00    +0.131 C 
BRANCH  23  24
ATOM     24  N   UNL     1       1.079   0.163  23.446  0.00  0.00    -0.076 NA
BRANCH  24  25
ATOM     25  S   UNL     1       1.824   0.292  23.118  0.00  0.00    +0.083 S 
ATOM     26  O   UNL     1       1.734  -0.383  22.651  0.00  0.00    -0.151 OA
ATOM     27  O   UNL     1       1.914   0.966  23.586  0.00  0.00    -0.151 OA
BRANCH  25  28
ATOM     28  C   UNL     1       2.570   0.420  22.790  0.00  0.00    +0.153 A 
ATOM     29  C   UNL     1       3.143   0.940  23.074  0.00  0.00    +0.027 A 
ATOM     30  C   UNL     1       3.801   0.892  22.579  0.00  0.00    +0.009 A 
ATOM     31  C   UNL     1       3.635   0.342  21.989  0.00  0.00    +0.037 A 
ATOM     32  S   UNL     1       2.875   0.049  22.118  0.00  0.00    -0.067 S 
ENDBRANCH  25  28
ENDBRANCH  24  25
ENDBRANCH  23  24
ENDBRANCH  22  23
TORSDOF 6
ENDMDL
MODEL 5
REMARK VINA RESULT:      -9.2      3.357      4.744
REMARK  Name = 
REMARK  6 active torsions:
REMARK  status: ('A' for Active; 'I' for Inactive)
REMARK    1  A    between atoms: C_4  and  C_15
REMARK    2  A    between atoms: C_6  and  C_8
REMARK    3  A    between atoms: C_22  and  C_23
REMARK    4  A    between atoms: C_23  and  N_24
REMARK    5  A    between atoms: N_24  and  S_25
REMARK    6  A    between atoms: S_25  and  C_28
REMARK                            x       y       z     vdW  Elec       q    Type
REMARK                         _______ _______ _______ _____ _____    ______ ____
ROOT
ATOM     15  C   UNL     1      -0.031   0.715  24.003  0.00  0.00    +0.056 C 
ATOM     16  C   UNL     1       0.475   1.255  24.240  0.00  0.00    +0.078 C 
ATOM     17  N   UNL     1       0.625   0.653  23.696  0.00  0.00    -0.272 NA
ATOM     18  C   UNL     1      -0.260   0.100  23.596  0.00  0.00    +0.072 C 
ATOM     19  C   UNL     1      -0.594  -0.394  23.329  0.00  0.00    +0.018 C 
ATOM     20  C   UNL     1       0.122   0.127  23.468  0.00  0.00    +0.010 C 
ATOM     21  C   UNL     1       0.845  -0.082  23.015  0.00  0.00    +0.018 C 
ATOM     22  C   UNL     1       1.372   0.430  23.222  0.00  0.00    +0.077 C 
ENDROOT
BRANCH  15   4
ATOM      1  C   UNL     1      -2.004  -0.332  25.787  0.00  0.00    +0.074 C 
ATOM      2  C   UNL     1      -1.778   0.219  25.216  0.00  0.00    +0.139 A 
ATOM      3  N   UNL     1      -1.019   0.191  24.895  0.00  0.00    -0.235 NA
ATOM      4  C   UNL     1      -0.792   0.742  24.324  0.00  0.00    +0.063 A 
ATOM      5  C   UNL     1      -1.324   1.320  24.074  0.00  0.00    +0.034 A 
ATOM      6  C   UNL     1      -2.083   1.348  24.395  0.00  0.00    +0.084 A 
ATOM      7  N   UNL     1      -2.310   0.798  24.966  0.00  0.00    -0.231 NA
BRANCH   6   8
ATOM      8  C   UNL     1      -2.616   1.926  24.146  0.00  0.00    +0.024 A 
ATOM      9  C   UNL     1      -2.702   2.623  24.580  0.00  0.00    +0.036 A 
ATOM     10 BR   UNL     1      -2.254   2.741  25.262  0.00  0.00    -0.049 Br
ATOM     11  C   UNL     1      -3.235   3.202  24.331  0.00  0.00    +0.007 A 
ATOM     12  C   UNL     1      -3.682   3.083  23.647  0.00  0.00    +0.001 A 
ATOM     13  C   UNL     1      -3.597   2.387  23.214  0.00  0.00    +0.000 A 
ATOM     14  C   UNL     1      -3.064   1.808  23.463  0.00  0.00    +0.002 A 
ENDBRANCH   6   8
ENDBRANCH  15   4
BRANCH  22  23
ATOM     23  C   UNL     1       2.155   0.651  23.092  0.00  0.00    +0.131 C 
BRANCH  23  24
ATOM     24  N   UNL     1       2.686   0.113  22.762  0.00  0.00    -0.076 NA
BRANCH  24  25
ATOM     25  S   UNL     1       3.481   0.128  22.982  0.00  0.00    +0.083 S 
ATOM     26  O   UNL     1       3.435  -0.669  23.194  0.00  0.00    -0.151 OA
ATOM     27  O   UNL     1       3.526   0.924  22.771  0.00  0.00    -0.151 OA
BRANCH  25  28
ATOM     28  C   UNL     1       4.275   0.141  23.204  0.00  0.00    +0.153 A 
ATOM     29  C   UNL     1       4.796   0.773  23.103  0.00  0.00    +0.027 A 
ATOM     30  C   UNL     1       5.532   0.548  23.402  0.00  0.00    +0.009 A 
ATOM     31  C   UNL     1       5.465  -0.223  23.687  0.00  0.00    +0.037 A 
ATOM     32  S   UNL     1       4.689  -0.475  23.565  0.00  0.00    -0.067 S 
ENDBRANCH  25  28
ENDBRANCH  24  25
ENDBRANCH  23  24
ENDBRANCH  22  23
TORSDOF 6
ENDMDL
MODEL 6
REMARK VINA RESULT:      -9.0      3.427      4.873
REMARK  Name = 
REMARK  6 active torsions:
REMARK  status: ('A' for Active; 'I' for Inactive)
REMARK    1  A    between atoms: C_4  and  C_15
REMARK    2  A    between atoms: C_6  and  C_8
REMARK    3  A    between atoms: C_22  and  C_23
REMARK    4  A    between atoms: C_23  and  N_24
REMARK    5  A    between atoms: N_24  and  S_25
REMARK    6  A    between atoms: S_25  and  C_28
REMARK                            x       y       z     vdW  Elec       q    Type
REMARK                         _______ _______ _______ _____ _____    ______ ____
ROOT
ATOM     15  C   UNL     1      -1.224   2.678  24.706  0.00  0.00    +0.056 C 
ATOM     16  C   UNL     1      -1.084   2.702  23.941  0.00  0.00    +0.078 C 
ATOM     17  N   UNL     1      -0.596   2.366  24.516  0.00  0.00    -0.272 NA
ATOM     18  C   UNL     1      -1.069   2.500  25.442  0.00  0.00    +0.072 C 
ATOM     19  C   UNL     1      -1.081   2.422  26.090  0.00  0.00    +0.018 C 
ATOM     20  C   UNL     1      -0.740   2.346  25.264  0.00  0.00    +0.010 C 
ATOM     21  C   UNL     1       0.035   1.939  25.203  0.00  0.00    +0.018 C 
ATOM     22  C   UNL     1       0.210   1.942  24.460  0.00  0.00    +0.077 C 
ENDROOT
BRANCH  15   4
ATOM      1  C   UNL     1      -2.599   4.833  25.986  0.00  0.00    +0.074 C 
ATOM      2  C   UNL     1      -2.614   4.097  25.612  0.00  0.00    +0.139 A 
ATOM      3  N   UNL     1      -1.912   3.756  25.346  0.00  0.00    -0.235 NA
ATOM      4  C   UNL     1      -1.927   3.020  24.973  0.00  0.00    +0.063 A 
ATOM      5  C   UNL     1      -2.643   2.626  24.865  0.00  0.00    +0.034 A 
ATOM      6  C   UNL     1      -3.345   2.968  25.131  0.00  0.00    +0.084 A 
ATOM      7  N   UNL     1      -3.331   3.703  25.505  0.00  0.00    -0.231 NA
BRANCH   6   8
ATOM      8  C   UNL     1      -4.063   2.574  25.024  0.00  0.00    +0.024 A 
ATOM      9  C   UNL     1      -4.522   2.728  24.356  0.00  0.00    +0.036 A 
ATOM     10 BR   UNL     1      -4.263   3.275  23.795  0.00  0.00    -0.049 Br
ATOM     11  C   UNL     1      -5.239   2.335  24.248  0.00  0.00    +0.007 A 
ATOM     12  C   UNL     1      -5.498   1.788  24.810  0.00  0.00    +0.001 A 
ATOM     13  C   UNL     1      -5.039   1.635  25.477  0.00  0.00    +0.000 A 
ATOM     14  C   UNL     1      -4.321   2.027  25.585  0.00  0.00    +0.002 A 
ENDBRANCH   6   8
ENDBRANCH  15   4
BRANCH  22  23
ATOM     23  C   UNL     1       0.788   1.702  23.923  0.00  0.00    +0.131 C 
BRANCH  23  24
ATOM     24  N   UNL     1       1.034   0.915  23.907  0.00  0.00    -0.076 NA
BRANCH  24  25
ATOM     25  S   UNL     1       1.604   0.671  23.363  0.00  0.00    +0.083 S 
ATOM     26  O   UNL     1       1.111   0.054  23.124  0.00  0.00    -0.151 OA
ATOM     27  O   UNL     1       2.097   1.289  23.601  0.00  0.00    -0.151 OA
BRANCH  25  28
ATOM     28  C   UNL     1       2.174   0.427  22.818  0.00  0.00    +0.153 A 
ATOM     29  C   UNL     1       2.036  -0.021  22.140  0.00  0.00    +0.027 A 
ATOM     30  C   UNL     1       2.759  -0.137  21.759  0.00  0.00    +0.009 A 
ATOM     31  C   UNL     1       3.343   0.239  22.202  0.00  0.00    +0.037 A 
ATOM     32  S   UNL     1       2.983   0.588  22.857  0.00  0.00    -0.067 S 
ENDBRANCH  25  28
ENDBRANCH  24  25
ENDBRANCH  23  24
ENDBRANCH  22  23
TORSDOF 6
ENDMDL
MODEL 7
REMARK VINA RESULT:      -8.9      2.640      5.549
REMARK  Name = 
REMARK  6 active torsions:
REMARK  status: ('A' for Active; 'I' for Inactive)
REMARK    1  A    between atoms: C_4  and  C_15
REMARK    2  A    between atoms: C_6  and  C_8
REMARK    3  A    between atoms: C_22  and  C_23
REMARK    4  A    between atoms: C_23  and  N_24
REMARK    5  A    between atoms: N_24  and  S_25
REMARK    6  A    between atoms: S_25  and  C_28
REMARK                            x       y       z     vdW  Elec       q    Type
REMARK                         _______ _______ _______ _____ _____    ______ ____
ROOT
ATOM     15  C   UNL     1      -1.432   1.354  24.741  0.00  0.00    +0.056 C 
ATOM     16  C   UNL     1      -1.847   1.009  24.180  0.00  0.00    +0.078 C 
ATOM     17  N   UNL     1      -1.388   0.628  24.751  0.00  0.00    -0.272 NA
ATOM     18  C   UNL     1      -0.961   1.374  25.353  0.00  0.00    +0.072 C 
ATOM     19  C   UNL     1      -0.583   1.551  25.855  0.00  0.00    +0.018 C 
ATOM     20  C   UNL     1      -0.984   0.974  25.298  0.00  0.00    +0.010 C 
ATOM     21  C   UNL     1      -0.828   0.123  25.446  0.00  0.00    +0.018 C 
ATOM     22  C   UNL     1      -1.222  -0.254  24.912  0.00  0.00    +0.077 C 
ENDROOT
BRANCH  15   4
ATOM      1  C   UNL     1      -0.201   3.877  24.200  0.00  0.00    +0.074 C 
ATOM      2  C   UNL     1      -0.834   3.440  24.500  0.00  0.00    +0.139 A 
ATOM      3  N   UNL     1      -0.817   2.616  24.471  0.00  0.00    -0.235 NA
ATOM      4  C   UNL     1      -1.450   2.179  24.770  0.00  0.00    +0.063 A 
ATOM      5  C   UNL     1      -2.099   2.566  25.099  0.00  0.00    +0.034 A 
ATOM      6  C   UNL     1      -2.117   3.390  25.128  0.00  0.00    +0.084 A 
ATOM      7  N   UNL     1      -1.484   3.827  24.829  0.00  0.00    -0.231 NA
BRANCH   6   8
ATOM      8  C   UNL     1      -2.766   3.778  25.457  0.00  0.00    +0.024 A 
ATOM      9  C   UNL     1      -3.434   3.928  24.995  0.00  0.00    +0.036 A 
ATOM     10 BR   UNL     1      -3.451   3.690  24.206  0.00  0.00    -0.049 Br
ATOM     11  C   UNL     1      -4.084   4.316  25.323  0.00  0.00    +0.007 A 
ATOM     12  C   UNL     1      -4.066   4.554  26.114  0.00  0.00    +0.001 A 
ATOM     13  C   UNL     1      -3.399   4.404  26.574  0.00  0.00    +0.000 A 
ATOM     14  C   UNL     1      -2.749   4.016  26.246  0.00  0.00    +0.002 A 
ENDBRANCH   6   8
ENDBRANCH  15   4
BRANCH  22  23
ATOM     23  C   UNL     1      -1.394  -1.013  24.640  0.00  0.00    +0.131 C 
BRANCH  23  24
ATOM     24  N   UNL     1      -1.806  -1.540  25.123  0.00  0.00    -0.076 NA
BRANCH  24  25
ATOM     25  S   UNL     1      -2.437  -1.974  24.816  0.00  0.00    +0.083 S 
ATOM     26  O   UNL     1      -2.910  -1.732  25.448  0.00  0.00    -0.151 OA
ATOM     27  O   UNL     1      -1.964  -2.216  24.184  0.00  0.00    -0.151 OA
BRANCH  25  28
ATOM     28  C   UNL     1      -3.068  -2.409  24.510  0.00  0.00    +0.153 A 
ATOM     29  C   UNL     1      -3.724  -2.100  24.117  0.00  0.00    +0.027 A 
ATOM     30  C   UNL     1      -4.216  -2.728  23.907  0.00  0.00    +0.009 A 
ATOM     31  C   UNL     1      -3.864  -3.425  24.170  0.00  0.00    +0.037 A 
ATOM     32  S   UNL     1      -3.154  -3.229  24.543  0.00  0.00    -0.067 S 
ENDBRANCH  25  28
ENDBRANCH  24  25
ENDBRANCH  23  24
ENDBRANCH  22  23
TORSDOF 6
ENDMDL
