MODEL 1
REMARK VINA RESULT:     -12.4      0.000      0.000
REMARK  Name = 
REMARK  4 active torsions:
REMARK  status: ('A' for Active; 'I' for Inactive)
REMARK    1  A    between atoms: C_4  and  C_20
REMARK    2  A    between atoms: C_6  and  C_7
REMARK    3  A    between atoms: C_14  and  C_15
REMARK    4  A    between atoms: C_15  and  N_16
REMARK                            x       y       z     vdW  Elec       q    Type
REMARK                         _______ _______ _______ _____ _____    ______ ____
ROOT
ATOM      7  C   UNL     1      -3.491   1.695  24.778  0.00  0.00    +0.056 C 
ATOM      8  C   UNL     1      -3.517   2.085  25.450  0.00  0.00    +0.078 C 
ATOM      9  N   UNL     1      -3.153   2.338  24.754  0.00  0.00    -0.272 NA
ATOM     10  C   UNL     1      -3.298   1.586  24.038  0.00  0.00    +0.072 C 
ATOM     11  C   UNL     1      -3.214   1.354  23.433  0.00  0.00    +0.018 C 
ATOM     12  C   UNL     1      -3.132   1.950  24.098  0.00  0.00    +0.010 C 
ATOM     13  C   UNL     1      -2.691   2.684  23.906  0.00  0.00    +0.018 C 
ATOM     14  C   UNL     1      -2.693   3.099  24.547  0.00  0.00    +0.079 C 
ENDROOT
BRANCH   7   6
ATOM      1  C   UNL     1      -5.254   1.393  24.935  0.00  0.00    +0.153 C 
ATOM      2  N   UNL     1      -4.672   0.819  24.826  0.00  0.00    -0.253 N 
ATOM      3  N   UNL     1      -4.797   0.005  24.771  0.00  0.00    -0.174 NA
ATOM      4  C   UNL     1      -4.064  -0.359  24.665  0.00  0.00    +0.079 A 
ATOM      5  C   UNL     1      -3.486   0.229  24.654  0.00  0.00    +0.031 A 
ATOM      6  C   UNL     1      -3.862   0.957  24.754  0.00  0.00    +0.058 A 
BRANCH   4  20
ATOM     20  C   UNL     1      -3.933  -1.169  24.583  0.00  0.00    +0.042 C 
ATOM     21  C   UNL     1      -4.221  -1.569  23.921  0.00  0.00    +0.006 C 
ATOM     22  C   UNL     1      -4.089  -2.379  23.841  0.00  0.00    +0.000 C 
ATOM     23  C   UNL     1      -3.671  -2.790  24.421  0.00  0.00    +0.000 C 
ATOM     24  C   UNL     1      -3.384  -2.390  25.083  0.00  0.00    +0.000 C 
ATOM     25  C   UNL     1      -3.515  -1.580  25.164  0.00  0.00    +0.006 C 
ENDBRANCH   4  20
ENDBRANCH   7   6
BRANCH  14  15
ATOM     15  C   UNL     1      -2.433   3.814  24.864  0.00  0.00    +0.131 C 
BRANCH  15  16
ATOM     16  N   UNL     1      -1.661   4.069  24.729  0.00  0.00    -0.204 NA
ATOM     17  C   UNL     1      -1.402   4.785  25.047  0.00  0.00    +0.242 C 
ATOM     18  C   UNL     1      -0.629   5.040  24.912  0.00  0.00    +0.096 C 
ATOM     19  O   UNL     1      -1.916   5.246  25.499  0.00  0.00    -0.273 OA
ENDBRANCH  15  16
ENDBRANCH  14  15
TORSDOF 4
ENDMDL
MODEL 2
REMARK VINA RESULT:     -11.1      1.855      4.938
REMARK  Name = 
REMARK  4 active torsions:
REMARK  status: ('A' for Active; 'I' for Inactive)
REMARK    1  A    between atoms: C_4  and  C_20
REMARK    2  A    between atoms: C_6  and  C_7
REMARK    3  A    between atoms: C_14  and  C_15
REMARK    4  A    between atoms: C_15  and  N_16
REMARK                            x       y       z     vdW  Elec       q    Type
REMARK                         _______ _______ _______ _____ _____    ______ ____
ROOT
ATOM      7  C   UNL     1      -3.596   1.345  24.619  0.00  0.00    +0.056 C 
ATOM      8  C   UNL     1      -3.910   0.910  25.182  0.00  0.00    +0.078 C 
ATOM      9  N   UNL     1      -3.731   0.660  24.416  0.00  0.00    -0.272 NA
ATOM     10  C   UNL     1      -3.321   1.482  23.910  0.00  0.00    +0.072 C 
ATOM     11  C   UNL     1      -3.064   1.746  23.371  0.00  0.00    +0.018 C 
ATOM     12  C   UNL     1      -3.422   1.092  23.869  0.00  0.00    +0.010 C 
ATOM     13  C   UNL     1      -3.521   0.315  23.473  0.00  0.00    +0.018 C 
ATOM     14  C   UNL     1      -3.831  -0.145  23.998  0.00  0.00    +0.079 C 
ENDROOT
BRANCH   7   6
ATOM      1  C   UNL     1      -4.781   2.599  25.115  0.00  0.00    +0.153 C 
ATOM      2  N   UNL     1      -3.968   2.708  25.028  0.00  0.00    -0.253 N 
ATOM      3  N   UNL     1      -3.556   3.412  25.154  0.00  0.00    -0.174 NA
ATOM      4  C   UNL     1      -2.758   3.271  25.004  0.00  0.00    +0.079 A 
ATOM      5  C   UNL     1      -2.675   2.480  24.785  0.00  0.00    +0.031 A 
ATOM      6  C   UNL     1      -3.423   2.132  24.800  0.00  0.00    +0.058 A 
BRANCH   4  20
ATOM     20  C   UNL     1      -2.149   3.825  25.062  0.00  0.00    +0.042 C 
ATOM     21  C   UNL     1      -1.365   3.572  25.115  0.00  0.00    +0.006 C 
ATOM     22  C   UNL     1      -0.757   4.126  25.174  0.00  0.00    +0.000 C 
ATOM     23  C   UNL     1      -0.932   4.932  25.179  0.00  0.00    +0.000 C 
ATOM     24  C   UNL     1      -1.715   5.185  25.126  0.00  0.00    +0.000 C 
ATOM     25  C   UNL     1      -2.324   4.631  25.068  0.00  0.00    +0.006 C 
ENDBRANCH   4  20
ENDBRANCH   7   6
BRANCH  14  15
ATOM     15  C   UNL     1      -4.098  -0.916  24.117  0.00  0.00    +0.131 C 
BRANCH  15  16
ATOM     16  N   UNL     1      -3.571  -1.502  24.360  0.00  0.00    -0.204 NA
ATOM     17  C   UNL     1      -3.778  -2.297  24.288  0.00  0.00    +0.242 C 
ATOM     18  C   UNL     1      -3.252  -2.884  24.531  0.00  0.00    +0.096 C 
ATOM     19  O   UNL     1      -4.512  -2.506  23.973  0.00  0.00    -0.273 OA
ENDBRANCH  15  16
ENDBRANCH  14  15
TORSDOF 4
ENDMDL
MODEL 3
REMARK VINA RESULT:     -10.8      2.140      5.281
REMARK  Name = 
REMARK  4 active torsions:
REMARK  status: ('A' for Active; 'I' for Inactive)
REMARK    1  A    between atoms: C_4  and  C_20
REMARK    2  A    between atoms: C_6  and  C_7
REMARK    3  A    between atoms: C_14  and  C_15
REMARK    4  A    between atoms: C_15  and  N_16
REMARK                            x       y       z     vdW  Elec       q    Type
REMARK                         _______ _______ _______ _____ _____    ______ ____
ROOT
ATOM      7  C   UNL     1      -2.022   0.881  24.833  0.00  0.00    +0.056 C 
ATOM      8  C   UNL     1      -1.829   0.356  25.374  0.00  0.00    +0.078 C 
ATOM      9  N   UNL     1      -2.426   0.277  24.810  0.00  0.00    -0.272 NA
ATOM     10  C   UNL     1      -2.427   1.154  24.236  0.00  0.00    +0.072 C 
ATOM     11  C   UNL     1      -2.672   1.514  23.749  0.00  0.00    +0.018 C 
ATOM     12  C   UNL     1      -2.609   0.796  24.282  0.00  0.00    +0.010 C 
ATOM     13  C   UNL     1      -3.175   0.145  24.122  0.00  0.00    +0.018 C 
ATOM     14  C   UNL     1      -3.018  -0.396  24.637  0.00  0.00    +0.079 C 
ENDROOT
BRANCH   7   6
ATOM      1  C   UNL     1      -0.267   1.038  24.485  0.00  0.00    +0.153 C 
ATOM      2  N   UNL     1      -0.784   1.656  24.659  0.00  0.00    -0.253 N 
ATOM      3  N   UNL     1      -0.586   2.456  24.704  0.00  0.00    -0.174 NA
ATOM      4  C   UNL     1      -1.269   2.878  24.892  0.00  0.00    +0.079 A 
ATOM      5  C   UNL     1      -1.890   2.340  24.963  0.00  0.00    +0.031 A 
ATOM      6  C   UNL     1      -1.590   1.585  24.819  0.00  0.00    +0.058 A 
BRANCH   4  20
ATOM     20  C   UNL     1      -1.322   3.696  24.991  0.00  0.00    +0.042 C 
ATOM     21  C   UNL     1      -1.928   4.017  25.449  0.00  0.00    +0.006 C 
ATOM     22  C   UNL     1      -1.980   4.835  25.547  0.00  0.00    +0.000 C 
ATOM     23  C   UNL     1      -1.427   5.330  25.188  0.00  0.00    +0.000 C 
ATOM     24  C   UNL     1      -0.822   5.008  24.729  0.00  0.00    +0.000 C 
ATOM     25  C   UNL     1      -0.769   4.191  24.630  0.00  0.00    +0.006 C 
ENDBRANCH   4  20
ENDBRANCH   7   6
BRANCH  14  15
ATOM     15  C   UNL     1      -3.248  -1.146  24.889  0.00  0.00    +0.131 C 
BRANCH  15  16
ATOM     16  N   UNL     1      -3.521  -1.700  24.342  0.00  0.00    -0.204 NA
ATOM     17  C   UNL     1      -3.666  -2.476  24.579  0.00  0.00    +0.242 C 
ATOM     18  C   UNL     1      -3.939  -3.030  24.032  0.00  0.00    +0.096 C 
ATOM     19  O   UNL     1      -3.540  -2.699  25.363  0.00  0.00    -0.273 OA
ENDBRANCH  15  16
ENDBRANCH  14  15
TORSDOF 4
ENDMDL
MODEL 4
REMARK VINA RESULT:     -10.8      1.187      1.558
REMARK  Name = 
REMARK  4 active torsions:
REMARK  status: ('A' for Active; 'I' for Inactive)
REMARK    1  A    between atoms: C_4  and  C_20
REMARK    2  A    between atoms: C_6  and  C_7
REMARK    3  A    between atoms: C_14  and  C_15
REMARK    4  A    between atoms: C_15  and  N_16
REMARK                            x       y       z     vdW  Elec       q    Type
REMARK                         _______ _______ _______ _____ _____    ______ ____
ROOT
ATOM      7  C   UNL     1      -2.376   1.242  24.739  0.00  0.00    +0.056 C 
ATOM      8  C   UNL     1      -2.061   1.523  25.393  0.00  0.00    +0.078 C 
ATOM      9  N   UNL     1      -2.428   1.965  24.800  0.00  0.00    -0.272 NA
ATOM     10  C   UNL     1      -2.742   1.290  24.061  0.00  0.00    +0.072 C 
ATOM     11  C   UNL     1      -3.033   1.170  23.488  0.00  0.00    +0.018 C 
ATOM     12  C   UNL     1      -2.735   1.682  24.162  0.00  0.00    +0.010 C 
ATOM     13  C   UNL     1      -2.878   2.544  24.083  0.00  0.00    +0.018 C 
ATOM     14  C   UNL     1      -2.581   2.860  24.711  0.00  0.00    +0.079 C 
ENDROOT
BRANCH   7   6
ATOM      1  C   UNL     1      -0.887   0.275  24.469  0.00  0.00    +0.153 C 
ATOM      2  N   UNL     1      -1.657  -0.019  24.500  0.00  0.00    -0.253 N 
ATOM      3  N   UNL     1      -1.879  -0.809  24.411  0.00  0.00    -0.174 NA
ATOM      4  C   UNL     1      -2.700  -0.853  24.481  0.00  0.00    +0.079 A 
ATOM      5  C   UNL     1      -2.985  -0.090  24.612  0.00  0.00    +0.031 A 
ATOM      6  C   UNL     1      -2.341   0.425  24.623  0.00  0.00    +0.058 A 
BRANCH   4  20
ATOM     20  C   UNL     1      -3.154  -1.539  24.428  0.00  0.00    +0.042 C 
ATOM     21  C   UNL     1      -2.974  -2.190  24.901  0.00  0.00    +0.006 C 
ATOM     22  C   UNL     1      -3.429  -2.876  24.848  0.00  0.00    +0.000 C 
ATOM     23  C   UNL     1      -4.063  -2.912  24.322  0.00  0.00    +0.000 C 
ATOM     24  C   UNL     1      -4.243  -2.260  23.849  0.00  0.00    +0.000 C 
ATOM     25  C   UNL     1      -3.789  -1.574  23.902  0.00  0.00    +0.006 C 
ENDBRANCH   4  20
ENDBRANCH   7   6
BRANCH  14  15
ATOM     15  C   UNL     1      -2.465   3.584  25.088  0.00  0.00    +0.131 C 
BRANCH  15  16
ATOM     16  N   UNL     1      -1.864   4.090  24.836  0.00  0.00    -0.204 NA
ATOM     17  C   UNL     1      -1.732   4.801  25.231  0.00  0.00    +0.242 C 
ATOM     18  C   UNL     1      -1.130   5.307  24.979  0.00  0.00    +0.096 C 
ATOM     19  O   UNL     1      -2.200   5.008  25.878  0.00  0.00    -0.273 OA
ENDBRANCH  15  16
ENDBRANCH  14  15
TORSDOF 4
ENDMDL
