MODEL 1
REMARK VINA RESULT:     -11.5      0.000      0.000
REMARK  Name = 
REMARK  6 active torsions:
REMARK  status: ('A' for Active; 'I' for Inactive)
REMARK    1  A    between atoms: C_2  and  O_5
REMARK    2  A    between atoms: O_5  and  C_6
REMARK    3  A    between atoms: C_9  and  C_12
REMARK    4  A    between atoms: C_15  and  C_17
REMARK    5  A    between atoms: N_22  and  C_23
REMARK    6  A    between atoms: C_23  and  C_24
REMARK                            x       y       z     vdW  Elec       q    Type
REMARK                         _______ _______ _______ _____ _____    ______ ____
ROOT
ATOM     12  C   UNL     1      -3.938   0.586  24.549  0.00  0.00    +0.102 A 
ATOM     13  C   UNL     1      -3.709   0.992  23.868  0.00  0.00    +0.119 A 
ATOM     14  N   UNL     1      -3.916   1.785  23.962  0.00  0.00    -0.226 NA
ATOM     15  C   UNL     1      -4.271   1.869  24.702  0.00  0.00    +0.156 A 
ATOM     16  N   UNL     1      -4.286   1.129  25.065  0.00  0.00    -0.228 NA
ENDROOT
BRANCH  12   9
ATOM      6  C   UNL     1      -3.636  -1.834  24.971  0.00  0.00    +0.147 A 
ATOM      7  C   UNL     1      -3.300  -1.281  25.484  0.00  0.00    +0.037 A 
ATOM      8  C   UNL     1      -3.401  -0.474  25.343  0.00  0.00    +0.005 A 
ATOM      9  C   UNL     1      -3.837  -0.221  24.690  0.00  0.00    +0.019 A 
ATOM     10  C   UNL     1      -4.173  -0.773  24.178  0.00  0.00    +0.005 A 
ATOM     11  C   UNL     1      -4.072  -1.580  24.319  0.00  0.00    +0.037 A 
BRANCH   6   5
ATOM      5  O   UNL     1      -3.535  -2.641  25.112  0.00  0.00    -0.404 OA
BRANCH   5   2
ATOM      1  F   UNL     1      -2.826  -3.596  23.968  0.00  0.00    -0.133 F 
ATOM      2  C   UNL     1      -3.181  -3.118  24.540  0.00  0.00    +0.575 C 
ATOM      3  F   UNL     1      -2.435  -2.883  24.806  0.00  0.00    -0.133 F 
ATOM      4  F   UNL     1      -3.926  -3.352  24.275  0.00  0.00    -0.133 F 
ENDBRANCH   5   2
ENDBRANCH   6   5
ENDBRANCH  12   9
BRANCH  15  17
ATOM     17  C   UNL     1      -4.563   2.572  25.023  0.00  0.00    +0.147 C 
ATOM     18  C   UNL     1      -5.376   2.678  25.113  0.00  0.00    +0.166 C 
ATOM     19  O   UNL     1      -5.667   3.381  25.433  0.00  0.00    -0.350 OA
ATOM     20  C   UNL     1      -5.145   3.977  25.663  0.00  0.00    +0.160 C 
ATOM     21  C   UNL     1      -4.332   3.870  25.573  0.00  0.00    +0.105 C 
ATOM     22  N   UNL     1      -4.041   3.167  25.252  0.00  0.00    -0.264 NA
BRANCH  22  23
ATOM     23  C   UNL     1      -3.228   3.061  25.162  0.00  0.00    +0.073 C 
BRANCH  23  24
ATOM     24  C   UNL     1      -2.703   3.627  25.456  0.00  0.00    +0.016 C 
ATOM     25  C   UNL     1      -2.255   4.311  25.345  0.00  0.00    +0.001 C 
ATOM     26  C   UNL     1      -2.243   3.922  26.073  0.00  0.00    +0.001 C 
ENDBRANCH  23  24
ENDBRANCH  22  23
ENDBRANCH  15  17
TORSDOF 6
ENDMDL
MODEL 2
REMARK VINA RESULT:     -10.9      1.017      1.736
REMARK  Name = 
REMARK  6 active torsions:
REMARK  status: ('A' for Active; 'I' for Inactive)
REMARK    1  A    between atoms: C_2  and  O_5
REMARK    2  A    between atoms: O_5  and  C_6
REMARK    3  A    between atoms: C_9  and  C_12
REMARK    4  A    between atoms: C_15  and  C_17
REMARK    5  A    between atoms: N_22  and  C_23
REMARK    6  A    between atoms: C_23  and  C_24
REMARK                            x       y       z     vdW  Elec       q    Type
REMARK                         _______ _______ _______ _____ _____    ______ ____
ROOT
ATOM     12  C   UNL     1      -3.116   0.743  24.433  0.00  0.00    +0.102 A 
ATOM     13  C   UNL     1      -2.926   1.098  23.714  0.00  0.00    +0.119 A 
ATOM     14  N   UNL     1      -2.758   1.893  23.859  0.00  0.00    -0.226 NA
ATOM     15  C   UNL     1      -2.844   2.028  24.668  0.00  0.00    +0.156 A 
ATOM     16  N   UNL     1      -3.065   1.318  25.023  0.00  0.00    -0.228 NA
ENDROOT
BRANCH  12   9
ATOM      6  C   UNL     1      -3.730  -1.632  24.763  0.00  0.00    +0.147 A 
ATOM      7  C   UNL     1      -3.122  -1.298  25.210  0.00  0.00    +0.037 A 
ATOM      8  C   UNL     1      -2.917  -0.505  25.100  0.00  0.00    +0.005 A 
ATOM      9  C   UNL     1      -3.320  -0.050  24.544  0.00  0.00    +0.019 A 
ATOM     10  C   UNL     1      -3.928  -0.384  24.097  0.00  0.00    +0.005 A 
ATOM     11  C   UNL     1      -4.133  -1.176  24.208  0.00  0.00    +0.037 A 
BRANCH   6   5
ATOM      5  O   UNL     1      -3.935  -2.424  24.874  0.00  0.00    -0.404 OA
BRANCH   5   2
ATOM      1  F   UNL     1      -3.240  -3.594  23.940  0.00  0.00    -0.133 F 
ATOM      2  C   UNL     1      -3.587  -3.008  24.407  0.00  0.00    +0.575 C 
ATOM      3  F   UNL     1      -4.200  -2.935  23.859  0.00  0.00    -0.133 F 
ATOM      4  F   UNL     1      -2.976  -3.082  24.955  0.00  0.00    -0.133 F 
ENDBRANCH   5   2
ENDBRANCH   6   5
ENDBRANCH  12   9
BRANCH  15  17
ATOM     17  C   UNL     1      -2.729   2.748  25.055  0.00  0.00    +0.147 C 
ATOM     18  C   UNL     1      -1.971   2.975  25.286  0.00  0.00    +0.166 C 
ATOM     19  O   UNL     1      -1.856   3.695  25.673  0.00  0.00    -0.350 OA
ATOM     20  C   UNL     1      -2.500   4.188  25.827  0.00  0.00    +0.160 C 
ATOM     21  C   UNL     1      -3.258   3.960  25.595  0.00  0.00    +0.105 C 
ATOM     22  N   UNL     1      -3.373   3.241  25.208  0.00  0.00    -0.264 NA
BRANCH  22  23
ATOM     23  C   UNL     1      -4.130   3.014  24.977  0.00  0.00    +0.073 C 
BRANCH  23  24
ATOM     24  C   UNL     1      -4.791   3.398  25.291  0.00  0.00    +0.016 C 
ATOM     25  C   UNL     1      -5.455   3.392  25.780  0.00  0.00    +0.001 C 
ATOM     26  C   UNL     1      -5.268   4.068  25.345  0.00  0.00    +0.001 C 
ENDBRANCH  23  24
ENDBRANCH  22  23
ENDBRANCH  15  17
TORSDOF 6
ENDMDL
MODEL 3
REMARK VINA RESULT:     -10.7      1.625      2.226
REMARK  Name = 
REMARK  6 active torsions:
REMARK  status: ('A' for Active; 'I' for Inactive)
REMARK    1  A    between atoms: C_2  and  O_5
REMARK    2  A    between atoms: O_5  and  C_6
REMARK    3  A    between atoms: C_9  and  C_12
REMARK    4  A    between atoms: C_15  and  C_17
REMARK    5  A    between atoms: N_22  and  C_23
REMARK    6  A    between atoms: C_23  and  C_24
REMARK                            x       y       z     vdW  Elec       q    Type
REMARK                         _______ _______ _______ _____ _____    ______ ____
ROOT
ATOM     12  C   UNL     1      -2.867   0.905  24.106  0.00  0.00    +0.102 A 
ATOM     13  C   UNL     1      -3.122   1.357  23.465  0.00  0.00    +0.119 A 
ATOM     14  N   UNL     1      -2.701   2.067  23.472  0.00  0.00    -0.226 NA
ATOM     15  C   UNL     1      -2.187   2.052  24.116  0.00  0.00    +0.156 A 
ATOM     16  N   UNL     1      -2.289   1.335  24.509  0.00  0.00    -0.228 NA
ENDROOT
BRANCH  12   9
ATOM      6  C   UNL     1      -3.692  -1.348  24.715  0.00  0.00    +0.147 A 
ATOM      7  C   UNL     1      -4.171  -0.839  24.275  0.00  0.00    +0.037 A 
ATOM      8  C   UNL     1      -3.895  -0.087  24.073  0.00  0.00    +0.005 A 
ATOM      9  C   UNL     1      -3.143   0.153  24.309  0.00  0.00    +0.019 A 
ATOM     10  C   UNL     1      -2.665  -0.355  24.748  0.00  0.00    +0.005 A 
ATOM     11  C   UNL     1      -2.940  -1.107  24.951  0.00  0.00    +0.037 A 
BRANCH   6   5
ATOM      5  O   UNL     1      -3.968  -2.099  24.918  0.00  0.00    -0.404 OA
BRANCH   5   2
ATOM      1  F   UNL     1      -3.482  -3.417  24.052  0.00  0.00    -0.133 F 
ATOM      2  C   UNL     1      -3.724  -2.758  24.486  0.00  0.00    +0.575 C 
ATOM      3  F   UNL     1      -4.310  -2.606  23.924  0.00  0.00    -0.133 F 
ATOM      4  F   UNL     1      -3.140  -2.910  25.047  0.00  0.00    -0.133 F 
ENDBRANCH   5   2
ENDBRANCH   6   5
ENDBRANCH  12   9
BRANCH  15  17
ATOM     17  C   UNL     1      -1.661   2.652  24.331  0.00  0.00    +0.147 C 
ATOM     18  C   UNL     1      -0.889   2.647  24.041  0.00  0.00    +0.166 C 
ATOM     19  O   UNL     1      -0.364   3.246  24.256  0.00  0.00    -0.350 OA
ATOM     20  C   UNL     1      -0.611   3.850  24.761  0.00  0.00    +0.160 C 
ATOM     21  C   UNL     1      -1.384   3.854  25.051  0.00  0.00    +0.105 C 
ATOM     22  N   UNL     1      -1.909   3.255  24.836  0.00  0.00    -0.264 NA
BRANCH  22  23
ATOM     23  C   UNL     1      -2.680   3.260  25.126  0.00  0.00    +0.073 C 
BRANCH  23  24
ATOM     24  C   UNL     1      -2.908   3.824  25.685  0.00  0.00    +0.016 C 
ATOM     25  C   UNL     1      -2.978   4.061  26.472  0.00  0.00    +0.001 C 
ATOM     26  C   UNL     1      -3.230   4.561  25.866  0.00  0.00    +0.001 C 
ENDBRANCH  23  24
ENDBRANCH  22  23
ENDBRANCH  15  17
TORSDOF 6
ENDMDL
MODEL 4
REMARK VINA RESULT:     -10.5      3.611      5.821
REMARK  Name = 
REMARK  6 active torsions:
REMARK  status: ('A' for Active; 'I' for Inactive)
REMARK    1  A    between atoms: C_2  and  O_5
REMARK    2  A    between atoms: O_5  and  C_6
REMARK    3  A    between atoms: C_9  and  C_12
REMARK    4  A    between atoms: C_15  and  C_17
REMARK    5  A    between atoms: N_22  and  C_23
REMARK    6  A    between atoms: C_23  and  C_24
REMARK                            x       y       z     vdW  Elec       q    Type
REMARK                         _______ _______ _______ _____ _____    ______ ____
ROOT
ATOM     12  C   UNL     1      -1.251   1.454  24.540  0.00  0.00    +0.102 A 
ATOM     13  C   UNL     1      -1.105   1.241  23.757  0.00  0.00    +0.119 A 
ATOM     14  N   UNL     1      -1.131   0.417  23.708  0.00  0.00    -0.226 NA
ATOM     15  C   UNL     1      -1.294   0.123  24.461  0.00  0.00    +0.156 A 
ATOM     16  N   UNL     1      -1.368   0.763  24.975  0.00  0.00    -0.228 NA
ENDROOT
BRANCH  12   9
ATOM      6  C   UNL     1      -1.327   3.764  25.427  0.00  0.00    +0.147 A 
ATOM      7  C   UNL     1      -0.612   3.351  25.412  0.00  0.00    +0.037 A 
ATOM      8  C   UNL     1      -0.587   2.581  25.116  0.00  0.00    +0.005 A 
ATOM      9  C   UNL     1      -1.276   2.225  24.836  0.00  0.00    +0.019 A 
ATOM     10  C   UNL     1      -1.990   2.636  24.851  0.00  0.00    +0.005 A 
ATOM     11  C   UNL     1      -2.015   3.407  25.147  0.00  0.00    +0.037 A 
BRANCH   6   5
ATOM      5  O   UNL     1      -1.352   4.534  25.723  0.00  0.00    -0.404 OA
BRANCH   5   2
ATOM      1  F   UNL     1      -1.488   5.811  24.687  0.00  0.00    -0.133 F 
ATOM      2  C   UNL     1      -1.421   5.172  25.206  0.00  0.00    +0.575 C 
ATOM      3  F   UNL     1      -0.605   5.157  25.078  0.00  0.00    -0.133 F 
ATOM      4  F   UNL     1      -2.235   5.188  25.333  0.00  0.00    -0.133 F 
ENDBRANCH   5   2
ENDBRANCH   6   5
ENDBRANCH  12   9
BRANCH  15  17
ATOM     17  C   UNL     1      -1.369  -0.674  24.665  0.00  0.00    +0.147 C 
ATOM     18  C   UNL     1      -0.712  -1.094  24.935  0.00  0.00    +0.166 C 
ATOM     19  O   UNL     1      -0.788  -1.890  25.138  0.00  0.00    -0.350 OA
ATOM     20  C   UNL     1      -1.520  -2.266  25.071  0.00  0.00    +0.160 C 
ATOM     21  C   UNL     1      -2.176  -1.845  24.802  0.00  0.00    +0.105 C 
ATOM     22  N   UNL     1      -2.100  -1.049  24.598  0.00  0.00    -0.264 NA
BRANCH  22  23
ATOM     23  C   UNL     1      -2.756  -0.628  24.329  0.00  0.00    +0.073 C 
BRANCH  23  24
ATOM     24  C   UNL     1      -3.497  -0.993  24.299  0.00  0.00    +0.016 C 
ATOM     25  C   UNL     1      -4.041  -1.473  23.907  0.00  0.00    +0.001 C 
ATOM     26  C   UNL     1      -4.232  -1.145  24.640  0.00  0.00    +0.001 C 
ENDBRANCH  23  24
ENDBRANCH  22  23
ENDBRANCH  15  17
TORSDOF 6
ENDMDL
MODEL 5
REMARK VINA RESULT:     -10.2      2.967      5.282
REMARK  Name = 
REMARK  6 active torsions:
REMARK  status: ('A' for Active; 'I' for Inactive)
REMARK    1  A    between atoms: C_2  and  O_5
REMARK    2  A    between atoms: O_5  and  C_6
REMARK    3  A    between atoms: C_9  and  C_12
REMARK    4  A    between atoms: C_15  and  C_17
REMARK    5  A    between atoms: N_22  and  C_23
REMARK    6  A    between atoms: C_23  and  C_24
REMARK                            x       y       z     vdW  Elec       q    Type
REMARK                         _______ _______ _______ _____ _____    ______ ____
ROOT
ATOM     12  C   UNL     1      -2.590   1.329  24.282  0.00  0.00    +0.102 A 
ATOM     13  C   UNL     1      -2.189   1.245  23.566  0.00  0.00    +0.119 A 
ATOM     14  N   UNL     1      -1.707   0.577  23.621  0.00  0.00    -0.226 NA
ATOM     15  C   UNL     1      -1.811   0.249  24.370  0.00  0.00    +0.156 A 
ATOM     16  N   UNL     1      -2.356   0.713  24.779  0.00  0.00    -0.228 NA
ENDROOT
BRANCH  12   9
ATOM      6  C   UNL     1      -4.211   3.114  24.840  0.00  0.00    +0.147 A 
ATOM      7  C   UNL     1      -3.454   3.128  25.167  0.00  0.00    +0.037 A 
ATOM      8  C   UNL     1      -2.913   2.533  24.981  0.00  0.00    +0.005 A 
ATOM      9  C   UNL     1      -3.131   1.924  24.468  0.00  0.00    +0.019 A 
ATOM     10  C   UNL     1      -3.888   1.910  24.141  0.00  0.00    +0.005 A 
ATOM     11  C   UNL     1      -4.428   2.505  24.328  0.00  0.00    +0.037 A 
BRANCH   6   5
ATOM      5  O   UNL     1      -4.752   3.709  25.026  0.00  0.00    -0.404 OA
BRANCH   5   2
ATOM      1  F   UNL     1      -5.869   3.467  26.216  0.00  0.00    -0.133 F 
ATOM      2  C   UNL     1      -5.310   3.588  25.620  0.00  0.00    +0.575 C 
ATOM      3  F   UNL     1      -4.788   3.904  26.176  0.00  0.00    -0.133 F 
ATOM      4  F   UNL     1      -5.832   3.273  25.065  0.00  0.00    -0.133 F 
ENDBRANCH   5   2
ENDBRANCH   6   5
ENDBRANCH  12   9
BRANCH  15  17
ATOM     17  C   UNL     1      -1.434  -0.426  24.661  0.00  0.00    +0.147 C 
ATOM     18  C   UNL     1      -0.645  -0.387  24.898  0.00  0.00    +0.166 C 
ATOM     19  O   UNL     1      -0.269  -1.062  25.188  0.00  0.00    -0.350 OA
ATOM     20  C   UNL     1      -0.682  -1.775  25.240  0.00  0.00    +0.160 C 
ATOM     21  C   UNL     1      -1.471  -1.812  25.003  0.00  0.00    +0.105 C 
ATOM     22  N   UNL     1      -1.847  -1.138  24.713  0.00  0.00    -0.264 NA
BRANCH  22  23
ATOM     23  C   UNL     1      -2.635  -1.176  24.475  0.00  0.00    +0.073 C 
BRANCH  23  24
ATOM     24  C   UNL     1      -3.058  -1.881  24.558  0.00  0.00    +0.016 C 
ATOM     25  C   UNL     1      -3.324  -2.595  24.244  0.00  0.00    +0.001 C 
ATOM     26  C   UNL     1      -3.523  -2.384  25.016  0.00  0.00    +0.001 C 
ENDBRANCH  23  24
ENDBRANCH  22  23
ENDBRANCH  15  17
TORSDOF 6
ENDMDL
