MODEL 1
REMARK VINA RESULT:     -12.2      0.000      0.000
REMARK  Name = 
REMARK  5 active torsions:
REMARK  status: ('A' for Active; 'I' for Inactive)
REMARK    1  A    between atoms: C_2  and  N_3
REMARK    2  A    between atoms: C_9  and  C_10
REMARK    3  A    between atoms: C_10  and  C_11
REMARK    4  A    between atoms: C_14  and  C_15
REMARK    5  A    between atoms: C_15  and  C_16
REMARK                            x       y       z     vdW  Elec       q    Type
REMARK                         _______ _______ _______ _____ _____    ______ ____
ROOT
ATOM      3  N   UNL     1      -1.861   2.880  24.464  0.00  0.00    -0.188 NA
ATOM      4  C   UNL     1      -2.104   2.094  24.414  0.00  0.00    +0.323 C 
ATOM      5  O   UNL     1      -1.567   1.509  24.188  0.00  0.00    -0.251 OA
ATOM      6  N   UNL     1      -2.885   1.892  24.591  0.00  0.00    -0.263 N 
ATOM      7  C   UNL     1      -3.420   2.476  24.817  0.00  0.00    +0.095 C 
ATOM      8  C   UNL     1      -4.200   2.274  24.994  0.00  0.00    +0.022 C 
ATOM      9  C   UNL     1      -4.444   1.488  24.944  0.00  0.00    +0.015 C 
ATOM     14  C   UNL     1      -3.908   0.904  24.718  0.00  0.00    +0.026 C 
ATOM     27  C   UNL     1      -3.128   1.105  24.541  0.00  0.00    +0.095 C 
ENDROOT
BRANCH   3   2
ATOM      1  C   UNL     1      -0.763   3.789  24.571  0.00  0.00    +0.025 C 
ATOM      2  C   UNL     1      -1.080   3.082  24.287  0.00  0.00    +0.117 C 
ENDBRANCH   3   2
BRANCH   9  10
ATOM     10  C   UNL     1      -5.224   1.286  25.121  0.00  0.00    +0.114 C 
BRANCH  10  11
ATOM     11  C   UNL     1      -5.777   1.877  25.282  0.00  0.00    +0.365 C 
ATOM     12  O   UNL     1      -6.252   2.173  24.676  0.00  0.00    -0.246 OA
ATOM     13  O   UNL     1      -5.854   2.170  26.049  0.00  0.00    -0.246 OA
ENDBRANCH  10  11
ENDBRANCH   9  10
BRANCH  14  15
ATOM     15  C   UNL     1      -4.152   0.117  24.668  0.00  0.00    +0.047 C 
BRANCH  15  16
ATOM     16  C   UNL     1      -3.757  -0.466  25.099  0.00  0.00    +0.053 C 
ATOM     17  N   UNL     1      -3.365  -0.267  25.796  0.00  0.00    -0.274 NA
ATOM     18  C   UNL     1      -2.970  -0.850  26.228  0.00  0.00    +0.130 C 
ATOM     19  C   UNL     1      -2.968  -1.631  25.961  0.00  0.00    +0.053 C 
ATOM     20  C   UNL     1      -3.361  -1.830  25.263  0.00  0.00    -0.019 A 
ATOM     21  C   UNL     1      -3.756  -1.247  24.831  0.00  0.00    +0.009 A 
ATOM     22  C   UNL     1      -4.149  -1.445  24.134  0.00  0.00    -0.003 A 
ATOM     23  C   UNL     1      -4.147  -2.225  23.867  0.00  0.00    -0.022 A 
ATOM     24  C   UNL     1      -4.540  -2.424  23.169  0.00  0.00    +0.031 C 
ATOM     25  C   UNL     1      -3.752  -2.808  24.299  0.00  0.00    -0.005 A 
ATOM     26  C   UNL     1      -3.359  -2.610  24.996  0.00  0.00    -0.004 A 
ENDBRANCH  15  16
ENDBRANCH  14  15
TORSDOF 5
ENDMDL
MODEL 2
REMARK VINA RESULT:     -11.7      1.263      2.656
REMARK  Name = 
REMARK  5 active torsions:
REMARK  status: ('A' for Active; 'I' for Inactive)
REMARK    1  A    between atoms: C_2  and  N_3
REMARK    2  A    between atoms: C_9  and  C_10
REMARK    3  A    between atoms: C_10  and  C_11
REMARK    4  A    between atoms: C_14  and  C_15
REMARK    5  A    between atoms: C_15  and  C_16
REMARK                            x       y       z     vdW  Elec       q    Type
REMARK                         _______ _______ _______ _____ _____    ______ ____
ROOT
ATOM      3  N   UNL     1      -5.128   3.096  25.209  0.00  0.00    -0.188 NA
ATOM      4  C   UNL     1      -4.954   2.293  25.128  0.00  0.00    +0.323 C 
ATOM      5  O   UNL     1      -5.357   1.735  25.583  0.00  0.00    -0.251 OA
ATOM      6  N   UNL     1      -4.376   2.049  24.591  0.00  0.00    -0.263 N 
ATOM      7  C   UNL     1      -3.974   2.606  24.137  0.00  0.00    +0.095 C 
ATOM      8  C   UNL     1      -3.397   2.363  23.600  0.00  0.00    +0.022 C 
ATOM      9  C   UNL     1      -3.222   1.561  23.520  0.00  0.00    +0.015 C 
ATOM     14  C   UNL     1      -3.625   1.003  23.974  0.00  0.00    +0.026 C 
ATOM     27  C   UNL     1      -4.202   1.247  24.511  0.00  0.00    +0.095 C 
ENDROOT
BRANCH   3   2
ATOM      1  C   UNL     1      -5.959   4.125  25.749  0.00  0.00    +0.025 C 
ATOM      2  C   UNL     1      -5.706   3.340  25.745  0.00  0.00    +0.117 C 
ENDBRANCH   3   2
BRANCH   9  10
ATOM     10  C   UNL     1      -2.644   1.316  22.983  0.00  0.00    +0.114 C 
BRANCH  10  11
ATOM     11  C   UNL     1      -2.246   1.874  22.523  0.00  0.00    +0.365 C 
ATOM     12  O   UNL     1      -1.561   2.232  22.811  0.00  0.00    -0.246 OA
ATOM     13  O   UNL     1      -2.534   2.072  21.775  0.00  0.00    -0.246 OA
ENDBRANCH  10  11
ENDBRANCH   9  10
BRANCH  14  15
ATOM     15  C   UNL     1      -3.450   0.200  23.893  0.00  0.00    +0.047 C 
BRANCH  15  16
ATOM     16  C   UNL     1      -3.197  -0.235  24.547  0.00  0.00    +0.053 C 
ATOM     17  N   UNL     1      -2.759   0.132  25.142  0.00  0.00    -0.274 NA
ATOM     18  C   UNL     1      -2.506  -0.303  25.797  0.00  0.00    +0.130 C 
ATOM     19  C   UNL     1      -2.692  -1.105  25.855  0.00  0.00    +0.053 C 
ATOM     20  C   UNL     1      -3.130  -1.473  25.259  0.00  0.00    -0.019 A 
ATOM     21  C   UNL     1      -3.383  -1.037  24.605  0.00  0.00    +0.009 A 
ATOM     22  C   UNL     1      -3.820  -1.403  24.010  0.00  0.00    -0.003 A 
ATOM     23  C   UNL     1      -4.005  -2.205  24.068  0.00  0.00    -0.022 A 
ATOM     24  C   UNL     1      -4.443  -2.572  23.472  0.00  0.00    +0.031 C 
ATOM     25  C   UNL     1      -3.752  -2.640  24.722  0.00  0.00    -0.005 A 
ATOM     26  C   UNL     1      -3.315  -2.274  25.317  0.00  0.00    -0.004 A 
ENDBRANCH  15  16
ENDBRANCH  14  15
TORSDOF 5
ENDMDL
MODEL 3
REMARK VINA RESULT:     -10.9      1.003      4.137
REMARK  Name = 
REMARK  5 active torsions:
REMARK  status: ('A' for Active; 'I' for Inactive)
REMARK    1  A    between atoms: C_2  and  N_3
REMARK    2  A    between atoms: C_9  and  C_10
REMARK    3  A    between atoms: C_10  and  C_11
REMARK    4  A    between atoms: C_14  and  C_15
REMARK    5  A    between atoms: C_15  and  C_16
REMARK                            x       y       z     vdW  Elec       q    Type
REMARK                         _______ _______ _______ _____ _____    ______ ____
ROOT
ATOM      3  N   UNL     1      -3.683  -1.645  24.853  0.00  0.00    -0.188 NA
ATOM      4  C   UNL     1      -3.275  -0.928  24.833  0.00  0.00    +0.323 C 
ATOM      5  O   UNL     1      -2.452  -0.923  24.777  0.00  0.00    -0.251 OA
ATOM      6  N   UNL     1      -3.690  -0.216  24.869  0.00  0.00    -0.263 N 
ATOM      7  C   UNL     1      -4.512  -0.220  24.925  0.00  0.00    +0.095 C 
ATOM      8  C   UNL     1      -4.928   0.491  24.961  0.00  0.00    +0.022 C 
ATOM      9  C   UNL     1      -4.520   1.207  24.941  0.00  0.00    +0.015 C 
ATOM     14  C   UNL     1      -3.698   1.212  24.884  0.00  0.00    +0.026 C 
ATOM     27  C   UNL     1      -3.282   0.501  24.848  0.00  0.00    +0.095 C 
ENDROOT
BRANCH   3   2
ATOM      1  C   UNL     1      -3.637  -3.035  24.528  0.00  0.00    +0.025 C 
ATOM      2  C   UNL     1      -3.267  -2.357  24.817  0.00  0.00    +0.117 C 
ENDBRANCH   3   2
BRANCH   9  10
ATOM     10  C   UNL     1      -4.935   1.920  24.977  0.00  0.00    +0.114 C 
BRANCH  10  11
ATOM     11  C   UNL     1      -5.706   1.934  25.271  0.00  0.00    +0.365 C 
ATOM     12  O   UNL     1      -5.836   2.036  26.080  0.00  0.00    -0.246 OA
ATOM     13  O   UNL     1      -6.345   1.846  24.757  0.00  0.00    -0.246 OA
ENDBRANCH  10  11
ENDBRANCH   9  10
BRANCH  14  15
ATOM     15  C   UNL     1      -3.289   1.930  24.864  0.00  0.00    +0.047 C 
BRANCH  15  16
ATOM     16  C   UNL     1      -2.723   2.066  24.280  0.00  0.00    +0.053 C 
ATOM     17  N   UNL     1      -2.878   1.852  23.498  0.00  0.00    -0.274 NA
ATOM     18  C   UNL     1      -2.312   1.988  22.913  0.00  0.00    +0.130 C 
ATOM     19  C   UNL     1      -1.591   2.338  23.111  0.00  0.00    +0.053 C 
ATOM     20  C   UNL     1      -1.436   2.552  23.892  0.00  0.00    -0.019 A 
ATOM     21  C   UNL     1      -2.002   2.415  24.478  0.00  0.00    +0.009 A 
ATOM     22  C   UNL     1      -1.848   2.629  25.259  0.00  0.00    -0.003 A 
ATOM     23  C   UNL     1      -1.128   2.978  25.456  0.00  0.00    -0.022 A 
ATOM     24  C   UNL     1      -0.972   3.192  26.238  0.00  0.00    +0.031 C 
ATOM     25  C   UNL     1      -0.561   3.114  24.871  0.00  0.00    -0.005 A 
ATOM     26  C   UNL     1      -0.715   2.901  24.090  0.00  0.00    -0.004 A 
ENDBRANCH  15  16
ENDBRANCH  14  15
TORSDOF 5
ENDMDL
MODEL 4
REMARK VINA RESULT:     -10.8      2.299      3.603
REMARK  Name = 
REMARK  5 active torsions:
REMARK  status: ('A' for Active; 'I' for Inactive)
REMARK    1  A    between atoms: C_2  and  N_3
REMARK    2  A    between atoms: C_9  and  C_10
REMARK    3  A    between atoms: C_10  and  C_11
REMARK    4  A    between atoms: C_14  and  C_15
REMARK    5  A    between atoms: C_15  and  C_16
REMARK                            x       y       z     vdW  Elec       q    Type
REMARK                         _______ _______ _______ _____ _____    ______ ____
ROOT
ATOM      3  N   UNL     1       1.224   0.401  23.134  0.00  0.00    -0.188 NA
ATOM      4  C   UNL     1       0.483   0.192  23.429  0.00  0.00    +0.323 C 
ATOM      5  O   UNL     1       0.115  -0.500  23.171  0.00  0.00    -0.251 OA
ATOM      6  N   UNL     1       0.109   0.676  23.984  0.00  0.00    -0.263 N 
ATOM      7  C   UNL     1       0.476   1.367  24.241  0.00  0.00    +0.095 C 
ATOM      8  C   UNL     1       0.103   1.852  24.795  0.00  0.00    +0.022 C 
ATOM      9  C   UNL     1      -0.638   1.643  25.091  0.00  0.00    +0.015 C 
ATOM     14  C   UNL     1      -1.006   0.952  24.833  0.00  0.00    +0.026 C 
ATOM     27  C   UNL     1      -0.632   0.468  24.279  0.00  0.00    +0.095 C 
ENDROOT
BRANCH   3   2
ATOM      1  C   UNL     1       2.385   0.056  22.374  0.00  0.00    +0.025 C 
ATOM      2  C   UNL     1       1.598  -0.084  22.579  0.00  0.00    +0.117 C 
ENDBRANCH   3   2
BRANCH   9  10
ATOM     10  C   UNL     1      -1.012   2.128  25.645  0.00  0.00    +0.114 C 
BRANCH  10  11
ATOM     11  C   UNL     1      -0.594   2.741  26.006  0.00  0.00    +0.365 C 
ATOM     12  O   UNL     1      -0.130   2.587  26.671  0.00  0.00    -0.246 OA
ATOM     13  O   UNL     1      -0.640   3.506  25.701  0.00  0.00    -0.246 OA
ENDBRANCH  10  11
ENDBRANCH   9  10
BRANCH  14  15
ATOM     15  C   UNL     1      -1.748   0.744  25.129  0.00  0.00    +0.047 C 
BRANCH  15  16
ATOM     16  C   UNL     1      -2.383   0.638  24.613  0.00  0.00    +0.053 C 
ATOM     17  N   UNL     1      -2.483   1.149  23.972  0.00  0.00    -0.274 NA
ATOM     18  C   UNL     1      -3.119   1.044  23.456  0.00  0.00    +0.130 C 
ATOM     19  C   UNL     1      -3.653   0.428  23.581  0.00  0.00    +0.053 C 
ATOM     20  C   UNL     1      -3.553  -0.083  24.221  0.00  0.00    -0.019 A 
ATOM     21  C   UNL     1      -2.918   0.022  24.738  0.00  0.00    +0.009 A 
ATOM     22  C   UNL     1      -2.817  -0.488  25.378  0.00  0.00    -0.003 A 
ATOM     23  C   UNL     1      -3.352  -1.103  25.502  0.00  0.00    -0.022 A 
ATOM     24  C   UNL     1      -3.252  -1.614  26.143  0.00  0.00    +0.031 C 
ATOM     25  C   UNL     1      -3.988  -1.208  24.986  0.00  0.00    -0.005 A 
ATOM     26  C   UNL     1      -4.088  -0.698  24.346  0.00  0.00    -0.004 A 
ENDBRANCH  15  16
ENDBRANCH  14  15
TORSDOF 5
ENDMDL
MODEL 5
REMARK VINA RESULT:     -10.4      1.740      4.955
REMARK  Name = 
REMARK  5 active torsions:
REMARK  status: ('A' for Active; 'I' for Inactive)
REMARK    1  A    between atoms: C_2  and  N_3
REMARK    2  A    between atoms: C_9  and  C_10
REMARK    3  A    between atoms: C_10  and  C_11
REMARK    4  A    between atoms: C_14  and  C_15
REMARK    5  A    between atoms: C_15  and  C_16
REMARK                            x       y       z     vdW  Elec       q    Type
REMARK                         _______ _______ _______ _____ _____    ______ ____
ROOT
ATOM      3  N   UNL     1      -2.731  -1.433  24.998  0.00  0.00    -0.188 NA
ATOM      4  C   UNL     1      -2.885  -0.623  25.033  0.00  0.00    +0.323 C 
ATOM      5  O   UNL     1      -3.622  -0.353  25.284  0.00  0.00    -0.251 OA
ATOM      6  N   UNL     1      -2.299  -0.083  24.816  0.00  0.00    -0.263 N 
ATOM      7  C   UNL     1      -1.562  -0.353  24.564  0.00  0.00    +0.095 C 
ATOM      8  C   UNL     1      -0.977   0.187  24.347  0.00  0.00    +0.022 C 
ATOM      9  C   UNL     1      -1.130   0.996  24.382  0.00  0.00    +0.015 C 
ATOM     14  C   UNL     1      -1.867   1.266  24.634  0.00  0.00    +0.026 C 
ATOM     27  C   UNL     1      -2.453   0.727  24.851  0.00  0.00    +0.095 C 
ENDROOT
BRANCH   3   2
ATOM      1  C   UNL     1      -3.287  -2.747  24.933  0.00  0.00    +0.025 C 
ATOM      2  C   UNL     1      -3.317  -1.973  25.215  0.00  0.00    +0.117 C 
ENDBRANCH   3   2
BRANCH   9  10
ATOM     10  C   UNL     1      -0.545   1.537  24.165  0.00  0.00    +0.114 C 
BRANCH  10  11
ATOM     11  C   UNL     1       0.250   1.316  24.188  0.00  0.00    +0.365 C 
ATOM     12  O   UNL     1       0.723   1.544  24.824  0.00  0.00    -0.246 OA
ATOM     13  O   UNL     1       0.570   0.866  23.575  0.00  0.00    -0.246 OA
ENDBRANCH  10  11
ENDBRANCH   9  10
BRANCH  14  15
ATOM     15  C   UNL     1      -2.021   2.077  24.668  0.00  0.00    +0.047 C 
BRANCH  15  16
ATOM     16  C   UNL     1      -2.687   2.387  24.294  0.00  0.00    +0.053 C 
ATOM     17  N   UNL     1      -2.910   2.107  23.551  0.00  0.00    -0.274 NA
ATOM     18  C   UNL     1      -3.577   2.418  23.176  0.00  0.00    +0.130 C 
ATOM     19  C   UNL     1      -4.020   3.008  23.546  0.00  0.00    +0.053 C 
ATOM     20  C   UNL     1      -3.798   3.288  24.290  0.00  0.00    -0.019 A 
ATOM     21  C   UNL     1      -3.130   2.977  24.664  0.00  0.00    +0.009 A 
ATOM     22  C   UNL     1      -2.907   3.256  25.407  0.00  0.00    -0.003 A 
ATOM     23  C   UNL     1      -3.350   3.845  25.776  0.00  0.00    -0.022 A 
ATOM     24  C   UNL     1      -3.127   4.125  26.520  0.00  0.00    +0.031 C 
ATOM     25  C   UNL     1      -4.017   4.156  25.402  0.00  0.00    -0.005 A 
ATOM     26  C   UNL     1      -4.240   3.877  24.659  0.00  0.00    -0.004 A 
ENDBRANCH  15  16
ENDBRANCH  14  15
TORSDOF 5
ENDMDL
MODEL 6
REMARK VINA RESULT:     -10.4      2.125      4.189
REMARK  Name = 
REMARK  5 active torsions:
REMARK  status: ('A' for Active; 'I' for Inactive)
REMARK    1  A    between atoms: C_2  and  N_3
REMARK    2  A    between atoms: C_9  and  C_10
REMARK    3  A    between atoms: C_10  and  C_11
REMARK    4  A    between atoms: C_14  and  C_15
REMARK    5  A    between atoms: C_15  and  C_16
REMARK                            x       y       z     vdW  Elec       q    Type
REMARK                         _______ _______ _______ _____ _____    ______ ____
ROOT
ATOM      3  N   UNL     1       0.045  -0.034  23.712  0.00  0.00    -0.188 NA
ATOM      4  C   UNL     1      -0.496   0.553  23.920  0.00  0.00    +0.323 C 
ATOM      5  O   UNL     1      -0.314   1.347  23.792  0.00  0.00    -0.251 OA
ATOM      6  N   UNL     1      -1.220   0.345  24.258  0.00  0.00    -0.263 N 
ATOM      7  C   UNL     1      -1.402  -0.448  24.387  0.00  0.00    +0.095 C 
ATOM      8  C   UNL     1      -2.125  -0.656  24.725  0.00  0.00    +0.022 C 
ATOM      9  C   UNL     1      -2.666  -0.069  24.933  0.00  0.00    +0.015 C 
ATOM     14  C   UNL     1      -2.484   0.724  24.805  0.00  0.00    +0.026 C 
ATOM     27  C   UNL     1      -1.761   0.932  24.467  0.00  0.00    +0.095 C 
ENDROOT
BRANCH   3   2
ATOM      1  C   UNL     1       1.154  -0.353  22.869  0.00  0.00    +0.025 C 
ATOM      2  C   UNL     1       0.769   0.174  23.373  0.00  0.00    +0.117 C 
ENDBRANCH   3   2
BRANCH   9  10
ATOM     10  C   UNL     1      -3.390  -0.277  25.271  0.00  0.00    +0.114 C 
BRANCH  10  11
ATOM     11  C   UNL     1      -3.535  -1.061  25.486  0.00  0.00    +0.365 C 
ATOM     12  O   UNL     1      -3.347  -1.321  26.246  0.00  0.00    -0.246 OA
ATOM     13  O   UNL     1      -3.869  -1.582  24.941  0.00  0.00    -0.246 OA
ENDBRANCH  10  11
ENDBRANCH   9  10
BRANCH  14  15
ATOM     15  C   UNL     1      -3.025   1.311  25.014  0.00  0.00    +0.047 C 
BRANCH  15  16
ATOM     16  C   UNL     1      -3.272   1.864  24.454  0.00  0.00    +0.053 C 
ATOM     17  N   UNL     1      -3.431   1.624  23.680  0.00  0.00    -0.274 NA
ATOM     18  C   UNL     1      -3.678   2.177  23.119  0.00  0.00    +0.130 C 
ATOM     19  C   UNL     1      -3.765   2.969  23.332  0.00  0.00    +0.053 C 
ATOM     20  C   UNL     1      -3.605   3.210  24.105  0.00  0.00    -0.019 A 
ATOM     21  C   UNL     1      -3.359   2.656  24.667  0.00  0.00    +0.009 A 
ATOM     22  C   UNL     1      -3.199   2.896  25.439  0.00  0.00    -0.003 A 
ATOM     23  C   UNL     1      -3.286   3.688  25.652  0.00  0.00    -0.022 A 
ATOM     24  C   UNL     1      -3.127   3.928  26.425  0.00  0.00    +0.031 C 
ATOM     25  C   UNL     1      -3.533   4.241  25.090  0.00  0.00    -0.005 A 
ATOM     26  C   UNL     1      -3.692   4.001  24.318  0.00  0.00    -0.004 A 
ENDBRANCH  15  16
ENDBRANCH  14  15
TORSDOF 5
ENDMDL
