MODEL 1
REMARK VINA RESULT:     -11.6      0.000      0.000
REMARK  Name = 
REMARK  8 active torsions:
REMARK  status: ('A' for Active; 'I' for Inactive)
REMARK    1  A    between atoms: O_2  and  C_3
REMARK    2  A    between atoms: C_3  and  C_5
REMARK    3  A    between atoms: C_5  and  C_6
REMARK    4  A    between atoms: C_5  and  N_13
REMARK    5  A    between atoms: C_6  and  C_7
REMARK    6  A    between atoms: C_14  and  C_16
REMARK    7  A    between atoms: C_22  and  C_24
REMARK    8  A    between atoms: C_29  and  C_31
REMARK                            x       y       z     vdW  Elec       q    Type
REMARK                         _______ _______ _______ _____ _____    ______ ____
ROOT
ATOM     16  C   UNL     1      -2.321   1.136  24.374  0.00  0.00    +0.174 C 
ATOM     17  C   UNL     1      -2.981   0.706  24.621  0.00  0.00    +0.123 C 
ATOM     18  N   UNL     1      -2.953  -0.118  24.643  0.00  0.00    -0.272 N 
ATOM     19  C   UNL     1      -2.263  -0.512  24.419  0.00  0.00    +0.115 C 
ATOM     20  C   UNL     1      -1.604  -0.084  24.173  0.00  0.00    +0.116 C 
ATOM     21  N   UNL     1      -1.632   0.740  24.150  0.00  0.00    -0.266 N 
ATOM     22  C   UNL     1      -0.973   1.170  23.904  0.00  0.00    +0.255 C 
ATOM     23  O   UNL     1      -1.001   1.994  23.881  0.00  0.00    -0.269 OA
ATOM     29  C   UNL     1      -3.612  -0.546  24.890  0.00  0.00    +0.249 C 
ATOM     30  O   UNL     1      -4.302  -0.152  25.113  0.00  0.00    -0.270 OA
ENDROOT
BRANCH  29  31
ATOM     31  C   UNL     1      -3.584  -1.371  24.912  0.00  0.00    +0.056 A 
ATOM     32  C   UNL     1      -3.277  -1.755  25.576  0.00  0.00    +0.005 A 
ATOM     33  C   UNL     1      -3.249  -2.579  25.599  0.00  0.00    +0.002 A 
ATOM     34  C   UNL     1      -3.526  -3.019  24.958  0.00  0.00    +0.030 A 
ATOM     35  C   UNL     1      -3.832  -2.635  24.295  0.00  0.00    +0.140 A 
ATOM     36  F   UNL     1      -4.110  -3.075  23.655  0.00  0.00    -0.204 F 
ATOM     37  C   UNL     1      -3.861  -1.811  24.273  0.00  0.00    +0.034 A 
ENDBRANCH  29  31
BRANCH  22  24
ATOM     24  C   UNL     1      -0.283   0.774  23.680  0.00  0.00    +0.083 A 
ATOM     25  C   UNL     1      -0.192   0.300  23.012  0.00  0.00    +0.012 A 
ATOM     26  C   UNL     1       0.583   0.016  23.004  0.00  0.00    +0.008 A 
ATOM     27  C   UNL     1       0.971   0.317  23.669  0.00  0.00    +0.036 A 
ATOM     28  S   UNL     1       0.435   0.785  24.086  0.00  0.00    -0.082 S 
ENDBRANCH  22  24
BRANCH  16  14
ATOM     13  N   UNL     1      -2.613   2.382  25.009  0.00  0.00    -0.194 NA
ATOM     14  C   UNL     1      -2.349   1.960  24.351  0.00  0.00    +0.262 C 
ATOM     15  O   UNL     1      -2.114   2.362  23.670  0.00  0.00    -0.271 OA
BRANCH  13   5
ATOM      5  C   UNL     1      -2.642   3.206  24.986  0.00  0.00    +0.198 C 
BRANCH   5   3
ATOM      3  C   UNL     1      -2.027   3.650  25.310  0.00  0.00    +0.337 C 
ATOM      4  O   UNL     1      -1.720   3.449  26.050  0.00  0.00    -0.248 OA
BRANCH   3   2
ATOM      1  C   UNL     1      -1.147   4.773  25.246  0.00  0.00    +0.256 C 
ATOM      2  O   UNL     1      -1.719   4.293  24.896  0.00  0.00    -0.443 OA
ENDBRANCH   3   2
ENDBRANCH   5   3
BRANCH   5   6
ATOM      6  C   UNL     1      -3.286   3.587  24.639  0.00  0.00    +0.061 C 
BRANCH   6   7
ATOM      7  C   UNL     1      -4.026   3.564  25.003  0.00  0.00    -0.001 A 
ATOM      8  C   UNL     1      -4.686   3.311  24.579  0.00  0.00    -0.001 A 
ATOM      9  C   UNL     1      -5.426   3.287  24.944  0.00  0.00    +0.020 A 
ATOM     10  C   UNL     1      -5.505   3.517  25.733  0.00  0.00    +0.099 A 
ATOM     11  N   UNL     1      -4.844   3.770  26.156  0.00  0.00    -0.243 NA
ATOM     12  C   UNL     1      -4.104   3.793  25.791  0.00  0.00    +0.095 A 
ENDBRANCH   6   7
ENDBRANCH   5   6
ENDBRANCH  13   5
ENDBRANCH  16  14
TORSDOF 8
ENDMDL
MODEL 2
REMARK VINA RESULT:     -10.8      1.981      4.130
REMARK  Name = 
REMARK  8 active torsions:
REMARK  status: ('A' for Active; 'I' for Inactive)
REMARK    1  A    between atoms: O_2  and  C_3
REMARK    2  A    between atoms: C_3  and  C_5
REMARK    3  A    between atoms: C_5  and  C_6
REMARK    4  A    between atoms: C_5  and  N_13
REMARK    5  A    between atoms: C_6  and  C_7
REMARK    6  A    between atoms: C_14  and  C_16
REMARK    7  A    between atoms: C_22  and  C_24
REMARK    8  A    between atoms: C_29  and  C_31
REMARK                            x       y       z     vdW  Elec       q    Type
REMARK                         _______ _______ _______ _____ _____    ______ ____
ROOT
ATOM     16  C   UNL     1      -2.627   0.369  24.842  0.00  0.00    +0.174 C 
ATOM     17  C   UNL     1      -3.016   1.088  24.954  0.00  0.00    +0.123 C 
ATOM     18  N   UNL     1      -3.838   1.107  25.020  0.00  0.00    -0.272 N 
ATOM     19  C   UNL     1      -4.271   0.406  24.973  0.00  0.00    +0.115 C 
ATOM     20  C   UNL     1      -3.883  -0.312  24.862  0.00  0.00    +0.116 C 
ATOM     21  N   UNL     1      -3.061  -0.331  24.796  0.00  0.00    -0.266 N 
ATOM     22  C   UNL     1      -2.672  -1.050  24.684  0.00  0.00    +0.255 C 
ATOM     23  O   UNL     1      -1.850  -1.069  24.618  0.00  0.00    -0.269 OA
ATOM     29  C   UNL     1      -4.226   1.826  25.132  0.00  0.00    +0.249 C 
ATOM     30  O   UNL     1      -3.793   2.527  25.178  0.00  0.00    -0.270 OA
ENDROOT
BRANCH  29  31
ATOM     31  C   UNL     1      -5.048   1.845  25.197  0.00  0.00    +0.056 A 
ATOM     32  C   UNL     1      -5.516   1.887  24.518  0.00  0.00    +0.005 A 
ATOM     33  C   UNL     1      -6.338   1.906  24.584  0.00  0.00    +0.002 A 
ATOM     34  C   UNL     1      -6.692   1.882  25.329  0.00  0.00    +0.030 A 
ATOM     35  C   UNL     1      -6.225   1.840  26.007  0.00  0.00    +0.140 A 
ATOM     36  F   UNL     1      -6.580   1.816  26.752  0.00  0.00    -0.204 F 
ATOM     37  C   UNL     1      -5.403   1.821  25.941  0.00  0.00    +0.034 A 
ENDBRANCH  29  31
BRANCH  22  24
ATOM     24  C   UNL     1      -3.106  -1.751  24.638  0.00  0.00    +0.083 A 
ATOM     25  C   UNL     1      -3.549  -2.005  23.990  0.00  0.00    +0.012 A 
ATOM     26  C   UNL     1      -3.890  -2.731  24.183  0.00  0.00    +0.008 A 
ATOM     27  C   UNL     1      -3.658  -2.925  24.951  0.00  0.00    +0.036 A 
ATOM     28  S   UNL     1      -3.173  -2.319  25.232  0.00  0.00    -0.082 S 
ENDBRANCH  22  24
BRANCH  16  14
ATOM     13  N   UNL     1      -1.413   0.926  24.334  0.00  0.00    -0.194 NA
ATOM     14  C   UNL     1      -1.805   0.350  24.776  0.00  0.00    +0.262 C 
ATOM     15  O   UNL     1      -1.375  -0.246  25.152  0.00  0.00    -0.271 OA
BRANCH  13   5
ATOM      5  C   UNL     1      -0.591   0.907  24.268  0.00  0.00    +0.198 C 
BRANCH   5   3
ATOM      3  C   UNL     1      -0.238   0.587  23.595  0.00  0.00    +0.337 C 
ATOM      4  O   UNL     1      -0.542   0.761  22.848  0.00  0.00    -0.248 OA
BRANCH   3   2
ATOM      1  C   UNL     1       0.819  -0.163  22.993  0.00  0.00    +0.256 C 
ATOM      2  O   UNL     1       0.419   0.093  23.668  0.00  0.00    -0.443 OA
ENDBRANCH   3   2
ENDBRANCH   5   3
BRANCH   5   6
ATOM      6  C   UNL     1      -0.121   1.208  24.876  0.00  0.00    +0.061 C 
BRANCH   6   7
ATOM      7  C   UNL     1      -0.120   2.017  25.034  0.00  0.00    -0.001 A 
ATOM      8  C   UNL     1      -0.112   2.284  25.815  0.00  0.00    -0.001 A 
ATOM      9  C   UNL     1      -0.111   3.094  25.974  0.00  0.00    +0.020 A 
ATOM     10  C   UNL     1      -0.117   3.636  25.352  0.00  0.00    +0.099 A 
ATOM     11  N   UNL     1      -0.124   3.369  24.572  0.00  0.00    -0.243 NA
ATOM     12  C   UNL     1      -0.126   2.559  24.413  0.00  0.00    +0.095 A 
ENDBRANCH   6   7
ENDBRANCH   5   6
ENDBRANCH  13   5
ENDBRANCH  16  14
TORSDOF 8
ENDMDL
MODEL 3
REMARK VINA RESULT:     -10.6      1.654      3.525
REMARK  Name = 
REMARK  8 active torsions:
REMARK  status: ('A' for Active; 'I' for Inactive)
REMARK    1  A    between atoms: O_2  and  C_3
REMARK    2  A    between atoms: C_3  and  C_5
REMARK    3  A    between atoms: C_5  and  C_6
REMARK    4  A    between atoms: C_5  and  N_13
REMARK    5  A    between atoms: C_6  and  C_7
REMARK    6  A    between atoms: C_14  and  C_16
REMARK    7  A    between atoms: C_22  and  C_24
REMARK    8  A    between atoms: C_29  and  C_31
REMARK                            x       y       z     vdW  Elec       q    Type
REMARK                         _______ _______ _______ _____ _____    ______ ____
ROOT
ATOM     16  C   UNL     1      -3.198   1.395  24.654  0.00  0.00    +0.174 C 
ATOM     17  C   UNL     1      -2.783   0.688  24.551  0.00  0.00    +0.123 C 
ATOM     18  N   UNL     1      -3.174  -0.035  24.627  0.00  0.00    -0.272 N 
ATOM     19  C   UNL     1      -3.979  -0.050  24.807  0.00  0.00    +0.115 C 
ATOM     20  C   UNL     1      -4.393   0.655  24.910  0.00  0.00    +0.116 C 
ATOM     21  N   UNL     1      -4.003   1.377  24.833  0.00  0.00    -0.266 N 
ATOM     22  C   UNL     1      -4.416   2.084  24.936  0.00  0.00    +0.255 C 
ATOM     23  O   UNL     1      -4.025   2.806  24.859  0.00  0.00    -0.269 OA
ATOM     29  C   UNL     1      -2.760  -0.740  24.524  0.00  0.00    +0.249 C 
ATOM     30  O   UNL     1      -1.955  -0.724  24.345  0.00  0.00    -0.270 OA
ENDROOT
BRANCH  29  31
ATOM     31  C   UNL     1      -3.151  -1.462  24.601  0.00  0.00    +0.056 A 
ATOM     32  C   UNL     1      -3.080  -1.898  25.299  0.00  0.00    +0.005 A 
ATOM     33  C   UNL     1      -3.471  -2.621  25.375  0.00  0.00    +0.002 A 
ATOM     34  C   UNL     1      -3.932  -2.907  24.754  0.00  0.00    +0.030 A 
ATOM     35  C   UNL     1      -4.004  -2.472  24.058  0.00  0.00    +0.140 A 
ATOM     36  F   UNL     1      -4.465  -2.759  23.437  0.00  0.00    -0.204 F 
ATOM     37  C   UNL     1      -3.613  -1.750  23.981  0.00  0.00    +0.034 A 
ENDBRANCH  29  31
BRANCH  22  24
ATOM     24  C   UNL     1      -5.222   2.067  25.116  0.00  0.00    +0.083 A 
ATOM     25  C   UNL     1      -5.830   1.861  24.598  0.00  0.00    +0.012 A 
ATOM     26  C   UNL     1      -6.544   1.920  25.007  0.00  0.00    +0.008 A 
ATOM     27  C   UNL     1      -6.377   2.163  25.778  0.00  0.00    +0.036 A 
ATOM     28  S   UNL     1      -5.560   2.254  25.845  0.00  0.00    -0.082 S 
ENDBRANCH  22  24
BRANCH  16  14
ATOM     13  N   UNL     1      -2.148   2.281  25.045  0.00  0.00    -0.194 NA
ATOM     14  C   UNL     1      -2.807   2.117  24.577  0.00  0.00    +0.262 C 
ATOM     15  O   UNL     1      -3.076   2.675  24.032  0.00  0.00    -0.271 OA
BRANCH  13   5
ATOM      5  C   UNL     1      -1.757   3.003  24.968  0.00  0.00    +0.198 C 
BRANCH   5   3
ATOM      3  C   UNL     1      -1.946   3.630  25.470  0.00  0.00    +0.337 C 
ATOM      4  O   UNL     1      -2.019   3.500  26.282  0.00  0.00    -0.248 OA
BRANCH   3   2
ATOM      1  C   UNL     1      -2.138   5.032  25.669  0.00  0.00    +0.256 C 
ATOM      2  O   UNL     1      -2.062   4.386  25.161  0.00  0.00    -0.443 OA
ENDBRANCH   3   2
ENDBRANCH   5   3
BRANCH   5   6
ATOM      6  C   UNL     1      -1.178   3.100  24.389  0.00  0.00    +0.061 C 
BRANCH   6   7
ATOM      7  C   UNL     1      -0.475   2.669  24.433  0.00  0.00    -0.001 A 
ATOM      8  C   UNL     1      -0.159   2.327  23.751  0.00  0.00    -0.001 A 
ATOM      9  C   UNL     1       0.543   1.896  23.795  0.00  0.00    +0.020 A 
ATOM     10  C   UNL     1       0.930   1.808  24.519  0.00  0.00    +0.099 A 
ATOM     11  N   UNL     1       0.613   2.151  25.199  0.00  0.00    -0.243 NA
ATOM     12  C   UNL     1      -0.089   2.582  25.156  0.00  0.00    +0.095 A 
ENDBRANCH   6   7
ENDBRANCH   5   6
ENDBRANCH  13   5
ENDBRANCH  16  14
TORSDOF 8
ENDMDL
MODEL 4
REMARK VINA RESULT:     -10.1      1.973      4.467
REMARK  Name = 
REMARK  8 active torsions:
REMARK  status: ('A' for Active; 'I' for Inactive)
REMARK    1  A    between atoms: O_2  and  C_3
REMARK    2  A    between atoms: C_3  and  C_5
REMARK    3  A    between atoms: C_5  and  C_6
REMARK    4  A    between atoms: C_5  and  N_13
REMARK    5  A    between atoms: C_6  and  C_7
REMARK    6  A    between atoms: C_14  and  C_16
REMARK    7  A    between atoms: C_22  and  C_24
REMARK    8  A    between atoms: C_29  and  C_31
REMARK                            x       y       z     vdW  Elec       q    Type
REMARK                         _______ _______ _______ _____ _____    ______ ____
ROOT
ATOM     16  C   UNL     1      -1.414   0.783  24.559  0.00  0.00    +0.174 C 
ATOM     17  C   UNL     1      -1.009   0.170  24.182  0.00  0.00    +0.123 C 
ATOM     18  N   UNL     1      -0.269   0.309  23.846  0.00  0.00    -0.272 N 
ATOM     19  C   UNL     1       0.067   1.062  23.887  0.00  0.00    +0.115 C 
ATOM     20  C   UNL     1      -0.336   1.674  24.263  0.00  0.00    +0.116 C 
ATOM     21  N   UNL     1      -1.077   1.535  24.599  0.00  0.00    -0.266 N 
ATOM     22  C   UNL     1      -1.481   2.147  24.976  0.00  0.00    +0.255 C 
ATOM     23  O   UNL     1      -2.222   2.008  25.312  0.00  0.00    -0.269 OA
ATOM     29  C   UNL     1       0.135  -0.303  23.469  0.00  0.00    +0.249 C 
ATOM     30  O   UNL     1      -0.201  -1.056  23.428  0.00  0.00    -0.270 OA
ENDROOT
BRANCH  29  31
ATOM     31  C   UNL     1       0.875  -0.164  23.133  0.00  0.00    +0.056 A 
ATOM     32  C   UNL     1       1.510   0.061  23.611  0.00  0.00    +0.005 A 
ATOM     33  C   UNL     1       2.250   0.200  23.275  0.00  0.00    +0.002 A 
ATOM     34  C   UNL     1       2.356   0.115  22.461  0.00  0.00    +0.030 A 
ATOM     35  C   UNL     1       1.723  -0.110  21.984  0.00  0.00    +0.140 A 
ATOM     36  F   UNL     1       1.828  -0.196  21.170  0.00  0.00    -0.204 F 
ATOM     37  C   UNL     1       0.982  -0.249  22.320  0.00  0.00    +0.034 A 
ENDBRANCH  29  31
BRANCH  22  24
ATOM     24  C   UNL     1      -1.144   2.900  25.016  0.00  0.00    +0.083 A 
ATOM     25  C   UNL     1      -0.569   3.145  25.554  0.00  0.00    +0.012 A 
ATOM     26  C   UNL     1      -0.393   3.935  25.396  0.00  0.00    +0.008 A 
ATOM     27  C   UNL     1      -0.860   4.179  24.761  0.00  0.00    +0.036 A 
ATOM     28  S   UNL     1      -1.325   3.539  24.526  0.00  0.00    -0.082 S 
ENDBRANCH  22  24
BRANCH  16  14
ATOM     13  N   UNL     1      -2.754   0.302  24.444  0.00  0.00    -0.194 NA
ATOM     14  C   UNL     1      -2.154   0.644  24.895  0.00  0.00    +0.262 C 
ATOM     15  O   UNL     1      -2.294   0.846  25.682  0.00  0.00    -0.271 OA
BRANCH  13   5
ATOM      5  C   UNL     1      -3.494   0.163  24.780  0.00  0.00    +0.198 C 
BRANCH   5   3
ATOM      3  C   UNL     1      -4.118   0.683  24.635  0.00  0.00    +0.337 C 
ATOM      4  O   UNL     1      -4.235   0.984  23.875  0.00  0.00    -0.248 OA
BRANCH   3   2
ATOM      1  C   UNL     1      -5.245   1.425  25.103  0.00  0.00    +0.256 C 
ATOM      2  O   UNL     1      -4.624   0.901  25.249  0.00  0.00    -0.443 OA
ENDBRANCH   3   2
ENDBRANCH   5   3
BRANCH   5   6
ATOM      6  C   UNL     1      -3.612  -0.497  25.261  0.00  0.00    +0.061 C 
BRANCH   6   7
ATOM      7  C   UNL     1      -3.693  -1.245  24.923  0.00  0.00    -0.001 A 
ATOM      8  C   UNL     1      -3.355  -1.902  25.291  0.00  0.00    -0.001 A 
ATOM      9  C   UNL     1      -3.436  -2.650  24.953  0.00  0.00    +0.020 A 
ATOM     10  C   UNL     1      -3.855  -2.742  24.248  0.00  0.00    +0.099 A 
ATOM     11  N   UNL     1      -4.193  -2.085  23.881  0.00  0.00    -0.243 NA
ATOM     12  C   UNL     1      -4.112  -1.336  24.219  0.00  0.00    +0.095 A 
ENDBRANCH   6   7
ENDBRANCH   5   6
ENDBRANCH  13   5
ENDBRANCH  16  14
TORSDOF 8
ENDMDL
MODEL 5
REMARK VINA RESULT:      -9.9      1.882      4.488
REMARK  Name = 
REMARK  8 active torsions:
REMARK  status: ('A' for Active; 'I' for Inactive)
REMARK    1  A    between atoms: O_2  and  C_3
REMARK    2  A    between atoms: C_3  and  C_5
REMARK    3  A    between atoms: C_5  and  C_6
REMARK    4  A    between atoms: C_5  and  N_13
REMARK    5  A    between atoms: C_6  and  C_7
REMARK    6  A    between atoms: C_14  and  C_16
REMARK    7  A    between atoms: C_22  and  C_24
REMARK    8  A    between atoms: C_29  and  C_31
REMARK                            x       y       z     vdW  Elec       q    Type
REMARK                         _______ _______ _______ _____ _____    ______ ____
ROOT
ATOM     16  C   UNL     1      -1.960   1.525  24.861  0.00  0.00    +0.174 C 
ATOM     17  C   UNL     1      -2.687   1.134  24.880  0.00  0.00    +0.123 C 
ATOM     18  N   UNL     1      -3.385   1.565  24.970  0.00  0.00    -0.272 N 
ATOM     19  C   UNL     1      -3.356   2.387  25.041  0.00  0.00    +0.115 C 
ATOM     20  C   UNL     1      -2.630   2.777  25.022  0.00  0.00    +0.116 C 
ATOM     21  N   UNL     1      -1.932   2.346  24.932  0.00  0.00    -0.266 N 
ATOM     22  C   UNL     1      -1.206   2.736  24.913  0.00  0.00    +0.255 C 
ATOM     23  O   UNL     1      -0.508   2.305  24.823  0.00  0.00    -0.269 OA
ATOM     29  C   UNL     1      -4.111   1.175  24.989  0.00  0.00    +0.249 C 
ATOM     30  O   UNL     1      -4.140   0.353  24.917  0.00  0.00    -0.270 OA
ENDROOT
BRANCH  29  31
ATOM     31  C   UNL     1      -4.809   1.605  25.079  0.00  0.00    +0.056 A 
ATOM     32  C   UNL     1      -5.147   1.984  24.428  0.00  0.00    +0.005 A 
ATOM     33  C   UNL     1      -5.845   2.415  24.518  0.00  0.00    +0.002 A 
ATOM     34  C   UNL     1      -6.204   2.467  25.259  0.00  0.00    +0.030 A 
ATOM     35  C   UNL     1      -5.867   2.089  25.909  0.00  0.00    +0.140 A 
ATOM     36  F   UNL     1      -6.226   2.141  26.650  0.00  0.00    -0.204 F 
ATOM     37  C   UNL     1      -5.169   1.658  25.819  0.00  0.00    +0.034 A 
ENDBRANCH  29  31
BRANCH  22  24
ATOM     24  C   UNL     1      -1.177   3.558  24.984  0.00  0.00    +0.083 A 
ATOM     25  C   UNL     1      -1.459   4.000  25.621  0.00  0.00    +0.012 A 
ATOM     26  C   UNL     1      -1.318   4.797  25.461  0.00  0.00    +0.008 A 
ATOM     27  C   UNL     1      -0.948   4.848  24.725  0.00  0.00    +0.036 A 
ATOM     28  S   UNL     1      -0.861   4.082  24.430  0.00  0.00    -0.082 S 
ENDBRANCH  22  24
BRANCH  16  14
ATOM     13  N   UNL     1      -1.226   0.478  24.224  0.00  0.00    -0.194 NA
ATOM     14  C   UNL     1      -1.262   1.094  24.771  0.00  0.00    +0.262 C 
ATOM     15  O   UNL     1      -0.601   1.281  25.228  0.00  0.00    -0.271 OA
BRANCH  13   5
ATOM      5  C   UNL     1      -0.529   0.047  24.134  0.00  0.00    +0.198 C 
BRANCH   5   3
ATOM      3  C   UNL     1      -0.020   0.211  23.506  0.00  0.00    +0.337 C 
ATOM      4  O   UNL     1      -0.330   0.407  22.766  0.00  0.00    -0.248 OA
BRANCH   3   2
ATOM      1  C   UNL     1       1.303   0.236  22.966  0.00  0.00    +0.256 C 
ATOM      2  O   UNL     1       0.797   0.179  23.616  0.00  0.00    -0.443 OA
ENDBRANCH   3   2
ENDBRANCH   5   3
BRANCH   5   6
ATOM      6  C   UNL     1      -0.338  -0.548  24.673  0.00  0.00    +0.061 C 
BRANCH   6   7
ATOM      7  C   UNL     1      -0.776  -1.247  24.687  0.00  0.00    -0.001 A 
ATOM      8  C   UNL     1      -0.928  -1.623  25.406  0.00  0.00    -0.001 A 
ATOM      9  C   UNL     1      -1.365  -2.323  25.421  0.00  0.00    +0.020 A 
ATOM     10  C   UNL     1      -1.651  -2.646  24.717  0.00  0.00    +0.099 A 
ATOM     11  N   UNL     1      -1.498  -2.269  23.999  0.00  0.00    -0.243 NA
ATOM     12  C   UNL     1      -1.060  -1.570  23.984  0.00  0.00    +0.095 A 
ENDBRANCH   6   7
ENDBRANCH   5   6
ENDBRANCH  13   5
ENDBRANCH  16  14
TORSDOF 8
ENDMDL
MODEL 6
REMARK VINA RESULT:      -9.5      2.014      4.586
REMARK  Name = 
REMARK  8 active torsions:
REMARK  status: ('A' for Active; 'I' for Inactive)
REMARK    1  A    between atoms: O_2  and  C_3
REMARK    2  A    between atoms: C_3  and  C_5
REMARK    3  A    between atoms: C_5  and  C_6
REMARK    4  A    between atoms: C_5  and  N_13
REMARK    5  A    between atoms: C_6  and  C_7
REMARK    6  A    between atoms: C_14  and  C_16
REMARK    7  A    between atoms: C_22  and  C_24
REMARK    8  A    between atoms: C_29  and  C_31
REMARK                            x       y       z     vdW  Elec       q    Type
REMARK                         _______ _______ _______ _____ _____    ______ ____
ROOT
ATOM     16  C   UNL     1      -2.298   0.892  24.781  0.00  0.00    +0.174 C 
ATOM     17  C   UNL     1      -3.122   0.935  24.747  0.00  0.00    +0.123 C 
ATOM     18  N   UNL     1      -3.505   1.648  24.906  0.00  0.00    -0.272 N 
ATOM     19  C   UNL     1      -3.065   2.319  25.097  0.00  0.00    +0.115 C 
ATOM     20  C   UNL     1      -2.242   2.277  25.131  0.00  0.00    +0.116 C 
ATOM     21  N   UNL     1      -1.859   1.563  24.972  0.00  0.00    -0.266 N 
ATOM     22  C   UNL     1      -1.036   1.520  25.006  0.00  0.00    +0.255 C 
ATOM     23  O   UNL     1      -0.653   0.807  24.847  0.00  0.00    -0.269 OA
ATOM     29  C   UNL     1      -4.328   1.690  24.872  0.00  0.00    +0.249 C 
ATOM     30  O   UNL     1      -4.769   1.020  24.681  0.00  0.00    -0.270 OA
ENDROOT
BRANCH  29  31
ATOM     31  C   UNL     1      -4.711   2.404  25.031  0.00  0.00    +0.056 A 
ATOM     32  C   UNL     1      -4.627   3.041  24.513  0.00  0.00    +0.005 A 
ATOM     33  C   UNL     1      -5.010   3.755  24.671  0.00  0.00    +0.002 A 
ATOM     34  C   UNL     1      -5.477   3.830  25.348  0.00  0.00    +0.030 A 
ATOM     35  C   UNL     1      -5.561   3.194  25.865  0.00  0.00    +0.140 A 
ATOM     36  F   UNL     1      -6.028   3.269  26.541  0.00  0.00    -0.204 F 
ATOM     37  C   UNL     1      -5.178   2.480  25.706  0.00  0.00    +0.034 A 
ENDBRANCH  29  31
BRANCH  22  24
ATOM     24  C   UNL     1      -0.596   2.192  25.198  0.00  0.00    +0.083 A 
ATOM     25  C   UNL     1      -0.412   2.813  24.688  0.00  0.00    +0.012 A 
ATOM     26  C   UNL     1       0.035   3.365  25.108  0.00  0.00    +0.008 A 
ATOM     27  C   UNL     1       0.128   3.084  25.879  0.00  0.00    +0.036 A 
ATOM     28  S   UNL     1      -0.262   2.359  25.934  0.00  0.00    -0.082 S 
ENDBRANCH  22  24
BRANCH  16  14
ATOM     13  N   UNL     1      -2.121  -0.501  25.041  0.00  0.00    -0.194 NA
ATOM     14  C   UNL     1      -1.915   0.179  24.622  0.00  0.00    +0.262 C 
ATOM     15  O   UNL     1      -1.327   0.147  24.045  0.00  0.00    -0.271 OA
BRANCH  13   5
ATOM      5  C   UNL     1      -1.738  -1.214  24.882  0.00  0.00    +0.198 C 
BRANCH   5   3
ATOM      3  C   UNL     1      -1.099  -1.452  25.347  0.00  0.00    +0.337 C 
ATOM      4  O   UNL     1      -1.130  -1.363  26.167  0.00  0.00    -0.248 OA
BRANCH   3   2
ATOM      1  C   UNL     1       0.140  -2.154  25.456  0.00  0.00    +0.256 C 
ATOM      2  O   UNL     1      -0.429  -1.778  24.993  0.00  0.00    -0.443 OA
ENDBRANCH   3   2
ENDBRANCH   5   3
BRANCH   5   6
ATOM      6  C   UNL     1      -1.993  -1.690  24.259  0.00  0.00    +0.061 C 
BRANCH   6   7
ATOM      7  C   UNL     1      -2.698  -2.113  24.324  0.00  0.00    -0.001 A 
ATOM      8  C   UNL     1      -3.269  -2.057  23.731  0.00  0.00    -0.001 A 
ATOM      9  C   UNL     1      -3.974  -2.479  23.796  0.00  0.00    +0.020 A 
ATOM     10  C   UNL     1      -4.109  -2.958  24.455  0.00  0.00    +0.099 A 
ATOM     11  N   UNL     1      -3.538  -3.014  25.047  0.00  0.00    -0.243 NA
ATOM     12  C   UNL     1      -2.833  -2.591  24.982  0.00  0.00    +0.095 A 
ENDBRANCH   6   7
ENDBRANCH   5   6
ENDBRANCH  13   5
ENDBRANCH  16  14
TORSDOF 8
ENDMDL
MODEL 7
REMARK VINA RESULT:      -9.3      2.334      5.669
REMARK  Name = 
REMARK  8 active torsions:
REMARK  status: ('A' for Active; 'I' for Inactive)
REMARK    1  A    between atoms: O_2  and  C_3
REMARK    2  A    between atoms: C_3  and  C_5
REMARK    3  A    between atoms: C_5  and  C_6
REMARK    4  A    between atoms: C_5  and  N_13
REMARK    5  A    between atoms: C_6  and  C_7
REMARK    6  A    between atoms: C_14  and  C_16
REMARK    7  A    between atoms: C_22  and  C_24
REMARK    8  A    between atoms: C_29  and  C_31
REMARK                            x       y       z     vdW  Elec       q    Type
REMARK                         _______ _______ _______ _____ _____    ______ ____
ROOT
ATOM     16  C   UNL     1      -3.178   1.182  25.076  0.00  0.00    +0.174 C 
ATOM     17  C   UNL     1      -2.397   1.443  25.016  0.00  0.00    +0.123 C 
ATOM     18  N   UNL     1      -2.232   2.252  25.006  0.00  0.00    -0.272 N 
ATOM     19  C   UNL     1      -2.847   2.799  25.057  0.00  0.00    +0.115 C 
ATOM     20  C   UNL     1      -3.627   2.538  25.117  0.00  0.00    +0.116 C 
ATOM     21  N   UNL     1      -3.792   1.730  25.126  0.00  0.00    -0.266 N 
ATOM     22  C   UNL     1      -4.572   1.468  25.186  0.00  0.00    +0.255 C 
ATOM     23  O   UNL     1      -4.738   0.660  25.196  0.00  0.00    -0.269 OA
ATOM     29  C   UNL     1      -1.452   2.512  24.947  0.00  0.00    +0.249 C 
ATOM     30  O   UNL     1      -0.836   1.965  24.896  0.00  0.00    -0.270 OA
ENDROOT
BRANCH  29  31
ATOM     31  C   UNL     1      -1.287   3.320  24.937  0.00  0.00    +0.056 A 
ATOM     32  C   UNL     1      -1.574   3.808  25.538  0.00  0.00    +0.005 A 
ATOM     33  C   UNL     1      -1.409   4.616  25.529  0.00  0.00    +0.002 A 
ATOM     34  C   UNL     1      -0.956   4.937  24.918  0.00  0.00    +0.030 A 
ATOM     35  C   UNL     1      -0.669   4.451  24.318  0.00  0.00    +0.140 A 
ATOM     36  F   UNL     1      -0.216   4.771  23.707  0.00  0.00    -0.204 F 
ATOM     37  C   UNL     1      -0.834   3.642  24.327  0.00  0.00    +0.034 A 
ENDBRANCH  29  31
BRANCH  22  24
ATOM     24  C   UNL     1      -5.188   2.016  25.237  0.00  0.00    +0.083 A 
ATOM     25  C   UNL     1      -5.628   2.311  24.605  0.00  0.00    +0.012 A 
ATOM     26  C   UNL     1      -6.183   2.842  24.905  0.00  0.00    +0.008 A 
ATOM     27  C   UNL     1      -6.086   2.876  25.725  0.00  0.00    +0.036 A 
ATOM     28  S   UNL     1      -5.471   2.365  25.929  0.00  0.00    -0.082 S 
ENDBRANCH  22  24
BRANCH  16  14
ATOM     13  N   UNL     1      -2.948  -0.133  24.569  0.00  0.00    -0.194 NA
ATOM     14  C   UNL     1      -3.343   0.374  25.085  0.00  0.00    +0.262 C 
ATOM     15  O   UNL     1      -3.903   0.074  25.611  0.00  0.00    -0.271 OA
BRANCH  13   5
ATOM      5  C   UNL     1      -3.113  -0.942  24.579  0.00  0.00    +0.198 C 
BRANCH   5   3
ATOM      3  C   UNL     1      -3.622  -1.266  24.016  0.00  0.00    +0.337 C 
ATOM      4  O   UNL     1      -3.593  -1.002  23.234  0.00  0.00    -0.248 OA
BRANCH   3   2
ATOM      1  C   UNL     1      -4.593  -2.250  23.655  0.00  0.00    +0.256 C 
ATOM      2  O   UNL     1      -4.159  -1.853  24.234  0.00  0.00    -0.443 OA
ENDBRANCH   3   2
ENDBRANCH   5   3
BRANCH   5   6
ATOM      6  C   UNL     1      -2.770  -1.427  25.151  0.00  0.00    +0.061 C 
BRANCH   6   7
ATOM      7  C   UNL     1      -1.979  -1.650  25.082  0.00  0.00    -0.001 A 
ATOM      8  C   UNL     1      -1.419  -1.352  25.610  0.00  0.00    -0.001 A 
ATOM      9  C   UNL     1      -0.628  -1.575  25.541  0.00  0.00    +0.020 A 
ATOM     10  C   UNL     1      -0.396  -2.097  24.944  0.00  0.00    +0.099 A 
ATOM     11  N   UNL     1      -0.957  -2.395  24.417  0.00  0.00    -0.243 NA
ATOM     12  C   UNL     1      -1.748  -2.171  24.486  0.00  0.00    +0.095 A 
ENDBRANCH   6   7
ENDBRANCH   5   6
ENDBRANCH  13   5
ENDBRANCH  16  14
TORSDOF 8
ENDMDL
