MODEL 1
REMARK VINA RESULT:      -9.8      0.000      0.000
REMARK  Name = 
REMARK  5 active torsions:
REMARK  status: ('A' for Active; 'I' for Inactive)
REMARK    1  A    between atoms: C_3  and  C_4
REMARK    2  A    between atoms: C_4  and  N_5
REMARK    3  A    between atoms: C_6  and  C_8
REMARK    4  A    between atoms: C_16  and  N_17
REMARK    5  A    between atoms: N_17  and  C_18
REMARK                            x       y       z     vdW  Elec       q    Type
REMARK                         _______ _______ _______ _____ _____    ______ ____
ROOT
ATOM      1  O   UNL     1      -4.903   1.128  25.403  0.00  0.00    -0.219 OA
ATOM      2  C   UNL     1      -4.256   0.984  24.912  0.00  0.00    +0.199 C 
ATOM      3  C   UNL     1      -3.666   1.526  24.715  0.00  0.00    +0.169 C 
ATOM     14  O   UNL     1      -3.131   1.149  24.212  0.00  0.00    -0.350 OA
ATOM     15  C   UNL     1      -3.389   0.374  24.099  0.00  0.00    +0.162 C 
ATOM     16  C   UNL     1      -4.085   0.272  24.531  0.00  0.00    +0.135 C 
ENDROOT
BRANCH   3   4
ATOM      4  C   UNL     1      -3.620   2.308  24.975  0.00  0.00    +0.148 C 
BRANCH   4   5
ATOM      5  N   UNL     1      -2.906   2.718  24.923  0.00  0.00    -0.199 NA
ATOM      6  C   UNL     1      -2.840   3.472  25.250  0.00  0.00    +0.265 C 
ATOM      7  O   UNL     1      -3.487   3.816  25.629  0.00  0.00    -0.268 OA
BRANCH   6   8
ATOM      8  C   UNL     1      -2.126   3.883  25.199  0.00  0.00    +0.058 A 
ATOM      9  C   UNL     1      -2.127   4.704  25.124  0.00  0.00    +0.025 A 
ATOM     10  C   UNL     1      -1.413   5.115  25.073  0.00  0.00    +0.099 A 
ATOM     11  N   UNL     1      -0.698   4.704  25.097  0.00  0.00    -0.242 NA
ATOM     12  C   UNL     1      -0.697   3.882  25.172  0.00  0.00    +0.099 A 
ATOM     13  C   UNL     1      -1.411   3.472  25.223  0.00  0.00    +0.025 A 
ENDBRANCH   6   8
ENDBRANCH   4   5
ENDBRANCH   3   4
BRANCH  16  17
ATOM     17  N   UNL     1      -4.530  -0.421  24.575  0.00  0.00    -0.215 NA
BRANCH  17  18
ATOM     18  C   UNL     1      -4.154  -1.155  24.572  0.00  0.00    +0.078 C 
ATOM     19  C   UNL     1      -3.735  -1.407  25.235  0.00  0.00    +0.050 C 
ATOM     20  C   UNL     1      -3.359  -2.142  25.231  0.00  0.00    +0.144 C 
ATOM     21  O   UNL     1      -3.403  -2.624  24.563  0.00  0.00    -0.354 OA
ATOM     22  C   UNL     1      -3.823  -2.372  23.899  0.00  0.00    +0.144 C 
ATOM     23  C   UNL     1      -4.199  -1.637  23.904  0.00  0.00    +0.050 C 
ENDBRANCH  17  18
ENDBRANCH  16  17
TORSDOF 5
ENDMDL
MODEL 2
REMARK VINA RESULT:      -9.3      1.522      1.984
REMARK  Name = 
REMARK  5 active torsions:
REMARK  status: ('A' for Active; 'I' for Inactive)
REMARK    1  A    between atoms: C_3  and  C_4
REMARK    2  A    between atoms: C_4  and  N_5
REMARK    3  A    between atoms: C_6  and  C_8
REMARK    4  A    between atoms: C_16  and  N_17
REMARK    5  A    between atoms: N_17  and  C_18
REMARK                            x       y       z     vdW  Elec       q    Type
REMARK                         _______ _______ _______ _____ _____    ______ ____
ROOT
ATOM      1  O   UNL     1      -0.634  -0.191  24.801  0.00  0.00    -0.219 OA
ATOM      2  C   UNL     1      -1.415   0.069  24.851  0.00  0.00    +0.199 C 
ATOM      3  C   UNL     1      -1.665   0.807  25.120  0.00  0.00    +0.169 C 
ATOM     14  O   UNL     1      -2.489   0.830  25.075  0.00  0.00    -0.350 OA
ATOM     15  C   UNL     1      -2.748   0.106  24.778  0.00  0.00    +0.162 C 
ATOM     16  C   UNL     1      -2.085  -0.365  24.639  0.00  0.00    +0.135 C 
ENDROOT
BRANCH   3   4
ATOM      4  C   UNL     1      -1.176   1.416  25.387  0.00  0.00    +0.148 C 
BRANCH   4   5
ATOM      5  N   UNL     1      -1.382   2.202  25.244  0.00  0.00    -0.199 NA
ATOM      6  C   UNL     1      -0.951   2.811  25.597  0.00  0.00    +0.265 C 
ATOM      7  O   UNL     1      -0.316   2.635  26.092  0.00  0.00    -0.268 OA
BRANCH   6   8
ATOM      8  C   UNL     1      -1.156   3.598  25.454  0.00  0.00    +0.058 A 
ATOM      9  C   UNL     1      -1.862   3.901  25.752  0.00  0.00    +0.025 A 
ATOM     10  C   UNL     1      -2.066   4.688  25.609  0.00  0.00    +0.099 A 
ATOM     11  N   UNL     1      -1.564   5.171  25.168  0.00  0.00    -0.242 NA
ATOM     12  C   UNL     1      -0.857   4.867  24.869  0.00  0.00    +0.099 A 
ATOM     13  C   UNL     1      -0.653   4.081  25.012  0.00  0.00    +0.025 A 
ENDBRANCH   6   8
ENDBRANCH   4   5
ENDBRANCH   3   4
BRANCH  16  17
ATOM     17  N   UNL     1      -2.089  -1.134  24.341  0.00  0.00    -0.215 NA
BRANCH  17  18
ATOM     18  C   UNL     1      -2.760  -1.607  24.428  0.00  0.00    +0.078 C 
ATOM     19  C   UNL     1      -3.381  -1.546  23.889  0.00  0.00    +0.050 C 
ATOM     20  C   UNL     1      -4.051  -2.019  23.976  0.00  0.00    +0.144 C 
ATOM     21  O   UNL     1      -4.101  -2.552  24.603  0.00  0.00    -0.354 OA
ATOM     22  C   UNL     1      -3.480  -2.613  25.144  0.00  0.00    +0.144 C 
ATOM     23  C   UNL     1      -2.810  -2.140  25.056  0.00  0.00    +0.050 C 
ENDBRANCH  17  18
ENDBRANCH  16  17
TORSDOF 5
ENDMDL
MODEL 3
REMARK VINA RESULT:      -9.2      1.151      5.259
REMARK  Name = 
REMARK  5 active torsions:
REMARK  status: ('A' for Active; 'I' for Inactive)
REMARK    1  A    between atoms: C_3  and  C_4
REMARK    2  A    between atoms: C_4  and  N_5
REMARK    3  A    between atoms: C_6  and  C_8
REMARK    4  A    between atoms: C_16  and  N_17
REMARK    5  A    between atoms: N_17  and  C_18
REMARK                            x       y       z     vdW  Elec       q    Type
REMARK                         _______ _______ _______ _____ _____    ______ ____
ROOT
ATOM      1  O   UNL     1      -4.766   2.292  24.283  0.00  0.00    -0.219 OA
ATOM      2  C   UNL     1      -3.969   2.078  24.289  0.00  0.00    +0.199 C 
ATOM      3  C   UNL     1      -3.673   1.309  24.254  0.00  0.00    +0.169 C 
ATOM     14  O   UNL     1      -2.849   1.351  24.275  0.00  0.00    -0.350 OA
ATOM     15  C   UNL     1      -2.636   2.147  24.322  0.00  0.00    +0.162 C 
ATOM     16  C   UNL     1      -3.328   2.596  24.331  0.00  0.00    +0.135 C 
ENDROOT
BRANCH   3   4
ATOM      4  C   UNL     1      -4.123   0.618  24.207  0.00  0.00    +0.148 C 
BRANCH   4   5
ATOM      5  N   UNL     1      -3.785  -0.108  24.405  0.00  0.00    -0.199 NA
ATOM      6  C   UNL     1      -4.238  -0.796  24.373  0.00  0.00    +0.265 C 
ATOM      7  O   UNL     1      -5.030  -0.758  24.143  0.00  0.00    -0.268 OA
BRANCH   6   8
ATOM      8  C   UNL     1      -3.901  -1.523  24.571  0.00  0.00    +0.058 A 
ATOM      9  C   UNL     1      -3.868  -2.128  24.012  0.00  0.00    +0.025 A 
ATOM     10  C   UNL     1      -3.531  -2.854  24.210  0.00  0.00    +0.099 A 
ATOM     11  N   UNL     1      -3.226  -2.975  24.968  0.00  0.00    -0.242 NA
ATOM     12  C   UNL     1      -3.259  -2.369  25.527  0.00  0.00    +0.099 A 
ATOM     13  C   UNL     1      -3.597  -1.643  25.328  0.00  0.00    +0.025 A 
ENDBRANCH   6   8
ENDBRANCH   4   5
ENDBRANCH   3   4
BRANCH  16  17
ATOM     17  N   UNL     1      -3.371   3.418  24.374  0.00  0.00    -0.215 NA
BRANCH  17  18
ATOM     18  C   UNL     1      -2.895   3.830  24.908  0.00  0.00    +0.078 C 
ATOM     19  C   UNL     1      -2.183   4.160  24.657  0.00  0.00    +0.050 C 
ATOM     20  C   UNL     1      -1.707   4.571  25.191  0.00  0.00    +0.144 C 
ATOM     21  O   UNL     1      -1.944   4.652  25.976  0.00  0.00    -0.354 OA
ATOM     22  C   UNL     1      -2.657   4.322  26.228  0.00  0.00    +0.144 C 
ATOM     23  C   UNL     1      -3.132   3.911  25.694  0.00  0.00    +0.050 C 
ENDBRANCH  17  18
ENDBRANCH  16  17
TORSDOF 5
ENDMDL
MODEL 4
REMARK VINA RESULT:      -9.1      1.913      5.590
REMARK  Name = 
REMARK  5 active torsions:
REMARK  status: ('A' for Active; 'I' for Inactive)
REMARK    1  A    between atoms: C_3  and  C_4
REMARK    2  A    between atoms: C_4  and  N_5
REMARK    3  A    between atoms: C_6  and  C_8
REMARK    4  A    between atoms: C_16  and  N_17
REMARK    5  A    between atoms: N_17  and  C_18
REMARK                            x       y       z     vdW  Elec       q    Type
REMARK                         _______ _______ _______ _____ _____    ______ ____
ROOT
ATOM      1  O   UNL     1      -0.236   1.507  26.268  0.00  0.00    -0.219 OA
ATOM      2  C   UNL     1      -0.598   1.641  25.538  0.00  0.00    +0.199 C 
ATOM      3  C   UNL     1      -0.894   1.063  25.030  0.00  0.00    +0.169 C 
ATOM     14  O   UNL     1      -1.206   1.442  24.367  0.00  0.00    -0.350 OA
ATOM     15  C   UNL     1      -1.103   2.254  24.465  0.00  0.00    +0.162 C 
ATOM     16  C   UNL     1      -0.727   2.378  25.189  0.00  0.00    +0.135 C 
ENDROOT
BRANCH   3   4
ATOM      4  C   UNL     1      -0.880   0.248  25.162  0.00  0.00    +0.148 C 
BRANCH   4   5
ATOM      5  N   UNL     1      -1.561  -0.201  25.041  0.00  0.00    -0.199 NA
ATOM      6  C   UNL     1      -1.550  -1.012  25.185  0.00  0.00    +0.265 C 
ATOM      7  O   UNL     1      -0.859  -1.376  25.451  0.00  0.00    -0.268 OA
BRANCH   6   8
ATOM      8  C   UNL     1      -2.232  -1.463  25.064  0.00  0.00    +0.058 A 
ATOM      9  C   UNL     1      -2.912  -1.308  25.503  0.00  0.00    +0.025 A 
ATOM     10  C   UNL     1      -3.592  -1.758  25.381  0.00  0.00    +0.099 A 
ATOM     11  N   UNL     1      -3.592  -2.363  24.820  0.00  0.00    -0.242 NA
ATOM     12  C   UNL     1      -2.911  -2.518  24.381  0.00  0.00    +0.099 A 
ATOM     13  C   UNL     1      -2.231  -2.067  24.503  0.00  0.00    +0.025 A 
ENDBRANCH   6   8
ENDBRANCH   4   5
ENDBRANCH   3   4
BRANCH  16  17
ATOM     17  N   UNL     1      -0.518   3.109  25.508  0.00  0.00    -0.215 NA
BRANCH  17  18
ATOM     18  C   UNL     1      -1.015   3.760  25.411  0.00  0.00    +0.078 C 
ATOM     19  C   UNL     1      -1.742   3.785  25.799  0.00  0.00    +0.050 C 
ATOM     20  C   UNL     1      -2.240   4.436  25.701  0.00  0.00    +0.144 C 
ATOM     21  O   UNL     1      -2.009   5.063  25.216  0.00  0.00    -0.354 OA
ATOM     22  C   UNL     1      -1.281   5.038  24.828  0.00  0.00    +0.144 C 
ATOM     23  C   UNL     1      -0.785   4.386  24.926  0.00  0.00    +0.050 C 
ENDBRANCH  17  18
ENDBRANCH  16  17
TORSDOF 5
ENDMDL
MODEL 5
REMARK VINA RESULT:      -8.3     16.025     18.535
REMARK  Name = 
REMARK  5 active torsions:
REMARK  status: ('A' for Active; 'I' for Inactive)
REMARK    1  A    between atoms: C_3  and  C_4
REMARK    2  A    between atoms: C_4  and  N_5
REMARK    3  A    between atoms: C_6  and  C_8
REMARK    4  A    between atoms: C_16  and  N_17
REMARK    5  A    between atoms: N_17  and  C_18
REMARK                            x       y       z     vdW  Elec       q    Type
REMARK                         _______ _______ _______ _____ _____    ______ ____
ROOT
ATOM      1  O   UNL     1      12.109   7.824  18.960  0.00  0.00    -0.219 OA
ATOM      2  C   UNL     1      12.352   7.422  19.639  0.00  0.00    +0.199 C 
ATOM      3  C   UNL     1      13.099   7.098  19.769  0.00  0.00    +0.169 C 
ATOM     14  O   UNL     1      13.099   6.750  20.517  0.00  0.00    -0.350 OA
ATOM     15  C   UNL     1      12.352   6.859  20.850  0.00  0.00    +0.162 C 
ATOM     16  C   UNL     1      11.890   7.275  20.307  0.00  0.00    +0.135 C 
ENDROOT
BRANCH   3   4
ATOM      4  C   UNL     1      13.735   7.118  19.243  0.00  0.00    +0.148 C 
BRANCH   4   5
ATOM      5  N   UNL     1      14.488   6.901  19.498  0.00  0.00    -0.199 NA
ATOM      6  C   UNL     1      15.142   7.039  19.016  0.00  0.00    +0.265 C 
ATOM      7  O   UNL     1      15.044   7.395  18.278  0.00  0.00    -0.268 OA
BRANCH   6   8
ATOM      8  C   UNL     1      15.897   6.822  19.270  0.00  0.00    +0.058 A 
ATOM      9  C   UNL     1      16.235   6.118  19.005  0.00  0.00    +0.025 A 
ATOM     10  C   UNL     1      16.989   5.902  19.260  0.00  0.00    +0.099 A 
ATOM     11  N   UNL     1      17.405   6.388  19.781  0.00  0.00    -0.242 NA
ATOM     12  C   UNL     1      17.066   7.092  20.046  0.00  0.00    +0.099 A 
ATOM     13  C   UNL     1      16.312   7.309  19.791  0.00  0.00    +0.025 A 
ENDBRANCH   6   8
ENDBRANCH   4   5
ENDBRANCH   3   4
BRANCH  16  17
ATOM     17  N   UNL     1      11.105   7.503  20.413  0.00  0.00    -0.215 NA
BRANCH  17  18
ATOM     18  C   UNL     1      10.867   7.845  21.125  0.00  0.00    +0.078 C 
ATOM     19  C   UNL     1      10.545   7.376  21.722  0.00  0.00    +0.050 C 
ATOM     20  C   UNL     1      10.307   7.718  22.434  0.00  0.00    +0.144 C 
ATOM     21  O   UNL     1      10.391   8.531  22.548  0.00  0.00    -0.354 OA
ATOM     22  C   UNL     1      10.712   9.001  21.951  0.00  0.00    +0.144 C 
ATOM     23  C   UNL     1      10.950   8.658  21.240  0.00  0.00    +0.050 C 
ENDBRANCH  17  18
ENDBRANCH  16  17
TORSDOF 5
ENDMDL
MODEL 6
REMARK VINA RESULT:      -7.9     16.195     18.743
REMARK  Name = 
REMARK  5 active torsions:
REMARK  status: ('A' for Active; 'I' for Inactive)
REMARK    1  A    between atoms: C_3  and  C_4
REMARK    2  A    between atoms: C_4  and  N_5
REMARK    3  A    between atoms: C_6  and  C_8
REMARK    4  A    between atoms: C_16  and  N_17
REMARK    5  A    between atoms: N_17  and  C_18
REMARK                            x       y       z     vdW  Elec       q    Type
REMARK                         _______ _______ _______ _____ _____    ______ ____
ROOT
ATOM      1  O   UNL     1      13.917   8.099  18.522  0.00  0.00    -0.219 OA
ATOM      2  C   UNL     1      13.972   7.539  19.125  0.00  0.00    +0.199 C 
ATOM      3  C   UNL     1      13.370   7.327  19.647  0.00  0.00    +0.169 C 
ATOM     14  O   UNL     1      13.665   6.749  20.156  0.00  0.00    -0.350 OA
ATOM     15  C   UNL     1      14.450   6.603  19.949  0.00  0.00    +0.162 C 
ATOM     16  C   UNL     1      14.640   7.091  19.311  0.00  0.00    +0.135 C 
ENDROOT
BRANCH   3   4
ATOM      4  C   UNL     1      12.606   7.640  19.658  0.00  0.00    +0.148 C 
BRANCH   4   5
ATOM      5  N   UNL     1      12.223   7.768  20.378  0.00  0.00    -0.199 NA
ATOM      6  C   UNL     1      11.430   7.994  20.388  0.00  0.00    +0.265 C 
ATOM      7  O   UNL     1      11.019   8.090  19.680  0.00  0.00    -0.268 OA
BRANCH   6   8
ATOM      8  C   UNL     1      11.047   8.122  21.108  0.00  0.00    +0.058 A 
ATOM      9  C   UNL     1      10.743   7.485  21.533  0.00  0.00    +0.025 A 
ATOM     10  C   UNL     1      10.360   7.615  22.253  0.00  0.00    +0.099 A 
ATOM     11  N   UNL     1      10.281   8.381  22.546  0.00  0.00    -0.242 NA
ATOM     12  C   UNL     1      10.586   9.019  22.120  0.00  0.00    +0.099 A 
ATOM     13  C   UNL     1      10.969   8.890  21.401  0.00  0.00    +0.025 A 
ENDBRANCH   6   8
ENDBRANCH   4   5
ENDBRANCH   3   4
BRANCH  16  17
ATOM     17  N   UNL     1      15.369   7.126  18.927  0.00  0.00    -0.215 NA
BRANCH  17  18
ATOM     18  C   UNL     1      16.047   6.843  19.303  0.00  0.00    +0.078 C 
ATOM     19  C   UNL     1      16.398   6.141  19.050  0.00  0.00    +0.050 C 
ATOM     20  C   UNL     1      17.076   5.859  19.425  0.00  0.00    +0.144 C 
ATOM     21  O   UNL     1      17.404   6.280  20.055  0.00  0.00    -0.354 OA
ATOM     22  C   UNL     1      17.053   6.983  20.308  0.00  0.00    +0.144 C 
ATOM     23  C   UNL     1      16.375   7.264  19.932  0.00  0.00    +0.050 C 
ENDBRANCH  17  18
ENDBRANCH  16  17
TORSDOF 5
ENDMDL
MODEL 7
REMARK VINA RESULT:      -7.6     17.656     19.288
REMARK  Name = 
REMARK  5 active torsions:
REMARK  status: ('A' for Active; 'I' for Inactive)
REMARK    1  A    between atoms: C_3  and  C_4
REMARK    2  A    between atoms: C_4  and  N_5
REMARK    3  A    between atoms: C_6  and  C_8
REMARK    4  A    between atoms: C_16  and  N_17
REMARK    5  A    between atoms: N_17  and  C_18
REMARK                            x       y       z     vdW  Elec       q    Type
REMARK                         _______ _______ _______ _____ _____    ______ ____
ROOT
ATOM      1  O   UNL     1      13.168   6.643  20.214  0.00  0.00    -0.219 OA
ATOM      2  C   UNL     1      13.670   6.987  19.657  0.00  0.00    +0.199 C 
ATOM      3  C   UNL     1      13.446   7.511  19.061  0.00  0.00    +0.169 C 
ATOM     14  O   UNL     1      14.122   7.715  18.633  0.00  0.00    -0.350 OA
ATOM     15  C   UNL     1      14.764   7.316  18.965  0.00  0.00    +0.162 C 
ATOM     16  C   UNL     1      14.484   6.866  19.598  0.00  0.00    +0.135 C 
ENDROOT
BRANCH   3   4
ATOM      4  C   UNL     1      12.681   7.784  18.918  0.00  0.00    +0.148 C 
BRANCH   4   5
ATOM      5  N   UNL     1      12.462   8.018  18.157  0.00  0.00    -0.199 NA
ATOM      6  C   UNL     1      11.697   8.291  18.015  0.00  0.00    +0.265 C 
ATOM      7  O   UNL     1      11.151   8.331  18.632  0.00  0.00    -0.268 OA
BRANCH   6   8
ATOM      8  C   UNL     1      11.477   8.524  17.254  0.00  0.00    +0.058 A 
ATOM      9  C   UNL     1      10.700   8.422  16.999  0.00  0.00    +0.025 A 
ATOM     10  C   UNL     1      10.481   8.656  16.239  0.00  0.00    +0.099 A 
ATOM     11  N   UNL     1      11.039   8.992  15.733  0.00  0.00    -0.242 NA
ATOM     12  C   UNL     1      11.818   9.094  15.988  0.00  0.00    +0.099 A 
ATOM     13  C   UNL     1      12.037   8.860  16.748  0.00  0.00    +0.025 A 
ENDBRANCH   6   8
ENDBRANCH   4   5
ENDBRANCH   3   4
BRANCH  16  17
ATOM     17  N   UNL     1      14.939   6.381  20.085  0.00  0.00    -0.215 NA
BRANCH  17  18
ATOM     18  C   UNL     1      15.744   6.533  20.186  0.00  0.00    +0.078 C 
ATOM     19  C   UNL     1      16.284   6.290  19.612  0.00  0.00    +0.050 C 
ATOM     20  C   UNL     1      17.089   6.442  19.712  0.00  0.00    +0.144 C 
ATOM     21  O   UNL     1      17.353   6.838  20.386  0.00  0.00    -0.354 OA
ATOM     22  C   UNL     1      16.812   7.081  20.960  0.00  0.00    +0.144 C 
ATOM     23  C   UNL     1      16.008   6.929  20.860  0.00  0.00    +0.050 C 
ENDBRANCH  17  18
ENDBRANCH  16  17
TORSDOF 5
ENDMDL
MODEL 8
REMARK VINA RESULT:      -7.2     15.759     18.216
REMARK  Name = 
REMARK  5 active torsions:
REMARK  status: ('A' for Active; 'I' for Inactive)
REMARK    1  A    between atoms: C_3  and  C_4
REMARK    2  A    between atoms: C_4  and  N_5
REMARK    3  A    between atoms: C_6  and  C_8
REMARK    4  A    between atoms: C_16  and  N_17
REMARK    5  A    between atoms: N_17  and  C_18
REMARK                            x       y       z     vdW  Elec       q    Type
REMARK                         _______ _______ _______ _____ _____    ______ ____
ROOT
ATOM      1  O   UNL     1      13.827   7.326  20.648  0.00  0.00    -0.219 OA
ATOM      2  C   UNL     1      13.133   7.135  20.245  0.00  0.00    +0.199 C 
ATOM      3  C   UNL     1      13.025   7.154  19.428  0.00  0.00    +0.169 C 
ATOM     14  O   UNL     1      12.249   6.923  19.267  0.00  0.00    -0.350 OA
ATOM     15  C   UNL     1      11.877   6.761  19.985  0.00  0.00    +0.162 C 
ATOM     16  C   UNL     1      12.423   6.892  20.590  0.00  0.00    +0.135 C 
ENDROOT
BRANCH   3   4
ATOM      4  C   UNL     1      13.594   7.367  18.869  0.00  0.00    +0.148 C 
BRANCH   4   5
ATOM      5  N   UNL     1      13.365   7.739  18.169  0.00  0.00    -0.199 NA
ATOM      6  C   UNL     1      13.934   7.962  17.616  0.00  0.00    +0.265 C 
ATOM      7  O   UNL     1      14.733   7.813  17.762  0.00  0.00    -0.268 OA
BRANCH   6   8
ATOM      8  C   UNL     1      13.706   8.334  16.915  0.00  0.00    +0.058 A 
ATOM      9  C   UNL     1      14.205   8.319  16.259  0.00  0.00    +0.025 A 
ATOM     10  C   UNL     1      13.976   8.691  15.559  0.00  0.00    +0.099 A 
ATOM     11  N   UNL     1      13.249   9.078  15.515  0.00  0.00    -0.242 NA
ATOM     12  C   UNL     1      12.750   9.093  16.173  0.00  0.00    +0.099 A 
ATOM     13  C   UNL     1      12.978   8.721  16.873  0.00  0.00    +0.025 A 
ENDBRANCH   6   8
ENDBRANCH   4   5
ENDBRANCH   3   4
BRANCH  16  17
ATOM     17  N   UNL     1      12.284   6.797  21.397  0.00  0.00    -0.215 NA
BRANCH  17  18
ATOM     18  C   UNL     1      11.595   7.097  21.736  0.00  0.00    +0.078 C 
ATOM     19  C   UNL     1      11.587   7.860  22.050  0.00  0.00    +0.050 C 
ATOM     20  C   UNL     1      10.897   8.160  22.389  0.00  0.00    +0.144 C 
ATOM     21  O   UNL     1      10.214   7.697  22.413  0.00  0.00    -0.354 OA
ATOM     22  C   UNL     1      10.222   6.934  22.099  0.00  0.00    +0.144 C 
ATOM     23  C   UNL     1      10.912   6.635  21.760  0.00  0.00    +0.050 C 
ENDBRANCH  17  18
ENDBRANCH  16  17
TORSDOF 5
ENDMDL
MODEL 9
REMARK VINA RESULT:      -7.1     18.009     19.543
REMARK  Name = 
REMARK  5 active torsions:
REMARK  status: ('A' for Active; 'I' for Inactive)
REMARK    1  A    between atoms: C_3  and  C_4
REMARK    2  A    between atoms: C_4  and  N_5
REMARK    3  A    between atoms: C_6  and  C_8
REMARK    4  A    between atoms: C_16  and  N_17
REMARK    5  A    between atoms: N_17  and  C_18
REMARK                            x       y       z     vdW  Elec       q    Type
REMARK                         _______ _______ _______ _____ _____    ______ ____
ROOT
ATOM      1  O   UNL     1      12.918   8.777  19.119  0.00  0.00    -0.219 OA
ATOM      2  C   UNL     1      13.091   8.287  18.479  0.00  0.00    +0.199 C 
ATOM      3  C   UNL     1      13.517   7.581  18.509  0.00  0.00    +0.169 C 
ATOM     14  O   UNL     1      13.558   7.275  17.744  0.00  0.00    -0.350 OA
ATOM     15  C   UNL     1      13.158   7.792  17.240  0.00  0.00    +0.162 C 
ATOM     16  C   UNL     1      12.869   8.418  17.694  0.00  0.00    +0.135 C 
ENDROOT
BRANCH   3   4
ATOM      4  C   UNL     1      13.844   7.241  19.186  0.00  0.00    +0.148 C 
BRANCH   4   5
ATOM      5  N   UNL     1      14.652   7.079  19.217  0.00  0.00    -0.199 NA
ATOM      6  C   UNL     1      14.976   6.729  19.890  0.00  0.00    +0.265 C 
ATOM      7  O   UNL     1      14.493   6.541  20.532  0.00  0.00    -0.268 OA
BRANCH   6   8
ATOM      8  C   UNL     1      15.785   6.567  19.921  0.00  0.00    +0.058 A 
ATOM      9  C   UNL     1      16.178   6.566  20.646  0.00  0.00    +0.025 A 
ATOM     10  C   UNL     1      16.986   6.404  20.677  0.00  0.00    +0.099 A 
ATOM     11  N   UNL     1      17.402   6.242  19.983  0.00  0.00    -0.242 NA
ATOM     12  C   UNL     1      17.008   6.243  19.258  0.00  0.00    +0.099 A 
ATOM     13  C   UNL     1      16.200   6.405  19.227  0.00  0.00    +0.025 A 
ENDBRANCH   6   8
ENDBRANCH   4   5
ENDBRANCH   3   4
BRANCH  16  17
ATOM     17  N   UNL     1      12.436   9.060  17.414  0.00  0.00    -0.215 NA
BRANCH  17  18
ATOM     18  C   UNL     1      11.845   8.945  16.850  0.00  0.00    +0.078 C 
ATOM     19  C   UNL     1      11.099   8.682  17.081  0.00  0.00    +0.050 C 
ATOM     20  C   UNL     1      10.508   8.567  16.516  0.00  0.00    +0.144 C 
ATOM     21  O   UNL     1      10.664   8.715  15.720  0.00  0.00    -0.354 OA
ATOM     22  C   UNL     1      11.411   8.979  15.488  0.00  0.00    +0.144 C 
ATOM     23  C   UNL     1      12.001   9.094  16.053  0.00  0.00    +0.050 C 
ENDBRANCH  17  18
ENDBRANCH  16  17
TORSDOF 5
ENDMDL
MODEL 10
REMARK VINA RESULT:      -6.7     15.762     18.393
REMARK  Name = 
REMARK  5 active torsions:
REMARK  status: ('A' for Active; 'I' for Inactive)
REMARK    1  A    between atoms: C_3  and  C_4
REMARK    2  A    between atoms: C_4  and  N_5
REMARK    3  A    between atoms: C_6  and  C_8
REMARK    4  A    between atoms: C_16  and  N_17
REMARK    5  A    between atoms: N_17  and  C_18
REMARK                            x       y       z     vdW  Elec       q    Type
REMARK                         _______ _______ _______ _____ _____    ______ ____
ROOT
ATOM      1  O   UNL     1      14.153   8.281  19.358  0.00  0.00    -0.219 OA
ATOM      2  C   UNL     1      13.513   8.010  18.915  0.00  0.00    +0.199 C 
ATOM      3  C   UNL     1      12.921   7.500  19.179  0.00  0.00    +0.169 C 
ATOM     14  O   UNL     1      12.394   7.376  18.556  0.00  0.00    -0.350 OA
ATOM     15  C   UNL     1      12.660   7.810  17.907  0.00  0.00    +0.162 C 
ATOM     16  C   UNL     1      13.351   8.202  18.128  0.00  0.00    +0.135 C 
ENDROOT
BRANCH   3   4
ATOM      4  C   UNL     1      12.866   7.170  19.933  0.00  0.00    +0.148 C 
BRANCH   4   5
ATOM      5  N   UNL     1      12.152   7.201  20.346  0.00  0.00    -0.199 NA
ATOM      6  C   UNL     1      12.100   6.880  21.103  0.00  0.00    +0.265 C 
ATOM      7  O   UNL     1      12.761   6.529  21.450  0.00  0.00    -0.268 OA
BRANCH   6   8
ATOM      8  C   UNL     1      11.386   6.911  21.517  0.00  0.00    +0.058 A 
ATOM      9  C   UNL     1      10.943   6.224  21.627  0.00  0.00    +0.025 A 
ATOM     10  C   UNL     1      10.230   6.255  22.040  0.00  0.00    +0.099 A 
ATOM     11  N   UNL     1       9.959   6.973  22.342  0.00  0.00    -0.242 NA
ATOM     12  C   UNL     1      10.402   7.660  22.232  0.00  0.00    +0.099 A 
ATOM     13  C   UNL     1      11.115   7.629  21.819  0.00  0.00    +0.025 A 
ENDBRANCH   6   8
ENDBRANCH   4   5
ENDBRANCH   3   4
BRANCH  16  17
ATOM     17  N   UNL     1      13.802   8.698  17.648  0.00  0.00    -0.215 NA
BRANCH  17  18
ATOM     18  C   UNL     1      13.681   8.706  16.832  0.00  0.00    +0.078 C 
ATOM     19  C   UNL     1      14.221   8.334  16.331  0.00  0.00    +0.050 C 
ATOM     20  C   UNL     1      14.099   8.342  15.515  0.00  0.00    +0.144 C 
ATOM     21  O   UNL     1      13.438   8.721  15.200  0.00  0.00    -0.354 OA
ATOM     22  C   UNL     1      12.898   9.093  15.701  0.00  0.00    +0.144 C 
ATOM     23  C   UNL     1      13.020   9.085  16.517  0.00  0.00    +0.050 C 
ENDBRANCH  17  18
ENDBRANCH  16  17
TORSDOF 5
ENDMDL
