MODEL 1
REMARK VINA RESULT:     -10.3      0.000      0.000
REMARK  Name = 
REMARK  5 active torsions:
REMARK  status: ('A' for Active; 'I' for Inactive)
REMARK    1  A    between atoms: C_3  and  C_4
REMARK    2  A    between atoms: C_4  and  N_5
REMARK    3  A    between atoms: C_16  and  N_17
REMARK    4  A    between atoms: N_17  and  C_18
REMARK    5  A    between atoms: C_18  and  C_19
REMARK                            x       y       z     vdW  Elec       q    Type
REMARK                         _______ _______ _______ _____ _____    ______ ____
ROOT
ATOM      1  O   UNL     1      -3.494   1.285  23.518  0.00  0.00    -0.219 OA
ATOM      2  C   UNL     1      -3.931   1.332  24.217  0.00  0.00    +0.199 C 
ATOM      3  C   UNL     1      -4.096   2.020  24.640  0.00  0.00    +0.169 C 
ATOM     14  O   UNL     1      -4.546   1.812  25.298  0.00  0.00    -0.350 OA
ATOM     15  C   UNL     1      -4.659   0.995  25.283  0.00  0.00    +0.162 C 
ATOM     16  C   UNL     1      -4.279   0.698  24.615  0.00  0.00    +0.135 C 
ENDROOT
BRANCH   3   4
ATOM      4  C   UNL     1      -3.854   2.783  24.439  0.00  0.00    +0.149 C 
BRANCH   4   5
ATOM      5  N   UNL     1      -3.105   3.049  24.659  0.00  0.00    -0.186 NA
ATOM      6  C   UNL     1      -2.937   3.858  24.658  0.00  0.00    +0.323 C 
ATOM      7  O   UNL     1      -3.519   4.399  24.436  0.00  0.00    -0.251 OA
ATOM      8  N   UNL     1      -2.188   4.124  24.879  0.00  0.00    -0.258 N 
ATOM      9  C   UNL     1      -2.021   4.931  24.878  0.00  0.00    +0.127 C 
ATOM     10  C   UNL     1      -1.272   5.199  25.098  0.00  0.00    +0.164 C 
ATOM     11  O   UNL     1      -0.691   4.657  25.320  0.00  0.00    -0.350 OA
ATOM     12  C   UNL     1      -0.858   3.848  25.321  0.00  0.00    +0.164 C 
ATOM     13  C   UNL     1      -1.607   3.582  25.100  0.00  0.00    +0.127 C 
ENDBRANCH   4   5
ENDBRANCH   3   4
BRANCH  16  17
ATOM     17  N   UNL     1      -4.251  -0.093  24.384  0.00  0.00    -0.209 NA
BRANCH  17  18
ATOM     18  C   UNL     1      -4.065  -0.677  24.936  0.00  0.00    +0.118 C 
BRANCH  18  19
ATOM     19  C   UNL     1      -3.945  -1.455  24.689  0.00  0.00    +0.034 A 
ATOM     20  C   UNL     1      -3.501  -1.972  25.154  0.00  0.00    +0.193 A 
ATOM     21  O   UNL     1      -3.177  -1.711  25.866  0.00  0.00    -0.287 OA
ATOM     22  C   UNL     1      -3.382  -2.751  24.907  0.00  0.00    +0.042 A 
ATOM     23  C   UNL     1      -3.707  -3.011  24.195  0.00  0.00    +0.003 A 
ATOM     24  C   UNL     1      -4.151  -2.495  23.730  0.00  0.00    -0.000 A 
ATOM     25  C   UNL     1      -4.270  -1.716  23.977  0.00  0.00    +0.000 A 
ENDBRANCH  18  19
ENDBRANCH  17  18
ENDBRANCH  16  17
TORSDOF 5
ENDMDL
MODEL 2
REMARK VINA RESULT:      -9.9      1.767      2.200
REMARK  Name = 
REMARK  5 active torsions:
REMARK  status: ('A' for Active; 'I' for Inactive)
REMARK    1  A    between atoms: C_3  and  C_4
REMARK    2  A    between atoms: C_4  and  N_5
REMARK    3  A    between atoms: C_16  and  N_17
REMARK    4  A    between atoms: N_17  and  C_18
REMARK    5  A    between atoms: C_18  and  C_19
REMARK                            x       y       z     vdW  Elec       q    Type
REMARK                         _______ _______ _______ _____ _____    ______ ____
ROOT
ATOM      1  O   UNL     1      -1.400   0.561  23.679  0.00  0.00    -0.219 OA
ATOM      2  C   UNL     1      -1.350   0.481  24.499  0.00  0.00    +0.199 C 
ATOM      3  C   UNL     1      -0.992   1.013  25.017  0.00  0.00    +0.169 C 
ATOM     14  O   UNL     1      -1.070   0.716  25.782  0.00  0.00    -0.350 OA
ATOM     15  C   UNL     1      -1.478  -0.000  25.737  0.00  0.00    +0.162 C 
ATOM     16  C   UNL     1      -1.651  -0.146  24.944  0.00  0.00    +0.135 C 
ENDROOT
BRANCH   3   4
ATOM      4  C   UNL     1      -0.620   1.719  24.806  0.00  0.00    +0.149 C 
BRANCH   4   5
ATOM      5  N   UNL     1      -0.973   2.442  24.989  0.00  0.00    -0.186 NA
ATOM      6  C   UNL     1      -0.602   3.148  24.776  0.00  0.00    +0.323 C 
ATOM      7  O   UNL     1       0.122   3.130  24.380  0.00  0.00    -0.251 OA
ATOM      8  N   UNL     1      -0.955   3.870  24.958  0.00  0.00    -0.258 N 
ATOM      9  C   UNL     1      -0.585   4.575  24.745  0.00  0.00    +0.127 C 
ATOM     10  C   UNL     1      -0.938   5.299  24.927  0.00  0.00    +0.164 C 
ATOM     11  O   UNL     1      -1.662   5.316  25.323  0.00  0.00    -0.350 OA
ATOM     12  C   UNL     1      -2.032   4.610  25.536  0.00  0.00    +0.164 C 
ATOM     13  C   UNL     1      -1.679   3.887  25.354  0.00  0.00    +0.127 C 
ENDBRANCH   4   5
ENDBRANCH   3   4
BRANCH  16  17
ATOM     17  N   UNL     1      -2.053  -0.802  24.648  0.00  0.00    -0.209 NA
BRANCH  17  18
ATOM     18  C   UNL     1      -2.841  -0.930  24.856  0.00  0.00    +0.118 C 
BRANCH  18  19
ATOM     19  C   UNL     1      -3.237  -1.599  24.579  0.00  0.00    +0.034 A 
ATOM     20  C   UNL     1      -3.996  -1.528  24.263  0.00  0.00    +0.193 A 
ATOM     21  O   UNL     1      -4.358  -0.788  24.223  0.00  0.00    -0.287 OA
ATOM     22  C   UNL     1      -4.392  -2.198  23.986  0.00  0.00    +0.042 A 
ATOM     23  C   UNL     1      -4.028  -2.937  24.026  0.00  0.00    +0.003 A 
ATOM     24  C   UNL     1      -3.270  -3.008  24.343  0.00  0.00    -0.000 A 
ATOM     25  C   UNL     1      -2.874  -2.339  24.619  0.00  0.00    +0.000 A 
ENDBRANCH  18  19
ENDBRANCH  17  18
ENDBRANCH  16  17
TORSDOF 5
ENDMDL
MODEL 3
REMARK VINA RESULT:      -9.8      1.933      6.023
REMARK  Name = 
REMARK  5 active torsions:
REMARK  status: ('A' for Active; 'I' for Inactive)
REMARK    1  A    between atoms: C_3  and  C_4
REMARK    2  A    between atoms: C_4  and  N_5
REMARK    3  A    between atoms: C_16  and  N_17
REMARK    4  A    between atoms: N_17  and  C_18
REMARK    5  A    between atoms: C_18  and  C_19
REMARK                            x       y       z     vdW  Elec       q    Type
REMARK                         _______ _______ _______ _____ _____    ______ ____
ROOT
ATOM      1  O   UNL     1      -0.998   1.255  23.789  0.00  0.00    -0.219 OA
ATOM      2  C   UNL     1      -0.930   1.161  24.606  0.00  0.00    +0.199 C 
ATOM      3  C   UNL     1      -0.919   0.443  25.012  0.00  0.00    +0.169 C 
ATOM     14  O   UNL     1      -0.843   0.607  25.816  0.00  0.00    -0.350 OA
ATOM     15  C   UNL     1      -0.806   1.426  25.908  0.00  0.00    +0.162 C 
ATOM     16  C   UNL     1      -0.860   1.769  25.160  0.00  0.00    +0.135 C 
ENDROOT
BRANCH   3   4
ATOM      4  C   UNL     1      -0.975  -0.307  24.673  0.00  0.00    +0.149 C 
BRANCH   4   5
ATOM      5  N   UNL     1      -1.694  -0.712  24.683  0.00  0.00    -0.186 NA
ATOM      6  C   UNL     1      -1.714  -1.522  24.527  0.00  0.00    +0.323 C 
ATOM      7  O   UNL     1      -1.014  -1.927  24.362  0.00  0.00    -0.251 OA
ATOM      8  N   UNL     1      -2.433  -1.927  24.537  0.00  0.00    -0.258 N 
ATOM      9  C   UNL     1      -2.452  -2.736  24.382  0.00  0.00    +0.127 C 
ATOM     10  C   UNL     1      -3.171  -3.142  24.392  0.00  0.00    +0.164 C 
ATOM     11  O   UNL     1      -3.870  -2.736  24.558  0.00  0.00    -0.350 OA
ATOM     12  C   UNL     1      -3.851  -1.926  24.713  0.00  0.00    +0.164 C 
ATOM     13  C   UNL     1      -3.132  -1.521  24.703  0.00  0.00    +0.127 C 
ENDBRANCH   4   5
ENDBRANCH   3   4
BRANCH  16  17
ATOM     17  N   UNL     1      -0.846   2.576  24.994  0.00  0.00    -0.209 NA
BRANCH  17  18
ATOM     18  C   UNL     1      -1.243   3.105  25.488  0.00  0.00    +0.118 C 
BRANCH  18  19
ATOM     19  C   UNL     1      -1.265   3.908  25.299  0.00  0.00    +0.034 A 
ATOM     20  C   UNL     1      -1.919   4.364  25.511  0.00  0.00    +0.193 A 
ATOM     21  O   UNL     1      -2.551   4.016  25.911  0.00  0.00    -0.287 OA
ATOM     22  C   UNL     1      -1.941   5.167  25.322  0.00  0.00    +0.042 A 
ATOM     23  C   UNL     1      -1.308   5.514  24.922  0.00  0.00    +0.003 A 
ATOM     24  C   UNL     1      -0.654   5.058  24.710  0.00  0.00    -0.000 A 
ATOM     25  C   UNL     1      -0.632   4.255  24.899  0.00  0.00    +0.000 A 
ENDBRANCH  18  19
ENDBRANCH  17  18
ENDBRANCH  16  17
TORSDOF 5
ENDMDL
MODEL 4
REMARK VINA RESULT:      -9.4      0.985      5.647
REMARK  Name = 
REMARK  5 active torsions:
REMARK  status: ('A' for Active; 'I' for Inactive)
REMARK    1  A    between atoms: C_3  and  C_4
REMARK    2  A    between atoms: C_4  and  N_5
REMARK    3  A    between atoms: C_16  and  N_17
REMARK    4  A    between atoms: N_17  and  C_18
REMARK    5  A    between atoms: C_18  and  C_19
REMARK                            x       y       z     vdW  Elec       q    Type
REMARK                         _______ _______ _______ _____ _____    ______ ____
ROOT
ATOM      1  O   UNL     1      -2.890   1.769  23.388  0.00  0.00    -0.219 OA
ATOM      2  C   UNL     1      -3.237   1.779  24.137  0.00  0.00    +0.199 C 
ATOM      3  C   UNL     1      -3.714   1.189  24.457  0.00  0.00    +0.169 C 
ATOM     14  O   UNL     1      -3.939   1.426  25.214  0.00  0.00    -0.350 OA
ATOM     15  C   UNL     1      -3.600   2.163  25.362  0.00  0.00    +0.162 C 
ATOM     16  C   UNL     1      -3.166   2.382  24.696  0.00  0.00    +0.135 C 
ENDROOT
BRANCH   3   4
ATOM      4  C   UNL     1      -3.930   0.484  24.086  0.00  0.00    +0.149 C 
BRANCH   4   5
ATOM      5  N   UNL     1      -3.768  -0.239  24.447  0.00  0.00    -0.186 NA
ATOM      6  C   UNL     1      -3.934  -0.945  24.052  0.00  0.00    +0.323 C 
ATOM      7  O   UNL     1      -4.263  -0.926  23.296  0.00  0.00    -0.251 OA
ATOM      8  N   UNL     1      -3.772  -1.668  24.414  0.00  0.00    -0.258 N 
ATOM      9  C   UNL     1      -3.938  -2.373  24.019  0.00  0.00    +0.127 C 
ATOM     10  C   UNL     1      -3.775  -3.097  24.380  0.00  0.00    +0.164 C 
ATOM     11  O   UNL     1      -3.446  -3.115  25.136  0.00  0.00    -0.350 OA
ATOM     12  C   UNL     1      -3.280  -2.410  25.531  0.00  0.00    +0.164 C 
ATOM     13  C   UNL     1      -3.443  -1.686  25.170  0.00  0.00    +0.127 C 
ENDBRANCH   4   5
ENDBRANCH   3   4
BRANCH  16  17
ATOM     17  N   UNL     1      -2.736   3.080  24.605  0.00  0.00    -0.209 NA
BRANCH  17  18
ATOM     18  C   UNL     1      -2.122   3.257  25.126  0.00  0.00    +0.118 C 
BRANCH  18  19
ATOM     19  C   UNL     1      -1.739   3.987  25.080  0.00  0.00    +0.034 A 
ATOM     20  C   UNL     1      -0.919   4.018  24.999  0.00  0.00    +0.193 A 
ATOM     21  O   UNL     1      -0.482   3.319  24.965  0.00  0.00    -0.287 OA
ATOM     22  C   UNL     1      -0.536   4.748  24.953  0.00  0.00    +0.042 A 
ATOM     23  C   UNL     1      -0.975   5.446  24.988  0.00  0.00    +0.003 A 
ATOM     24  C   UNL     1      -1.795   5.415  25.069  0.00  0.00    -0.000 A 
ATOM     25  C   UNL     1      -2.178   4.685  25.115  0.00  0.00    +0.000 A 
ENDBRANCH  18  19
ENDBRANCH  17  18
ENDBRANCH  16  17
TORSDOF 5
ENDMDL
MODEL 5
REMARK VINA RESULT:      -8.5      3.298      4.618
REMARK  Name = 
REMARK  5 active torsions:
REMARK  status: ('A' for Active; 'I' for Inactive)
REMARK    1  A    between atoms: C_3  and  C_4
REMARK    2  A    between atoms: C_4  and  N_5
REMARK    3  A    between atoms: C_16  and  N_17
REMARK    4  A    between atoms: N_17  and  C_18
REMARK    5  A    between atoms: C_18  and  C_19
REMARK                            x       y       z     vdW  Elec       q    Type
REMARK                         _______ _______ _______ _____ _____    ______ ____
ROOT
ATOM      1  O   UNL     1      -1.618   1.458  25.510  0.00  0.00    -0.219 OA
ATOM      2  C   UNL     1      -1.752   1.478  24.696  0.00  0.00    +0.199 C 
ATOM      3  C   UNL     1      -1.174   1.451  24.108  0.00  0.00    +0.169 C 
ATOM     14  O   UNL     1      -1.553   1.485  23.377  0.00  0.00    -0.350 OA
ATOM     15  C   UNL     1      -2.365   1.533  23.512  0.00  0.00    +0.162 C 
ATOM     16  C   UNL     1      -2.489   1.529  24.327  0.00  0.00    +0.135 C 
ENDROOT
BRANCH   3   4
ATOM      4  C   UNL     1      -0.360   1.398  24.231  0.00  0.00    +0.149 C 
BRANCH   4   5
ATOM      5  N   UNL     1       0.107   0.953  23.718  0.00  0.00    -0.186 NA
ATOM      6  C   UNL     1       0.923   1.075  23.690  0.00  0.00    +0.323 C 
ATOM      7  O   UNL     1       1.271   1.643  24.176  0.00  0.00    -0.251 OA
ATOM      8  N   UNL     1       1.389   0.629  23.176  0.00  0.00    -0.258 N 
ATOM      9  C   UNL     1       2.204   0.752  23.149  0.00  0.00    +0.127 C 
ATOM     10  C   UNL     1       2.672   0.306  22.635  0.00  0.00    +0.164 C 
ATOM     11  O   UNL     1       2.323  -0.263  22.149  0.00  0.00    -0.350 OA
ATOM     12  C   UNL     1       1.507  -0.385  22.176  0.00  0.00    +0.164 C 
ATOM     13  C   UNL     1       1.040   0.061  22.690  0.00  0.00    +0.127 C 
ENDBRANCH   4   5
ENDBRANCH   3   4
BRANCH  16  17
ATOM     17  N   UNL     1      -3.219   1.570  24.707  0.00  0.00    -0.209 NA
BRANCH  17  18
ATOM     18  C   UNL     1      -3.743   2.182  24.531  0.00  0.00    +0.118 C 
BRANCH  18  19
ATOM     19  C   UNL     1      -4.485   2.207  24.891  0.00  0.00    +0.034 A 
ATOM     20  C   UNL     1      -4.814   2.932  25.108  0.00  0.00    +0.193 A 
ATOM     21  O   UNL     1      -4.400   3.631  24.967  0.00  0.00    -0.287 OA
ATOM     22  C   UNL     1      -5.556   2.957  25.468  0.00  0.00    +0.042 A 
ATOM     23  C   UNL     1      -5.969   2.257  25.610  0.00  0.00    +0.003 A 
ATOM     24  C   UNL     1      -5.641   1.532  25.392  0.00  0.00    -0.000 A 
ATOM     25  C   UNL     1      -4.898   1.507  25.032  0.00  0.00    +0.000 A 
ENDBRANCH  18  19
ENDBRANCH  17  18
ENDBRANCH  16  17
TORSDOF 5
ENDMDL
MODEL 6
REMARK VINA RESULT:      -7.7     17.838     19.607
REMARK  Name = 
REMARK  5 active torsions:
REMARK  status: ('A' for Active; 'I' for Inactive)
REMARK    1  A    between atoms: C_3  and  C_4
REMARK    2  A    between atoms: C_4  and  N_5
REMARK    3  A    between atoms: C_16  and  N_17
REMARK    4  A    between atoms: N_17  and  C_18
REMARK    5  A    between atoms: C_18  and  C_19
REMARK                            x       y       z     vdW  Elec       q    Type
REMARK                         _______ _______ _______ _____ _____    ______ ____
ROOT
ATOM      1  O   UNL     1      13.119   6.928  19.619  0.00  0.00    -0.219 OA
ATOM      2  C   UNL     1      13.431   7.679  19.477  0.00  0.00    +0.199 C 
ATOM      3  C   UNL     1      13.054   8.293  19.077  0.00  0.00    +0.169 C 
ATOM     14  O   UNL     1      13.564   8.940  19.063  0.00  0.00    -0.350 OA
ATOM     15  C   UNL     1      14.258   8.726  19.455  0.00  0.00    +0.162 C 
ATOM     16  C   UNL     1      14.176   7.946  19.711  0.00  0.00    +0.135 C 
ENDROOT
BRANCH   3   4
ATOM      4  C   UNL     1      12.297   8.265  18.748  0.00  0.00    +0.149 C 
BRANCH   4   5
ATOM      5  N   UNL     1      12.184   8.467  17.956  0.00  0.00    -0.186 NA
ATOM      6  C   UNL     1      11.423   8.469  17.635  0.00  0.00    +0.323 C 
ATOM      7  O   UNL     1      10.777   8.270  18.107  0.00  0.00    -0.251 OA
ATOM      8  N   UNL     1      11.310   8.672  16.844  0.00  0.00    -0.258 N 
ATOM      9  C   UNL     1      10.550   8.674  16.524  0.00  0.00    +0.127 C 
ATOM     10  C   UNL     1      10.436   8.876  15.731  0.00  0.00    +0.164 C 
ATOM     11  O   UNL     1      11.083   9.076  15.260  0.00  0.00    -0.350 OA
ATOM     12  C   UNL     1      11.844   9.073  15.581  0.00  0.00    +0.164 C 
ATOM     13  C   UNL     1      11.957   8.871  16.372  0.00  0.00    +0.127 C 
ENDBRANCH   4   5
ENDBRANCH   3   4
BRANCH  16  17
ATOM     17  N   UNL     1      14.739   7.511  20.127  0.00  0.00    -0.209 NA
BRANCH  17  18
ATOM     18  C   UNL     1      15.520   7.486  19.861  0.00  0.00    +0.118 C 
BRANCH  18  19
ATOM     19  C   UNL     1      16.100   7.122  20.321  0.00  0.00    +0.034 A 
ATOM     20  C   UNL     1      16.749   6.763  19.959  0.00  0.00    +0.193 A 
ATOM     21  O   UNL     1      16.816   6.767  19.137  0.00  0.00    -0.287 OA
ATOM     22  C   UNL     1      17.330   6.400  20.419  0.00  0.00    +0.042 A 
ATOM     23  C   UNL     1      17.261   6.396  21.242  0.00  0.00    +0.003 A 
ATOM     24  C   UNL     1      16.613   6.755  21.604  0.00  0.00    -0.000 A 
ATOM     25  C   UNL     1      16.032   7.119  21.144  0.00  0.00    +0.000 A 
ENDBRANCH  18  19
ENDBRANCH  17  18
ENDBRANCH  16  17
TORSDOF 5
ENDMDL
MODEL 7
REMARK VINA RESULT:      -7.5      3.207      4.556
REMARK  Name = 
REMARK  5 active torsions:
REMARK  status: ('A' for Active; 'I' for Inactive)
REMARK    1  A    between atoms: C_3  and  C_4
REMARK    2  A    between atoms: C_4  and  N_5
REMARK    3  A    between atoms: C_16  and  N_17
REMARK    4  A    between atoms: N_17  and  C_18
REMARK    5  A    between atoms: C_18  and  C_19
REMARK                            x       y       z     vdW  Elec       q    Type
REMARK                         _______ _______ _______ _____ _____    ______ ____
ROOT
ATOM      1  O   UNL     1      -0.427   2.925  24.283  0.00  0.00    -0.219 OA
ATOM      2  C   UNL     1      -0.777   2.193  24.430  0.00  0.00    +0.199 C 
ATOM      3  C   UNL     1      -1.530   2.069  24.741  0.00  0.00    +0.169 C 
ATOM     14  O   UNL     1      -1.653   1.255  24.795  0.00  0.00    -0.350 OA
ATOM     15  C   UNL     1      -0.976   0.876  24.518  0.00  0.00    +0.162 C 
ATOM     16  C   UNL     1      -0.434   1.455  24.292  0.00  0.00    +0.135 C 
ENDROOT
BRANCH   3   4
ATOM      4  C   UNL     1      -2.067   2.656  24.960  0.00  0.00    +0.149 C 
BRANCH   4   5
ATOM      5  N   UNL     1      -2.875   2.489  24.983  0.00  0.00    -0.186 NA
ATOM      6  C   UNL     1      -3.405   3.055  25.264  0.00  0.00    +0.323 C 
ATOM      7  O   UNL     1      -3.128   3.788  25.522  0.00  0.00    -0.251 OA
ATOM      8  N   UNL     1      -4.213   2.889  25.288  0.00  0.00    -0.258 N 
ATOM      9  C   UNL     1      -4.743   3.454  25.569  0.00  0.00    +0.127 C 
ATOM     10  C   UNL     1      -5.551   3.288  25.592  0.00  0.00    +0.164 C 
ATOM     11  O   UNL     1      -5.828   2.555  25.334  0.00  0.00    -0.350 OA
ATOM     12  C   UNL     1      -5.297   1.988  25.053  0.00  0.00    +0.164 C 
ATOM     13  C   UNL     1      -4.490   2.155  25.029  0.00  0.00    +0.127 C 
ENDBRANCH   4   5
ENDBRANCH   3   4
BRANCH  16  17
ATOM     17  N   UNL     1       0.319   1.320  23.982  0.00  0.00    -0.209 NA
BRANCH  17  18
ATOM     18  C   UNL     1       0.482   0.615  23.586  0.00  0.00    +0.118 C 
BRANCH  18  19
ATOM     19  C   UNL     1       1.219   0.502  23.232  0.00  0.00    +0.034 A 
ATOM     20  C   UNL     1       1.303  -0.048  22.623  0.00  0.00    +0.193 A 
ATOM     21  O   UNL     1       0.651  -0.484  22.368  0.00  0.00    -0.287 OA
ATOM     22  C   UNL     1       2.040  -0.161  22.269  0.00  0.00    +0.042 A 
ATOM     23  C   UNL     1       2.691   0.275  22.525  0.00  0.00    +0.003 A 
ATOM     24  C   UNL     1       2.607   0.825  23.134  0.00  0.00    -0.000 A 
ATOM     25  C   UNL     1       1.870   0.938  23.488  0.00  0.00    +0.000 A 
ENDBRANCH  18  19
ENDBRANCH  17  18
ENDBRANCH  16  17
TORSDOF 5
ENDMDL
MODEL 8
REMARK VINA RESULT:      -7.4      1.672      2.421
REMARK  Name = 
REMARK  5 active torsions:
REMARK  status: ('A' for Active; 'I' for Inactive)
REMARK    1  A    between atoms: C_3  and  C_4
REMARK    2  A    between atoms: C_4  and  N_5
REMARK    3  A    between atoms: C_16  and  N_17
REMARK    4  A    between atoms: N_17  and  C_18
REMARK    5  A    between atoms: C_18  and  C_19
REMARK                            x       y       z     vdW  Elec       q    Type
REMARK                         _______ _______ _______ _____ _____    ______ ____
ROOT
ATOM      1  O   UNL     1      -3.027   0.804  23.795  0.00  0.00    -0.219 OA
ATOM      2  C   UNL     1      -2.505   0.907  24.426  0.00  0.00    +0.199 C 
ATOM      3  C   UNL     1      -2.339   1.620  24.807  0.00  0.00    +0.169 C 
ATOM     14  O   UNL     1      -1.789   1.469  25.402  0.00  0.00    -0.350 OA
ATOM     15  C   UNL     1      -1.614   0.663  25.389  0.00  0.00    +0.162 C 
ATOM     16  C   UNL     1      -2.057   0.315  24.786  0.00  0.00    +0.135 C 
ENDROOT
BRANCH   3   4
ATOM      4  C   UNL     1      -2.667   2.355  24.624  0.00  0.00    +0.149 C 
BRANCH   4   5
ATOM      5  N   UNL     1      -3.410   2.560  24.918  0.00  0.00    -0.186 NA
ATOM      6  C   UNL     1      -3.666   3.344  24.884  0.00  0.00    +0.323 C 
ATOM      7  O   UNL     1      -3.178   3.922  24.555  0.00  0.00    -0.251 OA
ATOM      8  N   UNL     1      -4.409   3.549  25.178  0.00  0.00    -0.258 N 
ATOM      9  C   UNL     1      -4.664   4.332  25.143  0.00  0.00    +0.127 C 
ATOM     10  C   UNL     1      -5.408   4.537  25.437  0.00  0.00    +0.164 C 
ATOM     11  O   UNL     1      -5.895   3.958  25.765  0.00  0.00    -0.350 OA
ATOM     12  C   UNL     1      -5.639   3.174  25.800  0.00  0.00    +0.164 C 
ATOM     13  C   UNL     1      -4.896   2.969  25.506  0.00  0.00    +0.127 C 
ENDBRANCH   4   5
ENDBRANCH   3   4
BRANCH  16  17
ATOM     17  N   UNL     1      -2.052  -0.483  24.579  0.00  0.00    -0.209 NA
BRANCH  17  18
ATOM     18  C   UNL     1      -2.302  -1.051  25.122  0.00  0.00    +0.118 C 
BRANCH  18  19
ATOM     19  C   UNL     1      -2.482  -1.815  24.866  0.00  0.00    +0.034 A 
ATOM     20  C   UNL     1      -3.165  -2.190  25.138  0.00  0.00    +0.193 A 
ATOM     21  O   UNL     1      -3.667  -1.802  25.665  0.00  0.00    -0.287 OA
ATOM     22  C   UNL     1      -3.345  -2.954  24.882  0.00  0.00    +0.042 A 
ATOM     23  C   UNL     1      -2.842  -3.342  24.355  0.00  0.00    +0.003 A 
ATOM     24  C   UNL     1      -2.160  -2.966  24.083  0.00  0.00    -0.000 A 
ATOM     25  C   UNL     1      -1.980  -2.202  24.339  0.00  0.00    +0.000 A 
ENDBRANCH  18  19
ENDBRANCH  17  18
ENDBRANCH  16  17
TORSDOF 5
ENDMDL
MODEL 9
REMARK VINA RESULT:      -7.4     18.070     19.922
REMARK  Name = 
REMARK  5 active torsions:
REMARK  status: ('A' for Active; 'I' for Inactive)
REMARK    1  A    between atoms: C_3  and  C_4
REMARK    2  A    between atoms: C_4  and  N_5
REMARK    3  A    between atoms: C_16  and  N_17
REMARK    4  A    between atoms: N_17  and  C_18
REMARK    5  A    between atoms: C_18  and  C_19
REMARK                            x       y       z     vdW  Elec       q    Type
REMARK                         _______ _______ _______ _____ _____    ______ ____
ROOT
ATOM      1  O   UNL     1      12.890   7.007  18.837  0.00  0.00    -0.219 OA
ATOM      2  C   UNL     1      13.464   7.465  18.459  0.00  0.00    +0.199 C 
ATOM      3  C   UNL     1      14.276   7.434  18.596  0.00  0.00    +0.169 C 
ATOM     14  O   UNL     1      14.639   7.983  18.100  0.00  0.00    -0.350 OA
ATOM     15  C   UNL     1      14.051   8.353  17.655  0.00  0.00    +0.162 C 
ATOM     16  C   UNL     1      13.325   8.033  17.877  0.00  0.00    +0.135 C 
ENDROOT
BRANCH   3   4
ATOM      4  C   UNL     1      14.658   6.941  19.137  0.00  0.00    +0.149 C 
BRANCH   4   5
ATOM      5  N   UNL     1      15.200   7.257  19.673  0.00  0.00    -0.186 NA
ATOM      6  C   UNL     1      15.726   6.760  20.069  0.00  0.00    +0.323 C 
ATOM      7  O   UNL     1      15.710   5.947  19.929  0.00  0.00    -0.251 OA
ATOM      8  N   UNL     1      16.267   7.076  20.605  0.00  0.00    -0.258 N 
ATOM      9  C   UNL     1      16.793   6.579  21.001  0.00  0.00    +0.127 C 
ATOM     10  C   UNL     1      17.335   6.895  21.538  0.00  0.00    +0.164 C 
ATOM     11  O   UNL     1      17.350   7.708  21.677  0.00  0.00    -0.350 OA
ATOM     12  C   UNL     1      16.824   8.205  21.281  0.00  0.00    +0.164 C 
ATOM     13  C   UNL     1      16.283   7.889  20.745  0.00  0.00    +0.127 C 
ENDBRANCH   4   5
ENDBRANCH   3   4
BRANCH  16  17
ATOM     17  N   UNL     1      12.589   8.244  17.571  0.00  0.00    -0.209 NA
BRANCH  17  18
ATOM     18  C   UNL     1      12.542   8.671  16.867  0.00  0.00    +0.118 C 
BRANCH  18  19
ATOM     19  C   UNL     1      11.812   8.777  16.496  0.00  0.00    +0.034 A 
ATOM     20  C   UNL     1      11.781   8.988  15.699  0.00  0.00    +0.193 A 
ATOM     21  O   UNL     1      12.480   9.093  15.273  0.00  0.00    -0.287 OA
ATOM     22  C   UNL     1      11.051   9.094  15.328  0.00  0.00    +0.042 A 
ATOM     23  C   UNL     1      10.353   8.988  15.755  0.00  0.00    +0.003 A 
ATOM     24  C   UNL     1      10.384   8.778  16.552  0.00  0.00    -0.000 A 
ATOM     25  C   UNL     1      11.114   8.672  16.923  0.00  0.00    +0.000 A 
ENDBRANCH  18  19
ENDBRANCH  17  18
ENDBRANCH  16  17
TORSDOF 5
ENDMDL
MODEL 10
REMARK VINA RESULT:      -7.3      3.557      4.032
REMARK  Name = 
REMARK  5 active torsions:
REMARK  status: ('A' for Active; 'I' for Inactive)
REMARK    1  A    between atoms: C_3  and  C_4
REMARK    2  A    between atoms: C_4  and  N_5
REMARK    3  A    between atoms: C_16  and  N_17
REMARK    4  A    between atoms: N_17  and  C_18
REMARK    5  A    between atoms: C_18  and  C_19
REMARK                            x       y       z     vdW  Elec       q    Type
REMARK                         _______ _______ _______ _____ _____    ______ ____
ROOT
ATOM      1  O   UNL     1      -1.558   0.745  23.524  0.00  0.00    -0.219 OA
ATOM      2  C   UNL     1      -1.240   0.443  24.223  0.00  0.00    +0.199 C 
ATOM      3  C   UNL     1      -0.489   0.602  24.523  0.00  0.00    +0.169 C 
ATOM     14  O   UNL     1      -0.403   0.187  25.230  0.00  0.00    -0.350 OA
ATOM     15  C   UNL     1      -1.103  -0.229  25.368  0.00  0.00    +0.162 C 
ATOM     16  C   UNL     1      -1.620  -0.071  24.746  0.00  0.00    +0.135 C 
ENDROOT
BRANCH   3   4
ATOM      4  C   UNL     1       0.079   1.091  24.176  0.00  0.00    +0.149 C 
BRANCH   4   5
ATOM      5  N   UNL     1       0.690   0.761  23.731  0.00  0.00    -0.186 NA
ATOM      6  C   UNL     1       1.397   1.176  23.631  0.00  0.00    +0.323 C 
ATOM      7  O   UNL     1       1.491   1.919  23.976  0.00  0.00    -0.251 OA
ATOM      8  N   UNL     1       2.009   0.846  23.187  0.00  0.00    -0.258 N 
ATOM      9  C   UNL     1       2.715   1.260  23.087  0.00  0.00    +0.127 C 
ATOM     10  C   UNL     1       3.328   0.931  22.643  0.00  0.00    +0.164 C 
ATOM     11  O   UNL     1       3.233   0.188  22.298  0.00  0.00    -0.350 OA
ATOM     12  C   UNL     1       2.526  -0.227  22.398  0.00  0.00    +0.164 C 
ATOM     13  C   UNL     1       1.914   0.103  22.842  0.00  0.00    +0.127 C 
ENDBRANCH   4   5
ENDBRANCH   3   4
BRANCH  16  17
ATOM     17  N   UNL     1      -2.383  -0.372  24.660  0.00  0.00    -0.209 NA
BRANCH  17  18
ATOM     18  C   UNL     1      -2.547  -1.147  24.891  0.00  0.00    +0.118 C 
BRANCH  18  19
ATOM     19  C   UNL     1      -3.192  -1.546  24.565  0.00  0.00    +0.034 A 
ATOM     20  C   UNL     1      -3.182  -2.369  24.510  0.00  0.00    +0.193 A 
ATOM     21  O   UNL     1      -2.528  -2.793  24.780  0.00  0.00    -0.287 OA
ATOM     22  C   UNL     1      -3.827  -2.769  24.184  0.00  0.00    +0.042 A 
ATOM     23  C   UNL     1      -4.481  -2.344  23.914  0.00  0.00    +0.003 A 
ATOM     24  C   UNL     1      -4.491  -1.521  23.969  0.00  0.00    -0.000 A 
ATOM     25  C   UNL     1      -3.846  -1.122  24.295  0.00  0.00    +0.000 A 
ENDBRANCH  18  19
ENDBRANCH  17  18
ENDBRANCH  16  17
TORSDOF 5
ENDMDL
