MODEL 1
REMARK VINA RESULT:      -7.6      0.000      0.000
REMARK  Name = 
REMARK  6 active torsions:
REMARK  status: ('A' for Active; 'I' for Inactive)
REMARK    1  A    between atoms: C_2  and  C_5
REMARK    2  A    between atoms: C_5  and  N_6
REMARK    3  A    between atoms: N_6  and  C_7
REMARK    4  A    between atoms: C_10  and  C_11
REMARK    5  A    between atoms: C_11  and  N_12
REMARK    6  A    between atoms: N_12  and  S_13
REMARK                            x       y       z     vdW  Elec       q    Type
REMARK                         _______ _______ _______ _____ _____    ______ ____
ROOT
ATOM      7  C   UNL     1      -3.520   0.239  24.578  0.00  0.00    +0.135 C 
ATOM      8  C   UNL     1      -4.147   0.567  25.001  0.00  0.00    +0.162 C 
ATOM      9  O   UNL     1      -4.000   1.373  25.093  0.00  0.00    -0.350 OA
ATOM     10  C   UNL     1      -3.281   1.544  24.726  0.00  0.00    +0.166 C 
ATOM     17  C   UNL     1      -2.984   0.844  24.408  0.00  0.00    +0.199 C 
ATOM     18  O   UNL     1      -2.277   0.762  23.993  0.00  0.00    -0.219 OA
ENDROOT
BRANCH   7   6
ATOM      6  N   UNL     1      -3.441  -0.553  24.362  0.00  0.00    -0.214 NA
BRANCH   6   5
ATOM      5  C   UNL     1      -3.936  -1.123  24.695  0.00  0.00    +0.089 C 
BRANCH   5   2
ATOM      1  C   UNL     1      -3.712  -2.719  24.342  0.00  0.00    +0.001 C 
ATOM      2  C   UNL     1      -3.824  -1.921  24.518  0.00  0.00    +0.016 C 
ATOM      3  C   UNL     1      -3.414  -2.020  25.227  0.00  0.00    +0.001 C 
ATOM      4  C   UNL     1      -4.234  -1.821  23.809  0.00  0.00    +0.001 C 
ENDBRANCH   5   2
ENDBRANCH   6   5
ENDBRANCH   7   6
BRANCH  10  11
ATOM     11  C   UNL     1      -2.922   2.286  24.685  0.00  0.00    +0.147 C 
BRANCH  11  12
ATOM     12  N   UNL     1      -3.186   2.899  25.170  0.00  0.00    -0.079 NA
BRANCH  12  13
ATOM     13  S   UNL     1      -2.801   3.628  25.160  0.00  0.00    +0.059 S 
ATOM     14  C   UNL     1      -2.415   4.357  25.151  0.00  0.00    +0.197 C 
ATOM     15  O   UNL     1      -2.337   3.392  25.801  0.00  0.00    -0.156 OA
ATOM     16  O   UNL     1      -3.263   3.864  24.520  0.00  0.00    -0.156 OA
ENDBRANCH  12  13
ENDBRANCH  11  12
ENDBRANCH  10  11
TORSDOF 6
ENDMDL
