MODEL 1
REMARK VINA RESULT:     -14.7      0.000      0.000
REMARK  Name = 
REMARK  6 active torsions:
REMARK  status: ('A' for Active; 'I' for Inactive)
REMARK    1  A    between atoms: N_2  and  C_3
REMARK    2  A    between atoms: C_3  and  C_4
REMARK    3  A    between atoms: C_10  and  C_12
REMARK    4  A    between atoms: C_12  and  C_13
REMARK    5  A    between atoms: C_18  and  C_20
REMARK    6  A    between atoms: C_31  and  C_33
REMARK                            x       y       z     vdW  Elec       q    Type
REMARK                         _______ _______ _______ _____ _____    ______ ____
ROOT
ATOM     13  C   UNL     1      -3.858   1.379  24.657  0.00  0.00    +0.050 C 
ATOM     14  C   UNL     1      -3.066   1.609  24.621  0.00  0.00    +0.063 A 
ATOM     15  C   UNL     1      -2.846   2.371  24.849  0.00  0.00    +0.023 A 
ATOM     16  C   UNL     1      -3.419   2.903  25.113  0.00  0.00    +0.034 C 
ATOM     17  C   UNL     1      -4.210   2.674  25.148  0.00  0.00    +0.010 C 
ATOM     18  C   UNL     1      -4.782   3.206  25.412  0.00  0.00    +0.059 C 
ATOM     19  C   UNL     1      -4.108   3.677  25.476  0.00  0.00    +0.005 C 
ATOM     22  C   UNL     1      -5.574   2.977  25.448  0.00  0.00    +0.154 C 
ATOM     23  O   UNL     1      -6.147   3.510  25.711  0.00  0.00    -0.223 OA
ATOM     24  C   UNL     1      -5.794   2.215  25.220  0.00  0.00    +0.033 C 
ATOM     25  C   UNL     1      -5.221   1.682  24.956  0.00  0.00    +0.003 C 
ATOM     26  C   UNL     1      -4.430   1.912  24.920  0.00  0.00    +0.006 C 
ATOM     27  C   UNL     1      -4.649   1.150  24.692  0.00  0.00    +0.000 C 
ATOM     28  S   UNL     1      -2.029   2.440  24.755  0.00  0.00    -0.054 S 
ATOM     29  C   UNL     1      -1.744   1.721  24.470  0.00  0.00    +0.186 A 
ATOM     30  N   UNL     1      -0.957   1.546  24.297  0.00  0.00    -0.148 NA
ATOM     31  C   UNL     1      -0.373   2.118  24.408  0.00  0.00    +0.305 C 
ATOM     32  O   UNL     1       0.415   1.943  24.235  0.00  0.00    -0.265 OA
ATOM     38  N   UNL     1      -2.384   1.207  24.386  0.00  0.00    -0.227 NA
ENDROOT
BRANCH  31  33
ATOM     33  C   UNL     1      -0.577   2.865  24.692  0.00  0.00    +0.201 A 
ATOM     34  C   UNL     1      -0.567   3.103  25.482  0.00  0.00    +0.046 A 
ATOM     35  C   UNL     1      -0.811   3.890  25.515  0.00  0.00    +0.044 A 
ATOM     36  C   UNL     1      -0.972   4.140  24.745  0.00  0.00    +0.180 A 
ATOM     37  O   UNL     1      -0.828   3.506  24.237  0.00  0.00    -0.446 OA
ENDBRANCH  31  33
BRANCH  18  20
ATOM     20  C   UNL     1      -5.121   3.903  25.698  0.00  0.00    +0.184 C 
ATOM     21  O   UNL     1      -4.663   4.584  25.772  0.00  0.00    -0.220 OA
ENDBRANCH  18  20
BRANCH  13  12
ATOM     12  C   UNL     1      -4.077   0.618  24.429  0.00  0.00    +0.091 C 
BRANCH  12  10
ATOM      1  C   UNL     1      -4.083  -0.912  23.813  0.00  0.00    +0.115 C 
ATOM      2  N   UNL     1      -3.909  -0.789  24.609  0.00  0.00    -0.274 N 
ATOM     10  C   UNL     1      -3.906  -0.024  24.917  0.00  0.00    +0.226 C 
ATOM     11  O   UNL     1      -3.732   0.100  25.714  0.00  0.00    -0.275 OA
BRANCH   2   3
ATOM      3  C   UNL     1      -3.738  -1.431  25.098  0.00  0.00    +0.120 C 
BRANCH   3   4
ATOM      4  C   UNL     1      -3.314  -2.074  24.801  0.00  0.00    -0.002 A 
ATOM      5  C   UNL     1      -2.489  -2.067  24.817  0.00  0.00    -0.003 A 
ATOM      6  C   UNL     1      -2.065  -2.710  24.521  0.00  0.00    -0.000 A 
ATOM      7  C   UNL     1      -2.466  -3.360  24.208  0.00  0.00    -0.000 A 
ATOM      8  C   UNL     1      -3.291  -3.366  24.191  0.00  0.00    -0.000 A 
ATOM      9  C   UNL     1      -3.715  -2.723  24.488  0.00  0.00    -0.003 A 
ENDBRANCH   3   4
ENDBRANCH   2   3
ENDBRANCH  12  10
ENDBRANCH  13  12
TORSDOF 6
ENDMDL
MODEL 2
REMARK VINA RESULT:     -13.3      1.157      3.401
REMARK  Name = 
REMARK  6 active torsions:
REMARK  status: ('A' for Active; 'I' for Inactive)
REMARK    1  A    between atoms: N_2  and  C_3
REMARK    2  A    between atoms: C_3  and  C_4
REMARK    3  A    between atoms: C_10  and  C_12
REMARK    4  A    between atoms: C_12  and  C_13
REMARK    5  A    between atoms: C_18  and  C_20
REMARK    6  A    between atoms: C_31  and  C_33
REMARK                            x       y       z     vdW  Elec       q    Type
REMARK                         _______ _______ _______ _____ _____    ______ ____
ROOT
ATOM     13  C   UNL     1      -2.128   1.811  24.592  0.00  0.00    +0.050 C 
ATOM     14  C   UNL     1      -2.940   1.894  24.716  0.00  0.00    +0.063 A 
ATOM     15  C   UNL     1      -3.250   2.622  24.951  0.00  0.00    +0.023 A 
ATOM     16  C   UNL     1      -2.747   3.267  25.061  0.00  0.00    +0.034 C 
ATOM     17  C   UNL     1      -1.936   3.185  24.937  0.00  0.00    +0.010 C 
ATOM     18  C   UNL     1      -1.435   3.830  25.047  0.00  0.00    +0.059 C 
ATOM     19  C   UNL     1      -2.159   4.178  25.232  0.00  0.00    +0.005 C 
ATOM     22  C   UNL     1      -0.623   3.748  24.923  0.00  0.00    +0.154 C 
ATOM     23  O   UNL     1      -0.121   4.393  25.033  0.00  0.00    -0.223 OA
ATOM     24  C   UNL     1      -0.313   3.020  24.689  0.00  0.00    +0.033 C 
ATOM     25  C   UNL     1      -0.815   2.374  24.579  0.00  0.00    +0.003 C 
ATOM     26  C   UNL     1      -1.627   2.457  24.703  0.00  0.00    +0.006 C 
ATOM     27  C   UNL     1      -1.317   1.729  24.469  0.00  0.00    +0.000 C 
ATOM     28  S   UNL     1      -4.067   2.537  25.030  0.00  0.00    -0.054 S 
ATOM     29  C   UNL     1      -4.261   1.758  24.846  0.00  0.00    +0.186 A 
ATOM     30  N   UNL     1      -5.019   1.433  24.854  0.00  0.00    -0.148 NA
ATOM     31  C   UNL     1      -5.667   1.900  25.060  0.00  0.00    +0.305 C 
ATOM     32  O   UNL     1      -6.425   1.575  25.068  0.00  0.00    -0.265 OA
ATOM     38  N   UNL     1      -3.566   1.359  24.652  0.00  0.00    -0.227 NA
ENDROOT
BRANCH  31  33
ATOM     33  C   UNL     1      -5.555   2.693  25.259  0.00  0.00    +0.201 A 
ATOM     34  C   UNL     1      -5.482   2.995  26.024  0.00  0.00    +0.046 A 
ATOM     35  C   UNL     1      -5.379   3.811  25.966  0.00  0.00    +0.044 A 
ATOM     36  C   UNL     1      -5.389   4.015  25.167  0.00  0.00    +0.180 A 
ATOM     37  O   UNL     1      -5.498   3.323  24.730  0.00  0.00    -0.446 OA
ENDBRANCH  31  33
BRANCH  18  20
ATOM     20  C   UNL     1      -1.184   4.596  25.221  0.00  0.00    +0.184 C 
ATOM     21  O   UNL     1      -1.738   5.188  25.372  0.00  0.00    -0.220 OA
ENDBRANCH  18  20
BRANCH  13  12
ATOM     12  C   UNL     1      -1.818   1.084  24.358  0.00  0.00    +0.091 C 
BRANCH  12  10
ATOM      1  C   UNL     1      -1.805  -0.465  23.789  0.00  0.00    +0.115 C 
ATOM      2  N   UNL     1      -1.802  -0.324  24.601  0.00  0.00    -0.274 N 
ATOM     10  C   UNL     1      -1.809   0.450  24.886  0.00  0.00    +0.226 C 
ATOM     11  O   UNL     1      -1.807   0.591  25.699  0.00  0.00    -0.275 OA
BRANCH   2   3
ATOM      3  C   UNL     1      -1.793  -0.957  25.130  0.00  0.00    +0.120 C 
BRANCH   3   4
ATOM      4  C   UNL     1      -2.218  -1.643  24.958  0.00  0.00    -0.002 A 
ATOM      5  C   UNL     1      -2.999  -1.720  25.214  0.00  0.00    -0.003 A 
ATOM      6  C   UNL     1      -3.424  -2.406  25.043  0.00  0.00    -0.000 A 
ATOM      7  C   UNL     1      -3.069  -3.016  24.616  0.00  0.00    -0.000 A 
ATOM      8  C   UNL     1      -2.288  -2.939  24.360  0.00  0.00    -0.000 A 
ATOM      9  C   UNL     1      -1.863  -2.253  24.532  0.00  0.00    -0.003 A 
ENDBRANCH   3   4
ENDBRANCH   2   3
ENDBRANCH  12  10
ENDBRANCH  13  12
TORSDOF 6
ENDMDL
MODEL 3
REMARK VINA RESULT:     -12.0      1.311      5.136
REMARK  Name = 
REMARK  6 active torsions:
REMARK  status: ('A' for Active; 'I' for Inactive)
REMARK    1  A    between atoms: N_2  and  C_3
REMARK    2  A    between atoms: C_3  and  C_4
REMARK    3  A    between atoms: C_10  and  C_12
REMARK    4  A    between atoms: C_12  and  C_13
REMARK    5  A    between atoms: C_18  and  C_20
REMARK    6  A    between atoms: C_31  and  C_33
REMARK                            x       y       z     vdW  Elec       q    Type
REMARK                         _______ _______ _______ _____ _____    ______ ____
ROOT
ATOM     13  C   UNL     1      -2.506   0.954  24.543  0.00  0.00    +0.050 C 
ATOM     14  C   UNL     1      -3.196   1.381  24.696  0.00  0.00    +0.063 A 
ATOM     15  C   UNL     1      -3.888   0.985  24.909  0.00  0.00    +0.023 A 
ATOM     16  C   UNL     1      -3.890   0.162  24.969  0.00  0.00    +0.034 C 
ATOM     17  C   UNL     1      -3.201  -0.265  24.816  0.00  0.00    +0.010 C 
ATOM     18  C   UNL     1      -3.203  -1.087  24.877  0.00  0.00    +0.059 C 
ATOM     19  C   UNL     1      -3.988  -0.927  25.074  0.00  0.00    +0.005 C 
ATOM     22  C   UNL     1      -2.514  -1.514  24.724  0.00  0.00    +0.154 C 
ATOM     23  O   UNL     1      -2.516  -2.337  24.784  0.00  0.00    -0.223 OA
ATOM     24  C   UNL     1      -1.822  -1.118  24.511  0.00  0.00    +0.033 C 
ATOM     25  C   UNL     1      -1.820  -0.295  24.450  0.00  0.00    +0.003 C 
ATOM     26  C   UNL     1      -2.509   0.131  24.603  0.00  0.00    +0.006 C 
ATOM     27  C   UNL     1      -1.818   0.527  24.390  0.00  0.00    +0.000 C 
ATOM     28  S   UNL     1      -4.479   1.549  25.025  0.00  0.00    -0.054 S 
ATOM     29  C   UNL     1      -4.153   2.292  24.884  0.00  0.00    +0.186 A 
ATOM     30  N   UNL     1      -4.549   3.014  24.938  0.00  0.00    -0.148 NA
ATOM     31  C   UNL     1      -5.347   3.032  25.149  0.00  0.00    +0.305 C 
ATOM     32  O   UNL     1      -5.743   3.754  25.202  0.00  0.00    -0.265 OA
ATOM     38  N   UNL     1      -3.360   2.190  24.680  0.00  0.00    -0.227 NA
ENDROOT
BRANCH  31  33
ATOM     33  C   UNL     1      -5.747   2.328  25.307  0.00  0.00    +0.201 A 
ATOM     34  C   UNL     1      -5.864   1.994  26.052  0.00  0.00    +0.046 A 
ATOM     35  C   UNL     1      -6.289   1.294  25.954  0.00  0.00    +0.044 A 
ATOM     36  C   UNL     1      -6.435   1.195  25.148  0.00  0.00    +0.180 A 
ATOM     37  O   UNL     1      -6.100   1.834  24.748  0.00  0.00    -0.446 OA
ENDBRANCH  31  33
BRANCH  18  20
ATOM     20  C   UNL     1      -3.478  -1.855  25.006  0.00  0.00    +0.184 C 
ATOM     21  O   UNL     1      -4.238  -2.066  24.768  0.00  0.00    -0.220 OA
ENDBRANCH  18  20
BRANCH  13  12
ATOM     12  C   UNL     1      -1.816   1.350  24.330  0.00  0.00    +0.091 C 
BRANCH  12  10
ATOM      1  C   UNL     1      -0.959   2.645  23.772  0.00  0.00    +0.115 C 
ATOM      2  N   UNL     1      -1.027   2.514  24.583  0.00  0.00    -0.274 N 
ATOM     10  C   UNL     1      -1.455   1.866  24.862  0.00  0.00    +0.226 C 
ATOM     11  O   UNL     1      -1.523   1.734  25.673  0.00  0.00    -0.275 OA
BRANCH   2   3
ATOM      3  C   UNL     1      -0.667   3.030  25.115  0.00  0.00    +0.120 C 
BRANCH   3   4
ATOM      4  C   UNL     1      -0.751   3.845  25.021  0.00  0.00    -0.002 A 
ATOM      5  C   UNL     1      -0.261   4.253  24.495  0.00  0.00    -0.003 A 
ATOM      6  C   UNL     1      -0.345   5.068  24.401  0.00  0.00    -0.000 A 
ATOM      7  C   UNL     1      -0.919   5.477  24.831  0.00  0.00    -0.000 A 
ATOM      8  C   UNL     1      -1.408   5.069  25.356  0.00  0.00    -0.000 A 
ATOM      9  C   UNL     1      -1.324   4.254  25.451  0.00  0.00    -0.003 A 
ENDBRANCH   3   4
ENDBRANCH   2   3
ENDBRANCH  12  10
ENDBRANCH  13  12
TORSDOF 6
ENDMDL
MODEL 4
REMARK VINA RESULT:     -11.5      1.392      4.465
REMARK  Name = 
REMARK  6 active torsions:
REMARK  status: ('A' for Active; 'I' for Inactive)
REMARK    1  A    between atoms: N_2  and  C_3
REMARK    2  A    between atoms: C_3  and  C_4
REMARK    3  A    between atoms: C_10  and  C_12
REMARK    4  A    between atoms: C_12  and  C_13
REMARK    5  A    between atoms: C_18  and  C_20
REMARK    6  A    between atoms: C_31  and  C_33
REMARK                            x       y       z     vdW  Elec       q    Type
REMARK                         _______ _______ _______ _____ _____    ______ ____
ROOT
ATOM     13  C   UNL     1      -3.565  -0.029  24.306  0.00  0.00    +0.050 C 
ATOM     14  C   UNL     1      -2.844   0.370  24.255  0.00  0.00    +0.063 A 
ATOM     15  C   UNL     1      -2.137  -0.056  24.230  0.00  0.00    +0.023 A 
ATOM     16  C   UNL     1      -2.152  -0.881  24.257  0.00  0.00    +0.034 C 
ATOM     17  C   UNL     1      -2.872  -1.279  24.308  0.00  0.00    +0.010 C 
ATOM     18  C   UNL     1      -2.887  -2.103  24.335  0.00  0.00    +0.059 C 
ATOM     19  C   UNL     1      -2.073  -1.975  24.287  0.00  0.00    +0.005 C 
ATOM     22  C   UNL     1      -3.607  -2.502  24.386  0.00  0.00    +0.154 C 
ATOM     23  O   UNL     1      -3.622  -3.327  24.413  0.00  0.00    -0.223 OA
ATOM     24  C   UNL     1      -4.313  -2.077  24.411  0.00  0.00    +0.033 C 
ATOM     25  C   UNL     1      -4.299  -1.251  24.384  0.00  0.00    +0.003 C 
ATOM     26  C   UNL     1      -3.578  -0.853  24.333  0.00  0.00    +0.006 C 
ATOM     27  C   UNL     1      -4.285  -0.428  24.357  0.00  0.00    +0.000 C 
ATOM     28  S   UNL     1      -1.516   0.484  24.179  0.00  0.00    -0.054 S 
ATOM     29  C   UNL     1      -1.838   1.243  24.173  0.00  0.00    +0.186 A 
ATOM     30  N   UNL     1      -1.414   1.949  24.128  0.00  0.00    -0.148 NA
ATOM     31  C   UNL     1      -0.590   1.934  24.084  0.00  0.00    +0.305 C 
ATOM     32  O   UNL     1      -0.166   2.640  24.039  0.00  0.00    -0.265 OA
ATOM     38  N   UNL     1      -2.658   1.173  24.219  0.00  0.00    -0.227 NA
ENDROOT
BRANCH  31  33
ATOM     33  C   UNL     1      -0.191   1.212  24.085  0.00  0.00    +0.201 A 
ATOM     34  C   UNL     1       0.078   0.806  23.419  0.00  0.00    +0.046 A 
ATOM     35  C   UNL     1       0.444   0.112  23.673  0.00  0.00    +0.044 A 
ATOM     36  C   UNL     1       0.402   0.089  24.497  0.00  0.00    +0.180 A 
ATOM     37  O   UNL     1       0.009   0.769  24.751  0.00  0.00    -0.446 OA
ENDBRANCH  31  33
BRANCH  18  20
ATOM     20  C   UNL     1      -2.619  -2.884  24.345  0.00  0.00    +0.184 C 
ATOM     21  O   UNL     1      -1.810  -3.043  24.316  0.00  0.00    -0.220 OA
ENDBRANCH  18  20
BRANCH  13  12
ATOM     12  C   UNL     1      -4.270   0.396  24.331  0.00  0.00    +0.091 C 
BRANCH  12  10
ATOM      1  C   UNL     1      -5.291   1.689  24.236  0.00  0.00    +0.115 C 
ATOM      2  N   UNL     1      -4.992   1.454  24.967  0.00  0.00    -0.274 N 
ATOM     10  C   UNL     1      -4.481   0.807  25.014  0.00  0.00    +0.226 C 
ATOM     11  O   UNL     1      -4.180   0.571  25.745  0.00  0.00    -0.275 OA
BRANCH   2   3
ATOM      3  C   UNL     1      -5.202   1.864  25.650  0.00  0.00    +0.120 C 
BRANCH   3   4
ATOM      4  C   UNL     1      -5.286   2.684  25.629  0.00  0.00    -0.002 A 
ATOM      5  C   UNL     1      -6.039   3.022  25.617  0.00  0.00    -0.003 A 
ATOM      6  C   UNL     1      -6.124   3.842  25.596  0.00  0.00    -0.000 A 
ATOM      7  C   UNL     1      -5.455   4.326  25.587  0.00  0.00    -0.000 A 
ATOM      8  C   UNL     1      -4.702   3.988  25.599  0.00  0.00    -0.000 A 
ATOM      9  C   UNL     1      -4.618   3.168  25.620  0.00  0.00    -0.003 A 
ENDBRANCH   3   4
ENDBRANCH   2   3
ENDBRANCH  12  10
ENDBRANCH  13  12
TORSDOF 6
ENDMDL
MODEL 5
REMARK VINA RESULT:     -11.4      1.592      5.278
REMARK  Name = 
REMARK  6 active torsions:
REMARK  status: ('A' for Active; 'I' for Inactive)
REMARK    1  A    between atoms: N_2  and  C_3
REMARK    2  A    between atoms: C_3  and  C_4
REMARK    3  A    between atoms: C_10  and  C_12
REMARK    4  A    between atoms: C_12  and  C_13
REMARK    5  A    between atoms: C_18  and  C_20
REMARK    6  A    between atoms: C_31  and  C_33
REMARK                            x       y       z     vdW  Elec       q    Type
REMARK                         _______ _______ _______ _____ _____    ______ ____
ROOT
ATOM     13  C   UNL     1      -1.500   1.343  24.827  0.00  0.00    +0.050 C 
ATOM     14  C   UNL     1      -1.852   0.601  24.905  0.00  0.00    +0.063 A 
ATOM     15  C   UNL     1      -1.450  -0.075  24.657  0.00  0.00    +0.023 A 
ATOM     16  C   UNL     1      -0.694  -0.008  24.330  0.00  0.00    +0.034 C 
ATOM     17  C   UNL     1      -0.343   0.733  24.253  0.00  0.00    +0.010 C 
ATOM     18  C   UNL     1       0.412   0.800  23.927  0.00  0.00    +0.059 C 
ATOM     19  C   UNL     1       0.310  -0.018  23.886  0.00  0.00    +0.005 C 
ATOM     22  C   UNL     1       0.764   1.542  23.849  0.00  0.00    +0.154 C 
ATOM     23  O   UNL     1       1.519   1.609  23.523  0.00  0.00    -0.223 OA
ATOM     24  C   UNL     1       0.362   2.218  24.097  0.00  0.00    +0.033 C 
ATOM     25  C   UNL     1      -0.394   2.151  24.424  0.00  0.00    +0.003 C 
ATOM     26  C   UNL     1      -0.745   1.409  24.501  0.00  0.00    +0.006 C 
ATOM     27  C   UNL     1      -1.148   2.085  24.750  0.00  0.00    +0.000 C 
ATOM     28  S   UNL     1      -1.933  -0.728  24.802  0.00  0.00    -0.054 S 
ATOM     29  C   UNL     1      -2.634  -0.456  25.139  0.00  0.00    +0.186 A 
ATOM     30  N   UNL     1      -3.273  -0.922  25.372  0.00  0.00    -0.148 NA
ATOM     31  C   UNL     1      -3.244  -1.741  25.274  0.00  0.00    +0.305 C 
ATOM     32  O   UNL     1      -3.883  -2.208  25.507  0.00  0.00    -0.265 OA
ATOM     38  N   UNL     1      -2.585   0.365  25.204  0.00  0.00    -0.227 NA
ENDROOT
BRANCH  31  33
ATOM     33  C   UNL     1      -2.575  -2.092  24.942  0.00  0.00    +0.201 A 
ATOM     34  C   UNL     1      -2.489  -2.320  24.154  0.00  0.00    +0.046 A 
ATOM     35  C   UNL     1      -1.736  -2.646  24.064  0.00  0.00    +0.044 A 
ATOM     36  C   UNL     1      -1.357  -2.620  24.797  0.00  0.00    +0.180 A 
ATOM     37  O   UNL     1      -1.877  -2.277  25.339  0.00  0.00    -0.446 OA
ENDBRANCH  31  33
BRANCH  18  20
ATOM     20  C   UNL     1       1.132   0.583  23.587  0.00  0.00    +0.184 C 
ATOM     21  O   UNL     1       1.192  -0.122  23.162  0.00  0.00    -0.220 OA
ENDBRANCH  18  20
BRANCH  13  12
ATOM     12  C   UNL     1      -1.903   2.018  25.076  0.00  0.00    +0.091 C 
BRANCH  12  10
ATOM      1  C   UNL     1      -2.994   3.033  25.785  0.00  0.00    +0.115 C 
ATOM      2  N   UNL     1      -3.095   2.802  25.000  0.00  0.00    -0.274 N 
ATOM     10  C   UNL     1      -2.550   2.295  24.645  0.00  0.00    +0.226 C 
ATOM     11  O   UNL     1      -2.651   2.064  23.860  0.00  0.00    -0.275 OA
BRANCH   2   3
ATOM      3  C   UNL     1      -3.742   3.078  24.570  0.00  0.00    +0.120 C 
BRANCH   3   4
ATOM      4  C   UNL     1      -4.488   3.110  24.921  0.00  0.00    -0.002 A 
ATOM      5  C   UNL     1      -4.999   2.464  24.864  0.00  0.00    -0.003 A 
ATOM      6  C   UNL     1      -5.745   2.496  25.215  0.00  0.00    -0.000 A 
ATOM      7  C   UNL     1      -5.980   3.174  25.623  0.00  0.00    -0.000 A 
ATOM      8  C   UNL     1      -5.469   3.819  25.680  0.00  0.00    -0.000 A 
ATOM      9  C   UNL     1      -4.723   3.787  25.329  0.00  0.00    -0.003 A 
ENDBRANCH   3   4
ENDBRANCH   2   3
ENDBRANCH  12  10
ENDBRANCH  13  12
TORSDOF 6
ENDMDL
MODEL 6
REMARK VINA RESULT:     -11.4      1.408      4.633
REMARK  Name = 
REMARK  6 active torsions:
REMARK  status: ('A' for Active; 'I' for Inactive)
REMARK    1  A    between atoms: N_2  and  C_3
REMARK    2  A    between atoms: C_3  and  C_4
REMARK    3  A    between atoms: C_10  and  C_12
REMARK    4  A    between atoms: C_12  and  C_13
REMARK    5  A    between atoms: C_18  and  C_20
REMARK    6  A    between atoms: C_31  and  C_33
REMARK                            x       y       z     vdW  Elec       q    Type
REMARK                         _______ _______ _______ _____ _____    ______ ____
ROOT
ATOM     13  C   UNL     1      -3.113   1.467  24.306  0.00  0.00    +0.050 C 
ATOM     14  C   UNL     1      -2.842   0.692  24.396  0.00  0.00    +0.063 A 
ATOM     15  C   UNL     1      -3.357   0.103  24.658  0.00  0.00    +0.023 A 
ATOM     16  C   UNL     1      -4.143   0.289  24.829  0.00  0.00    +0.034 C 
ATOM     17  C   UNL     1      -4.414   1.062  24.739  0.00  0.00    +0.010 C 
ATOM     18  C   UNL     1      -5.198   1.247  24.909  0.00  0.00    +0.059 C 
ATOM     19  C   UNL     1      -5.201   0.440  25.080  0.00  0.00    +0.005 C 
ATOM     22  C   UNL     1      -5.470   2.021  24.819  0.00  0.00    +0.154 C 
ATOM     23  O   UNL     1      -6.255   2.207  24.990  0.00  0.00    -0.223 OA
ATOM     24  C   UNL     1      -4.955   2.610  24.558  0.00  0.00    +0.033 C 
ATOM     25  C   UNL     1      -4.168   2.425  24.386  0.00  0.00    +0.003 C 
ATOM     26  C   UNL     1      -3.899   1.651  24.477  0.00  0.00    +0.006 C 
ATOM     27  C   UNL     1      -3.384   2.240  24.215  0.00  0.00    +0.000 C 
ATOM     28  S   UNL     1      -2.936  -0.606  24.695  0.00  0.00    -0.054 S 
ATOM     29  C   UNL     1      -2.162  -0.455  24.456  0.00  0.00    +0.186 A 
ATOM     30  N   UNL     1      -1.552  -1.009  24.409  0.00  0.00    -0.148 NA
ATOM     31  C   UNL     1      -1.693  -1.796  24.613  0.00  0.00    +0.305 C 
ATOM     32  O   UNL     1      -1.083  -2.349  24.566  0.00  0.00    -0.265 OA
ATOM     38  N   UNL     1      -2.103   0.347  24.271  0.00  0.00    -0.227 NA
ENDROOT
BRANCH  31  33
ATOM     33  C   UNL     1      -2.444  -2.028  24.862  0.00  0.00    +0.201 A 
ATOM     34  C   UNL     1      -3.024  -2.378  24.391  0.00  0.00    +0.046 A 
ATOM     35  C   UNL     1      -3.686  -2.518  24.864  0.00  0.00    +0.044 A 
ATOM     36  C   UNL     1      -3.515  -2.255  25.627  0.00  0.00    +0.180 A 
ATOM     37  O   UNL     1      -2.748  -1.952  25.625  0.00  0.00    -0.446 OA
ENDBRANCH  31  33
BRANCH  18  20
ATOM     20  C   UNL     1      -5.985   1.152  25.140  0.00  0.00    +0.184 C 
ATOM     21  O   UNL     1      -6.164   0.829  25.877  0.00  0.00    -0.220 OA
ENDBRANCH  18  20
BRANCH  13  12
ATOM     12  C   UNL     1      -2.599   2.055  24.045  0.00  0.00    +0.091 C 
BRANCH  12  10
ATOM      1  C   UNL     1      -1.467   3.125  23.501  0.00  0.00    +0.115 C 
ATOM      2  N   UNL     1      -1.527   2.964  24.307  0.00  0.00    -0.274 N 
ATOM     10  C   UNL     1      -2.093   2.429  24.579  0.00  0.00    +0.226 C 
ATOM     11  O   UNL     1      -2.155   2.267  25.385  0.00  0.00    -0.275 OA
BRANCH   2   3
ATOM      3  C   UNL     1      -1.023   3.337  24.841  0.00  0.00    +0.120 C 
BRANCH   3   4
ATOM      4  C   UNL     1      -0.961   4.160  24.844  0.00  0.00    -0.002 A 
ATOM      5  C   UNL     1      -1.527   4.615  25.238  0.00  0.00    -0.003 A 
ATOM      6  C   UNL     1      -1.465   5.438  25.241  0.00  0.00    -0.000 A 
ATOM      7  C   UNL     1      -0.838   5.806  24.850  0.00  0.00    -0.000 A 
ATOM      8  C   UNL     1      -0.273   5.351  24.457  0.00  0.00    -0.000 A 
ATOM      9  C   UNL     1      -0.335   4.529  24.454  0.00  0.00    -0.003 A 
ENDBRANCH   3   4
ENDBRANCH   2   3
ENDBRANCH  12  10
ENDBRANCH  13  12
TORSDOF 6
ENDMDL
MODEL 7
REMARK VINA RESULT:     -11.2      1.094      3.351
REMARK  Name = 
REMARK  6 active torsions:
REMARK  status: ('A' for Active; 'I' for Inactive)
REMARK    1  A    between atoms: N_2  and  C_3
REMARK    2  A    between atoms: C_3  and  C_4
REMARK    3  A    between atoms: C_10  and  C_12
REMARK    4  A    between atoms: C_12  and  C_13
REMARK    5  A    between atoms: C_18  and  C_20
REMARK    6  A    between atoms: C_31  and  C_33
REMARK                            x       y       z     vdW  Elec       q    Type
REMARK                         _______ _______ _______ _____ _____    ______ ____
ROOT
ATOM     13  C   UNL     1      -2.249   1.198  24.282  0.00  0.00    +0.050 C 
ATOM     14  C   UNL     1      -2.735   1.799  24.573  0.00  0.00    +0.063 A 
ATOM     15  C   UNL     1      -2.402   2.490  24.877  0.00  0.00    +0.023 A 
ATOM     16  C   UNL     1      -1.582   2.580  24.891  0.00  0.00    +0.034 C 
ATOM     17  C   UNL     1      -1.096   1.980  24.601  0.00  0.00    +0.010 C 
ATOM     18  C   UNL     1      -0.276   2.070  24.615  0.00  0.00    +0.059 C 
ATOM     19  C   UNL     1      -0.505   2.788  24.951  0.00  0.00    +0.005 C 
ATOM     22  C   UNL     1       0.211   1.471  24.326  0.00  0.00    +0.154 C 
ATOM     23  O   UNL     1       1.031   1.560  24.340  0.00  0.00    -0.223 OA
ATOM     24  C   UNL     1      -0.123   0.780  24.022  0.00  0.00    +0.033 C 
ATOM     25  C   UNL     1      -0.943   0.689  24.007  0.00  0.00    +0.003 C 
ATOM     26  C   UNL     1      -1.429   1.290  24.297  0.00  0.00    +0.006 C 
ATOM     27  C   UNL     1      -1.763   0.599  23.993  0.00  0.00    +0.000 C 
ATOM     28  S   UNL     1      -3.016   2.983  25.122  0.00  0.00    -0.054 S 
ATOM     29  C   UNL     1      -3.729   2.597  24.969  0.00  0.00    +0.186 A 
ATOM     30  N   UNL     1      -4.483   2.892  25.128  0.00  0.00    -0.148 NA
ATOM     31  C   UNL     1      -4.572   3.636  25.471  0.00  0.00    +0.305 C 
ATOM     32  O   UNL     1      -5.326   3.931  25.630  0.00  0.00    -0.265 OA
ATOM     38  N   UNL     1      -3.556   1.866  24.630  0.00  0.00    -0.227 NA
ENDROOT
BRANCH  31  33
ATOM     33  C   UNL     1      -3.905   4.087  25.655  0.00  0.00    +0.201 A 
ATOM     34  C   UNL     1      -3.534   4.125  26.391  0.00  0.00    +0.046 A 
ATOM     35  C   UNL     1      -2.893   4.639  26.327  0.00  0.00    +0.044 A 
ATOM     36  C   UNL     1      -2.867   4.920  25.551  0.00  0.00    +0.180 A 
ATOM     37  O   UNL     1      -3.493   4.578  25.137  0.00  0.00    -0.446 OA
ENDBRANCH  31  33
BRANCH  18  20
ATOM     20  C   UNL     1       0.465   2.410  24.746  0.00  0.00    +0.184 C 
ATOM     21  O   UNL     1       0.561   2.974  25.340  0.00  0.00    -0.220 OA
ENDBRANCH  18  20
BRANCH  13  12
ATOM     12  C   UNL     1      -2.582   0.509  23.979  0.00  0.00    +0.091 C 
BRANCH  12  10
ATOM      1  C   UNL     1      -3.646  -0.601  23.381  0.00  0.00    +0.115 C 
ATOM      2  N   UNL     1      -3.472  -0.590  24.186  0.00  0.00    -0.274 N 
ATOM     10  C   UNL     1      -2.939  -0.035  24.485  0.00  0.00    +0.226 C 
ATOM     11  O   UNL     1      -2.764  -0.023  25.291  0.00  0.00    -0.275 OA
BRANCH   2   3
ATOM      3  C   UNL     1      -3.828  -1.134  24.693  0.00  0.00    +0.120 C 
BRANCH   3   4
ATOM      4  C   UNL     1      -3.820  -1.937  24.508  0.00  0.00    -0.002 A 
ATOM      5  C   UNL     1      -3.335  -2.454  24.932  0.00  0.00    -0.003 A 
ATOM      6  C   UNL     1      -3.326  -3.258  24.747  0.00  0.00    -0.000 A 
ATOM      7  C   UNL     1      -3.804  -3.546  24.138  0.00  0.00    -0.000 A 
ATOM      8  C   UNL     1      -4.288  -3.030  23.715  0.00  0.00    -0.000 A 
ATOM      9  C   UNL     1      -4.297  -2.226  23.900  0.00  0.00    -0.003 A 
ENDBRANCH   3   4
ENDBRANCH   2   3
ENDBRANCH  12  10
ENDBRANCH  13  12
TORSDOF 6
ENDMDL
MODEL 8
REMARK VINA RESULT:     -11.0      1.817      4.575
REMARK  Name = 
REMARK  6 active torsions:
REMARK  status: ('A' for Active; 'I' for Inactive)
REMARK    1  A    between atoms: N_2  and  C_3
REMARK    2  A    between atoms: C_3  and  C_4
REMARK    3  A    between atoms: C_10  and  C_12
REMARK    4  A    between atoms: C_12  and  C_13
REMARK    5  A    between atoms: C_18  and  C_20
REMARK    6  A    between atoms: C_31  and  C_33
REMARK                            x       y       z     vdW  Elec       q    Type
REMARK                         _______ _______ _______ _____ _____    ______ ____
ROOT
ATOM     13  C   UNL     1      -2.171   0.109  24.696  0.00  0.00    +0.050 C 
ATOM     14  C   UNL     1      -2.673   0.759  24.785  0.00  0.00    +0.063 A 
ATOM     15  C   UNL     1      -3.491   0.653  24.776  0.00  0.00    +0.023 A 
ATOM     16  C   UNL     1      -3.807  -0.103  24.678  0.00  0.00    +0.034 C 
ATOM     17  C   UNL     1      -3.307  -0.752  24.590  0.00  0.00    +0.010 C 
ATOM     18  C   UNL     1      -3.624  -1.507  24.492  0.00  0.00    +0.059 C 
ATOM     19  C   UNL     1      -4.319  -1.067  24.554  0.00  0.00    +0.005 C 
ATOM     22  C   UNL     1      -3.123  -2.157  24.403  0.00  0.00    +0.154 C 
ATOM     23  O   UNL     1      -3.440  -2.912  24.306  0.00  0.00    -0.223 OA
ATOM     24  C   UNL     1      -2.305  -2.051  24.412  0.00  0.00    +0.033 C 
ATOM     25  C   UNL     1      -1.988  -1.295  24.510  0.00  0.00    +0.003 C 
ATOM     26  C   UNL     1      -2.489  -0.646  24.599  0.00  0.00    +0.006 C 
ATOM     27  C   UNL     1      -1.671  -0.540  24.608  0.00  0.00    +0.000 C 
ATOM     28  S   UNL     1      -3.845   1.392  24.876  0.00  0.00    -0.054 S 
ATOM     29  C   UNL     1      -3.245   1.953  24.946  0.00  0.00    +0.186 A 
ATOM     30  N   UNL     1      -3.352   2.764  25.053  0.00  0.00    -0.148 NA
ATOM     31  C   UNL     1      -4.113   3.079  25.100  0.00  0.00    +0.305 C 
ATOM     32  O   UNL     1      -4.219   3.890  25.207  0.00  0.00    -0.265 OA
ATOM     38  N   UNL     1      -2.521   1.563  24.890  0.00  0.00    -0.227 NA
ENDROOT
BRANCH  31  33
ATOM     33  C   UNL     1      -4.768   2.581  25.038  0.00  0.00    +0.201 A 
ATOM     34  C   UNL     1      -5.196   2.265  25.668  0.00  0.00    +0.046 A 
ATOM     35  C   UNL     1      -5.803   1.800  25.356  0.00  0.00    +0.044 A 
ATOM     36  C   UNL     1      -5.749   1.830  24.533  0.00  0.00    +0.180 A 
ATOM     37  O   UNL     1      -5.109   2.313  24.337  0.00  0.00    -0.446 OA
ENDBRANCH  31  33
BRANCH  18  20
ATOM     20  C   UNL     1      -4.182  -2.110  24.416  0.00  0.00    +0.184 C 
ATOM     21  O   UNL     1      -4.840  -2.004  23.930  0.00  0.00    -0.220 OA
ENDBRANCH  18  20
BRANCH  13  12
ATOM     12  C   UNL     1      -1.354   0.215  24.705  0.00  0.00    +0.091 C 
BRANCH  12  10
ATOM      1  C   UNL     1       0.256   0.567  24.774  0.00  0.00    +0.115 C 
ATOM      2  N   UNL     1      -0.165   0.700  24.078  0.00  0.00    -0.274 N 
ATOM     10  C   UNL     1      -0.970   0.524  24.044  0.00  0.00    +0.226 C 
ATOM     11  O   UNL     1      -1.393   0.657  23.348  0.00  0.00    -0.275 OA
BRANCH   2   3
ATOM      3  C   UNL     1       0.218   1.009  23.417  0.00  0.00    +0.120 C 
BRANCH   3   4
ATOM      4  C   UNL     1       0.963   0.728  23.203  0.00  0.00    -0.002 A 
ATOM      5  C   UNL     1       1.031   0.051  22.735  0.00  0.00    -0.003 A 
ATOM      6  C   UNL     1       1.776  -0.231  22.521  0.00  0.00    -0.000 A 
ATOM      7  C   UNL     1       2.455   0.165  22.775  0.00  0.00    -0.000 A 
ATOM      8  C   UNL     1       2.387   0.842  23.242  0.00  0.00    -0.000 A 
ATOM      9  C   UNL     1       1.642   1.123  23.456  0.00  0.00    -0.003 A 
ENDBRANCH   3   4
ENDBRANCH   2   3
ENDBRANCH  12  10
ENDBRANCH  13  12
TORSDOF 6
ENDMDL
