MODEL 1
REMARK VINA RESULT:      -8.1      0.000      0.000
REMARK  Name = 
REMARK  5 active torsions:
REMARK  status: ('A' for Active; 'I' for Inactive)
REMARK    1  A    between atoms: N_4  and  C_5
REMARK    2  A    between atoms: C_5  and  C_6
REMARK    3  A    between atoms: C_9  and  N_10
REMARK    4  A    between atoms: N_10  and  C_11
REMARK    5  A    between atoms: C_11  and  C_12
REMARK                            x       y       z     vdW  Elec       q    Type
REMARK                         _______ _______ _______ _____ _____    ______ ____
ROOT
ATOM      6  C   UNL     1      -2.292   2.214  24.752  0.00  0.00    +0.169 C 
ATOM      7  O   UNL     1      -3.102   2.278  24.892  0.00  0.00    -0.350 OA
ATOM      8  C   UNL     1      -3.432   1.525  24.828  0.00  0.00    +0.162 C 
ATOM      9  C   UNL     1      -2.825   0.995  24.650  0.00  0.00    +0.135 C 
ATOM     18  C   UNL     1      -2.121   1.421  24.603  0.00  0.00    +0.199 C 
ATOM     19  O   UNL     1      -1.376   1.109  24.436  0.00  0.00    -0.219 OA
ENDROOT
BRANCH   6   5
ATOM      5  C   UNL     1      -1.748   2.834  24.761  0.00  0.00    +0.147 C 
BRANCH   5   4
ATOM      1  C   UNL     1      -1.679   4.962  25.245  0.00  0.00    +0.096 C 
ATOM      2  C   UNL     1      -1.440   4.207  25.011  0.00  0.00    +0.242 C 
ATOM      3  O   UNL     1      -0.656   4.071  24.795  0.00  0.00    -0.273 OA
ATOM      4  N   UNL     1      -1.986   3.588  24.994  0.00  0.00    -0.203 NA
ENDBRANCH   5   4
ENDBRANCH   6   5
BRANCH   9  10
ATOM     10  N   UNL     1      -2.909   0.182  24.538  0.00  0.00    -0.209 NA
BRANCH  10  11
ATOM     11  C   UNL     1      -3.602  -0.198  24.775  0.00  0.00    +0.117 C 
BRANCH  11  12
ATOM     12  C   UNL     1      -3.687  -1.010  24.659  0.00  0.00    +0.014 A 
ATOM     13  C   UNL     1      -4.051  -1.293  23.974  0.00  0.00    +0.000 A 
ATOM     14  C   UNL     1      -4.136  -2.105  23.858  0.00  0.00    +0.020 A 
ATOM     15  C   UNL     1      -3.858  -2.635  24.427  0.00  0.00    +0.099 A 
ATOM     16  N   UNL     1      -3.494  -2.352  25.111  0.00  0.00    -0.243 NA
ATOM     17  C   UNL     1      -3.409  -1.540  25.227  0.00  0.00    +0.096 A 
ENDBRANCH  11  12
ENDBRANCH  10  11
ENDBRANCH   9  10
TORSDOF 5
ENDMDL
MODEL 2
REMARK VINA RESULT:      -7.8      1.312      5.062
REMARK  Name = 
REMARK  5 active torsions:
REMARK  status: ('A' for Active; 'I' for Inactive)
REMARK    1  A    between atoms: N_4  and  C_5
REMARK    2  A    between atoms: C_5  and  C_6
REMARK    3  A    between atoms: C_9  and  N_10
REMARK    4  A    between atoms: N_10  and  C_11
REMARK    5  A    between atoms: C_11  and  C_12
REMARK                            x       y       z     vdW  Elec       q    Type
REMARK                         _______ _______ _______ _____ _____    ______ ____
ROOT
ATOM      6  C   UNL     1      -2.923   0.109  24.552  0.00  0.00    +0.169 C 
ATOM      7  O   UNL     1      -2.217   0.029  24.969  0.00  0.00    -0.350 OA
ATOM      8  C   UNL     1      -1.914   0.783  25.105  0.00  0.00    +0.162 C 
ATOM      9  C   UNL     1      -2.433   1.330  24.771  0.00  0.00    +0.135 C 
ATOM     18  C   UNL     1      -3.057   0.914  24.429  0.00  0.00    +0.199 C 
ATOM     19  O   UNL     1      -3.702   1.243  24.034  0.00  0.00    -0.219 OA
ENDROOT
BRANCH   6   5
ATOM      5  C   UNL     1      -3.411  -0.508  24.300  0.00  0.00    +0.147 C 
BRANCH   5   4
ATOM      1  C   UNL     1      -3.576  -2.673  24.518  0.00  0.00    +0.096 C 
ATOM      2  C   UNL     1      -3.727  -1.901  24.269  0.00  0.00    +0.242 C 
ATOM      3  O   UNL     1      -4.344  -1.749  23.743  0.00  0.00    -0.273 OA
ATOM      4  N   UNL     1      -3.260  -1.279  24.548  0.00  0.00    -0.203 NA
ENDBRANCH   5   4
ENDBRANCH   6   5
BRANCH   9  10
ATOM     10  N   UNL     1      -2.344   2.151  24.778  0.00  0.00    -0.209 NA
BRANCH  10  11
ATOM     11  C   UNL     1      -1.774   2.500  25.262  0.00  0.00    +0.117 C 
BRANCH  11  12
ATOM     12  C   UNL     1      -1.670   3.318  25.253  0.00  0.00    +0.014 A 
ATOM     13  C   UNL     1      -0.999   3.644  24.900  0.00  0.00    +0.000 A 
ATOM     14  C   UNL     1      -0.895   4.463  24.891  0.00  0.00    +0.020 A 
ATOM     15  C   UNL     1      -1.462   4.955  25.234  0.00  0.00    +0.099 A 
ATOM     16  N   UNL     1      -2.133   4.628  25.586  0.00  0.00    -0.243 NA
ATOM     17  C   UNL     1      -2.236   3.810  25.595  0.00  0.00    +0.096 A 
ENDBRANCH  11  12
ENDBRANCH  10  11
ENDBRANCH   9  10
TORSDOF 5
ENDMDL
MODEL 3
REMARK VINA RESULT:      -7.4      1.546      1.894
REMARK  Name = 
REMARK  5 active torsions:
REMARK  status: ('A' for Active; 'I' for Inactive)
REMARK    1  A    between atoms: N_4  and  C_5
REMARK    2  A    between atoms: C_5  and  C_6
REMARK    3  A    between atoms: C_9  and  N_10
REMARK    4  A    between atoms: N_10  and  C_11
REMARK    5  A    between atoms: C_11  and  C_12
REMARK                            x       y       z     vdW  Elec       q    Type
REMARK                         _______ _______ _______ _____ _____    ______ ____
ROOT
ATOM      6  C   UNL     1      -3.928   1.971  24.712  0.00  0.00    +0.169 C 
ATOM      7  O   UNL     1      -3.378   1.858  24.108  0.00  0.00    -0.350 OA
ATOM      8  C   UNL     1      -3.375   1.057  23.912  0.00  0.00    +0.162 C 
ATOM      9  C   UNL     1      -3.923   0.675  24.395  0.00  0.00    +0.135 C 
ATOM     18  C   UNL     1      -4.265   1.239  24.890  0.00  0.00    +0.199 C 
ATOM     19  O   UNL     1      -4.842   1.097  25.461  0.00  0.00    -0.219 OA
ENDROOT
BRANCH   6   5
ATOM      5  C   UNL     1      -4.109   2.689  25.075  0.00  0.00    +0.147 C 
BRANCH   5   4
ATOM      1  C   UNL     1      -3.081   4.354  26.042  0.00  0.00    +0.096 C 
ATOM      2  C   UNL     1      -3.684   3.889  25.725  0.00  0.00    +0.242 C 
ATOM      3  O   UNL     1      -4.464   4.156  25.742  0.00  0.00    -0.273 OA
ATOM      4  N   UNL     1      -3.507   3.155  25.391  0.00  0.00    -0.203 NA
ENDBRANCH   5   4
ENDBRANCH   6   5
BRANCH   9  10
ATOM     10  N   UNL     1      -4.099  -0.132  24.386  0.00  0.00    -0.209 NA
BRANCH  10  11
ATOM     11  C   UNL     1      -3.567  -0.666  24.049  0.00  0.00    +0.117 C 
BRANCH  11  12
ATOM     12  C   UNL     1      -3.660  -1.476  24.176  0.00  0.00    +0.014 A 
ATOM     13  C   UNL     1      -3.199  -1.861  24.742  0.00  0.00    +0.000 A 
ATOM     14  C   UNL     1      -3.293  -2.670  24.868  0.00  0.00    +0.020 A 
ATOM     15  C   UNL     1      -3.848  -3.095  24.429  0.00  0.00    +0.099 A 
ATOM     16  N   UNL     1      -4.309  -2.710  23.864  0.00  0.00    -0.243 NA
ATOM     17  C   UNL     1      -4.215  -1.900  23.737  0.00  0.00    +0.096 A 
ENDBRANCH  11  12
ENDBRANCH  10  11
ENDBRANCH   9  10
TORSDOF 5
ENDMDL
MODEL 4
REMARK VINA RESULT:      -7.1      2.520      3.812
REMARK  Name = 
REMARK  5 active torsions:
REMARK  status: ('A' for Active; 'I' for Inactive)
REMARK    1  A    between atoms: N_4  and  C_5
REMARK    2  A    between atoms: C_5  and  C_6
REMARK    3  A    between atoms: C_9  and  N_10
REMARK    4  A    between atoms: N_10  and  C_11
REMARK    5  A    between atoms: C_11  and  C_12
REMARK                            x       y       z     vdW  Elec       q    Type
REMARK                         _______ _______ _______ _____ _____    ______ ____
ROOT
ATOM      6  C   UNL     1      -1.474   0.920  24.085  0.00  0.00    +0.169 C 
ATOM      7  O   UNL     1      -1.628   1.502  23.521  0.00  0.00    -0.350 OA
ATOM      8  C   UNL     1      -2.322   1.890  23.738  0.00  0.00    +0.162 C 
ATOM      9  C   UNL     1      -2.598   1.548  24.436  0.00  0.00    +0.135 C 
ATOM     18  C   UNL     1      -2.075   0.948  24.651  0.00  0.00    +0.199 C 
ATOM     19  O   UNL     1      -2.139   0.463  25.314  0.00  0.00    -0.219 OA
ENDROOT
BRANCH   6   5
ATOM      5  C   UNL     1      -0.834   0.400  24.084  0.00  0.00    +0.147 C 
BRANCH   5   4
ATOM      1  C   UNL     1       1.031   0.094  22.992  0.00  0.00    +0.096 C 
ATOM      2  C   UNL     1       0.393  -0.040  23.498  0.00  0.00    +0.242 C 
ATOM      3  O   UNL     1       0.344  -0.745  23.922  0.00  0.00    -0.273 OA
ATOM      4  N   UNL     1      -0.196   0.533  23.579  0.00  0.00    -0.203 NA
ENDBRANCH   5   4
ENDBRANCH   6   5
BRANCH   9  10
ATOM     10  N   UNL     1      -3.279   1.768  24.848  0.00  0.00    -0.209 NA
BRANCH  10  11
ATOM     11  C   UNL     1      -3.833   2.267  24.493  0.00  0.00    +0.117 C 
BRANCH  11  12
ATOM     12  C   UNL     1      -4.503   2.503  24.911  0.00  0.00    +0.014 A 
ATOM     13  C   UNL     1      -5.176   2.025  24.915  0.00  0.00    +0.000 A 
ATOM     14  C   UNL     1      -5.846   2.260  25.334  0.00  0.00    +0.020 A 
ATOM     15  C   UNL     1      -5.844   2.974  25.749  0.00  0.00    +0.099 A 
ATOM     16  N   UNL     1      -5.171   3.451  25.745  0.00  0.00    -0.243 NA
ATOM     17  C   UNL     1      -4.501   3.215  25.326  0.00  0.00    +0.096 A 
ENDBRANCH  11  12
ENDBRANCH  10  11
ENDBRANCH   9  10
TORSDOF 5
ENDMDL
