MODEL 1
REMARK VINA RESULT:     -10.6      0.000      0.000
REMARK  Name = 
REMARK  3 active torsions:
REMARK  status: ('A' for Active; 'I' for Inactive)
REMARK    1  A    between atoms: C_6  and  C_7
REMARK    2  A    between atoms: C_7  and  N_8
REMARK    3  A    between atoms: C_18  and  C_20
REMARK                            x       y       z     vdW  Elec       q    Type
REMARK                         _______ _______ _______ _____ _____    ______ ____
ROOT
ATOM      8  N   UNL     1      -1.229   2.720  25.066  0.00  0.00    -0.255 N 
ATOM      9  C   UNL     1      -2.030   2.615  24.907  0.00  0.00    +0.117 C 
ATOM     10  C   UNL     1      -2.196   1.807  24.950  0.00  0.00    +0.116 C 
ATOM     11  C   UNL     1      -2.894   1.380  24.844  0.00  0.00    +0.115 C 
ATOM     12  N   UNL     1      -2.890   0.559  24.925  0.00  0.00    -0.273 N 
ATOM     13  C   UNL     1      -2.190   0.165  25.111  0.00  0.00    +0.115 C 
ATOM     14  C   UNL     1      -1.492   0.593  25.217  0.00  0.00    +0.116 C 
ATOM     15  N   UNL     1      -1.495   1.414  25.136  0.00  0.00    -0.261 N 
ATOM     16  C   UNL     1      -0.897   1.978  25.208  0.00  0.00    +0.308 C 
ATOM     17  O   UNL     1      -0.107   1.826  25.390  0.00  0.00    -0.252 OA
ATOM     18  C   UNL     1      -3.588   0.132  24.819  0.00  0.00    +0.249 C 
ATOM     19  O   UNL     1      -4.289   0.525  24.633  0.00  0.00    -0.270 OA
ENDROOT
BRANCH  18  20
ATOM     20  C   UNL     1      -3.585  -0.690  24.899  0.00  0.00    +0.057 A 
ATOM     21  C   UNL     1      -3.529  -1.031  25.648  0.00  0.00    +0.008 A 
ATOM     22  C   UNL     1      -3.526  -1.852  25.728  0.00  0.00    +0.040 A 
ATOM     23  C   UNL     1      -3.579  -2.332  25.059  0.00  0.00    +0.176 A 
ATOM     24  O   UNL     1      -3.589  -3.151  24.966  0.00  0.00    -0.435 OA
ATOM     25  C   UNL     1      -3.651  -3.317  24.161  0.00  0.00    +0.429 C 
ATOM     26  O   UNL     1      -3.679  -2.599  23.755  0.00  0.00    -0.435 OA
ATOM     27  C   UNL     1      -3.635  -1.991  24.310  0.00  0.00    +0.177 A 
ATOM     28  C   UNL     1      -3.638  -1.169  24.230  0.00  0.00    +0.045 A 
ENDBRANCH  18  20
BRANCH   8   7
ATOM      7  C   UNL     1      -0.827   3.441  25.081  0.00  0.00    +0.159 C 
BRANCH   7   6
ATOM      1  C   UNL     1      -0.365   5.057  24.453  0.00  0.00    +0.132 C 
ATOM      2  N   UNL     1      -1.031   4.887  24.909  0.00  0.00    -0.310 N 
ATOM      3  C   UNL     1      -1.602   5.429  25.156  0.00  0.00    +0.098 A 
ATOM      4  C   UNL     1      -2.166   5.020  25.598  0.00  0.00    +0.119 A 
ATOM      5  N   UNL     1      -1.945   4.226  25.624  0.00  0.00    -0.228 NA
ATOM      6  C   UNL     1      -1.243   4.143  25.198  0.00  0.00    +0.141 A 
ENDBRANCH   7   6
ENDBRANCH   8   7
TORSDOF 3
ENDMDL
MODEL 2
REMARK VINA RESULT:     -10.0      1.454      5.780
REMARK  Name = 
REMARK  3 active torsions:
REMARK  status: ('A' for Active; 'I' for Inactive)
REMARK    1  A    between atoms: C_6  and  C_7
REMARK    2  A    between atoms: C_7  and  N_8
REMARK    3  A    between atoms: C_18  and  C_20
REMARK                            x       y       z     vdW  Elec       q    Type
REMARK                         _______ _______ _______ _____ _____    ______ ____
ROOT
ATOM      8  N   UNL     1      -3.742  -0.294  24.491  0.00  0.00    -0.255 N 
ATOM      9  C   UNL     1      -2.954  -0.205  24.715  0.00  0.00    +0.117 C 
ATOM     10  C   UNL     1      -2.800   0.602  24.797  0.00  0.00    +0.116 C 
ATOM     11  C   UNL     1      -2.118   1.016  25.008  0.00  0.00    +0.115 C 
ATOM     12  N   UNL     1      -2.131   1.839  25.045  0.00  0.00    -0.273 N 
ATOM     13  C   UNL     1      -2.825   2.250  24.871  0.00  0.00    +0.115 C 
ATOM     14  C   UNL     1      -3.507   1.836  24.660  0.00  0.00    +0.116 C 
ATOM     15  N   UNL     1      -3.495   1.011  24.624  0.00  0.00    -0.261 N 
ATOM     16  C   UNL     1      -4.077   0.458  24.434  0.00  0.00    +0.308 C 
ATOM     17  O   UNL     1      -4.857   0.627  24.224  0.00  0.00    -0.252 OA
ATOM     18  C   UNL     1      -1.449   2.253  25.255  0.00  0.00    +0.249 C 
ATOM     19  O   UNL     1      -0.755   1.844  25.429  0.00  0.00    -0.270 OA
ENDROOT
BRANCH  18  20
ATOM     20  C   UNL     1      -1.462   3.078  25.292  0.00  0.00    +0.057 A 
ATOM     21  C   UNL     1      -1.938   3.459  25.848  0.00  0.00    +0.008 A 
ATOM     22  C   UNL     1      -1.950   4.283  25.884  0.00  0.00    +0.040 A 
ATOM     23  C   UNL     1      -1.487   4.726  25.366  0.00  0.00    +0.176 A 
ATOM     24  O   UNL     1      -1.386   5.539  25.272  0.00  0.00    -0.435 OA
ATOM     25  C   UNL     1      -0.848   5.661  24.659  0.00  0.00    +0.429 C 
ATOM     26  O   UNL     1      -0.616   4.923  24.374  0.00  0.00    -0.435 OA
ATOM     27  C   UNL     1      -1.011   4.345  24.810  0.00  0.00    +0.177 A 
ATOM     28  C   UNL     1      -0.998   3.521  24.773  0.00  0.00    +0.045 A 
ENDBRANCH  18  20
BRANCH   8   7
ATOM      7  C   UNL     1      -4.128  -1.009  24.348  0.00  0.00    +0.159 C 
BRANCH   7   6
ATOM      1  C   UNL     1      -4.115  -2.613  23.545  0.00  0.00    +0.132 C 
ATOM      2  N   UNL     1      -3.828  -2.447  24.300  0.00  0.00    -0.310 N 
ATOM      3  C   UNL     1      -3.485  -2.989  24.819  0.00  0.00    +0.098 A 
ATOM      4  C   UNL     1      -3.279  -2.585  25.508  0.00  0.00    +0.119 A 
ATOM      5  N   UNL     1      -3.495  -1.794  25.416  0.00  0.00    -0.228 NA
ATOM      6  C   UNL     1      -3.835  -1.709  24.669  0.00  0.00    +0.141 A 
ENDBRANCH   7   6
ENDBRANCH   8   7
TORSDOF 3
ENDMDL
MODEL 3
REMARK VINA RESULT:      -9.6      2.990      4.153
REMARK  Name = 
REMARK  3 active torsions:
REMARK  status: ('A' for Active; 'I' for Inactive)
REMARK    1  A    between atoms: C_6  and  C_7
REMARK    2  A    between atoms: C_7  and  N_8
REMARK    3  A    between atoms: C_18  and  C_20
REMARK                            x       y       z     vdW  Elec       q    Type
REMARK                         _______ _______ _______ _____ _____    ______ ____
ROOT
ATOM      8  N   UNL     1      -0.070   1.608  24.168  0.00  0.00    -0.255 N 
ATOM      9  C   UNL     1      -0.642   1.772  23.599  0.00  0.00    +0.117 C 
ATOM     10  C   UNL     1      -1.342   1.969  23.989  0.00  0.00    +0.116 C 
ATOM     11  C   UNL     1      -2.089   2.182  23.710  0.00  0.00    +0.115 C 
ATOM     12  N   UNL     1      -2.695   2.352  24.243  0.00  0.00    -0.273 N 
ATOM     13  C   UNL     1      -2.555   2.311  25.055  0.00  0.00    +0.115 C 
ATOM     14  C   UNL     1      -1.808   2.099  25.334  0.00  0.00    +0.116 C 
ATOM     15  N   UNL     1      -1.201   1.928  24.800  0.00  0.00    -0.261 N 
ATOM     16  C   UNL     1      -0.415   1.705  24.912  0.00  0.00    +0.308 C 
ATOM     17  O   UNL     1      -0.039   1.597  25.639  0.00  0.00    -0.252 OA
ATOM     18  C   UNL     1      -3.442   2.564  23.964  0.00  0.00    +0.249 C 
ATOM     19  O   UNL     1      -3.583   2.606  23.152  0.00  0.00    -0.270 OA
ENDROOT
BRANCH  18  20
ATOM     20  C   UNL     1      -4.048   2.735  24.497  0.00  0.00    +0.057 A 
ATOM     21  C   UNL     1      -4.137   3.502  24.790  0.00  0.00    +0.008 A 
ATOM     22  C   UNL     1      -4.743   3.672  25.322  0.00  0.00    +0.040 A 
ATOM     23  C   UNL     1      -5.261   3.076  25.563  0.00  0.00    +0.176 A 
ATOM     24  O   UNL     1      -5.905   3.079  26.078  0.00  0.00    -0.435 OA
ATOM     25  C   UNL     1      -6.215   2.315  26.104  0.00  0.00    +0.429 C 
ATOM     26  O   UNL     1      -5.762   1.840  25.605  0.00  0.00    -0.435 OA
ATOM     27  C   UNL     1      -5.172   2.310  25.271  0.00  0.00    +0.177 A 
ATOM     28  C   UNL     1      -4.566   2.139  24.737  0.00  0.00    +0.045 A 
ENDBRANCH  18  20
BRANCH   8   7
ATOM      7  C   UNL     1       0.712   1.387  24.022  0.00  0.00    +0.159 C 
BRANCH   7   6
ATOM      1  C   UNL     1       2.256   1.064  23.167  0.00  0.00    +0.132 C 
ATOM      2  N   UNL     1       1.584   0.586  23.151  0.00  0.00    -0.310 N 
ATOM      3  C   UNL     1       1.503  -0.124  22.738  0.00  0.00    +0.098 A 
ATOM      4  C   UNL     1       0.744  -0.413  22.877  0.00  0.00    +0.119 A 
ATOM      5  N   UNL     1       0.354   0.117  23.375  0.00  0.00    -0.228 NA
ATOM      6  C   UNL     1       0.874   0.735  23.544  0.00  0.00    +0.141 A 
ENDBRANCH   7   6
ENDBRANCH   8   7
TORSDOF 3
ENDMDL
MODEL 4
REMARK VINA RESULT:      -9.6      2.902      4.206
REMARK  Name = 
REMARK  3 active torsions:
REMARK  status: ('A' for Active; 'I' for Inactive)
REMARK    1  A    between atoms: C_6  and  C_7
REMARK    2  A    between atoms: C_7  and  N_8
REMARK    3  A    between atoms: C_18  and  C_20
REMARK                            x       y       z     vdW  Elec       q    Type
REMARK                         _______ _______ _______ _____ _____    ______ ____
ROOT
ATOM      8  N   UNL     1      -3.680   2.631  24.354  0.00  0.00    -0.255 N 
ATOM      9  C   UNL     1      -3.216   2.282  24.939  0.00  0.00    +0.117 C 
ATOM     10  C   UNL     1      -2.566   1.928  24.574  0.00  0.00    +0.116 C 
ATOM     11  C   UNL     1      -1.926   1.504  24.875  0.00  0.00    +0.115 C 
ATOM     12  N   UNL     1      -1.349   1.211  24.364  0.00  0.00    -0.273 N 
ATOM     13  C   UNL     1      -1.411   1.342  23.552  0.00  0.00    +0.115 C 
ATOM     14  C   UNL     1      -2.051   1.766  23.250  0.00  0.00    +0.116 C 
ATOM     15  N   UNL     1      -2.630   2.059  23.762  0.00  0.00    -0.261 N 
ATOM     16  C   UNL     1      -3.318   2.494  23.625  0.00  0.00    +0.308 C 
ATOM     17  O   UNL     1      -3.595   2.746  22.891  0.00  0.00    -0.252 OA
ATOM     18  C   UNL     1      -0.708   0.787  24.665  0.00  0.00    +0.249 C 
ATOM     19  O   UNL     1      -0.645   0.656  25.477  0.00  0.00    -0.270 OA
ENDROOT
BRANCH  18  20
ATOM     20  C   UNL     1      -0.130   0.493  24.154  0.00  0.00    +0.057 A 
ATOM     21  C   UNL     1      -0.223  -0.250  23.809  0.00  0.00    +0.008 A 
ATOM     22  C   UNL     1       0.354  -0.543  23.299  0.00  0.00    +0.040 A 
ATOM     23  C   UNL     1       1.025  -0.093  23.132  0.00  0.00    +0.176 A 
ATOM     24  O   UNL     1       1.682  -0.235  22.655  0.00  0.00    -0.435 OA
ATOM     25  C   UNL     1       2.180   0.420  22.704  0.00  0.00    +0.429 C 
ATOM     26  O   UNL     1       1.832   0.967  23.212  0.00  0.00    -0.435 OA
ATOM     27  C   UNL     1       1.118   0.651  23.477  0.00  0.00    +0.177 A 
ATOM     28  C   UNL     1       0.540   0.945  23.988  0.00  0.00    +0.045 A 
ENDBRANCH  18  20
BRANCH   8   7
ATOM      7  C   UNL     1      -4.383   3.045  24.475  0.00  0.00    +0.159 C 
BRANCH   7   6
ATOM      1  C   UNL     1      -5.441   3.893  25.650  0.00  0.00    +0.132 C 
ATOM      2  N   UNL     1      -5.481   3.094  25.452  0.00  0.00    -0.310 N 
ATOM      3  C   UNL     1      -6.013   2.544  25.759  0.00  0.00    +0.098 A 
ATOM      4  C   UNL     1      -5.856   1.814  25.408  0.00  0.00    +0.119 A 
ATOM      5  N   UNL     1      -5.226   1.913  24.884  0.00  0.00    -0.228 NA
ATOM      6  C   UNL     1      -4.994   2.704  24.911  0.00  0.00    +0.141 A 
ENDBRANCH   7   6
ENDBRANCH   8   7
TORSDOF 3
ENDMDL
MODEL 5
REMARK VINA RESULT:      -7.9     17.554     19.251
REMARK  Name = 
REMARK  3 active torsions:
REMARK  status: ('A' for Active; 'I' for Inactive)
REMARK    1  A    between atoms: C_6  and  C_7
REMARK    2  A    between atoms: C_7  and  N_8
REMARK    3  A    between atoms: C_18  and  C_20
REMARK                            x       y       z     vdW  Elec       q    Type
REMARK                         _______ _______ _______ _____ _____    ______ ____
ROOT
ATOM      8  N   UNL     1      15.617   6.973  19.629  0.00  0.00    -0.255 N 
ATOM      9  C   UNL     1      15.040   7.493  19.905  0.00  0.00    +0.117 C 
ATOM     10  C   UNL     1      14.517   7.647  19.284  0.00  0.00    +0.116 C 
ATOM     11  C   UNL     1      13.843   8.120  19.235  0.00  0.00    +0.115 C 
ATOM     12  N   UNL     1      13.424   8.167  18.526  0.00  0.00    -0.273 N 
ATOM     13  C   UNL     1      13.678   7.741  17.867  0.00  0.00    +0.115 C 
ATOM     14  C   UNL     1      14.352   7.268  17.917  0.00  0.00    +0.116 C 
ATOM     15  N   UNL     1      14.772   7.221  18.626  0.00  0.00    -0.261 N 
ATOM     16  C   UNL     1      15.452   6.804  18.838  0.00  0.00    +0.308 C 
ATOM     17  O   UNL     1      15.889   6.306  18.347  0.00  0.00    -0.252 OA
ATOM     18  C   UNL     1      12.750   8.640  18.477  0.00  0.00    +0.249 C 
ATOM     19  O   UNL     1      12.495   9.066  19.135  0.00  0.00    -0.270 OA
ENDROOT
BRANCH  18  20
ATOM     20  C   UNL     1      12.330   8.687  17.767  0.00  0.00    +0.057 A 
ATOM     21  C   UNL     1      12.672   9.046  17.108  0.00  0.00    +0.008 A 
ATOM     22  C   UNL     1      12.252   9.093  16.400  0.00  0.00    +0.040 A 
ATOM     23  C   UNL     1      11.490   8.780  16.350  0.00  0.00    +0.176 A 
ATOM     24  O   UNL     1      10.947   8.745  15.731  0.00  0.00    -0.435 OA
ATOM     25  C   UNL     1      10.269   8.365  16.007  0.00  0.00    +0.429 C 
ATOM     26  O   UNL     1      10.393   8.165  16.797  0.00  0.00    -0.435 OA
ATOM     27  C   UNL     1      11.148   8.421  17.009  0.00  0.00    +0.177 A 
ATOM     28  C   UNL     1      11.568   8.374  17.719  0.00  0.00    +0.045 A 
ENDBRANCH  18  20
BRANCH   8   7
ATOM      7  C   UNL     1      16.249   6.672  20.067  0.00  0.00    +0.159 C 
BRANCH   7   6
ATOM      1  C   UNL     1      17.181   6.134  21.502  0.00  0.00    +0.132 C 
ATOM      2  N   UNL     1      17.087   6.914  21.250  0.00  0.00    -0.310 N 
ATOM      3  C   UNL     1      17.405   7.583  21.612  0.00  0.00    +0.098 A 
ATOM      4  C   UNL     1      17.173   8.243  21.176  0.00  0.00    +0.119 A 
ATOM      5  N   UNL     1      16.711   7.983  20.544  0.00  0.00    -0.228 NA
ATOM      6  C   UNL     1      16.658   7.161  20.589  0.00  0.00    +0.141 A 
ENDBRANCH   7   6
ENDBRANCH   8   7
TORSDOF 3
ENDMDL
MODEL 6
REMARK VINA RESULT:      -7.8     15.762     18.344
REMARK  Name = 
REMARK  3 active torsions:
REMARK  status: ('A' for Active; 'I' for Inactive)
REMARK    1  A    between atoms: C_6  and  C_7
REMARK    2  A    between atoms: C_7  and  N_8
REMARK    3  A    between atoms: C_18  and  C_20
REMARK                            x       y       z     vdW  Elec       q    Type
REMARK                         _______ _______ _______ _____ _____    ______ ____
ROOT
ATOM      8  N   UNL     1      15.468   7.276  19.500  0.00  0.00    -0.255 N 
ATOM      9  C   UNL     1      14.934   6.699  19.749  0.00  0.00    +0.117 C 
ATOM     10  C   UNL     1      14.274   7.080  20.066  0.00  0.00    +0.116 C 
ATOM     11  C   UNL     1      13.575   6.792  20.396  0.00  0.00    +0.115 C 
ATOM     12  N   UNL     1      13.002   7.317  20.672  0.00  0.00    -0.273 N 
ATOM     13  C   UNL     1      13.128   8.130  20.618  0.00  0.00    +0.115 C 
ATOM     14  C   UNL     1      13.827   8.419  20.289  0.00  0.00    +0.116 C 
ATOM     15  N   UNL     1      14.401   7.893  20.012  0.00  0.00    -0.261 N 
ATOM     16  C   UNL     1      15.138   8.015  19.663  0.00  0.00    +0.308 C 
ATOM     17  O   UNL     1      15.485   8.746  19.504  0.00  0.00    -0.252 OA
ATOM     18  C   UNL     1      12.303   7.028  21.002  0.00  0.00    +0.249 C 
ATOM     19  O   UNL     1      12.177   6.215  21.055  0.00  0.00    -0.270 OA
ENDROOT
BRANCH  18  20
ATOM     20  C   UNL     1      11.730   7.554  21.278  0.00  0.00    +0.057 A 
ATOM     21  C   UNL     1      11.215   7.919  20.747  0.00  0.00    +0.008 A 
ATOM     22  C   UNL     1      10.642   8.444  21.024  0.00  0.00    +0.040 A 
ATOM     23  C   UNL     1      10.584   8.604  21.831  0.00  0.00    +0.176 A 
ATOM     24  O   UNL     1      10.079   9.092  22.263  0.00  0.00    -0.435 OA
ATOM     25  C   UNL     1      10.281   9.029  23.060  0.00  0.00    +0.429 C 
ATOM     26  O   UNL     1      10.912   8.501  23.121  0.00  0.00    -0.435 OA
ATOM     27  C   UNL     1      11.099   8.238  22.362  0.00  0.00    +0.177 A 
ATOM     28  C   UNL     1      11.672   7.713  22.085  0.00  0.00    +0.045 A 
ENDBRANCH  18  20
BRANCH   8   7
ATOM      7  C   UNL     1      16.202   7.140  19.150  0.00  0.00    +0.159 C 
BRANCH   7   6
ATOM      1  C   UNL     1      16.806   5.780  18.147  0.00  0.00    +0.132 C 
ATOM      2  N   UNL     1      16.953   5.892  18.951  0.00  0.00    -0.310 N 
ATOM      3  C   UNL     1      17.404   5.398  19.434  0.00  0.00    +0.098 A 
ATOM      4  C   UNL     1      17.404   5.719  20.194  0.00  0.00    +0.119 A 
ATOM      5  N   UNL     1      16.954   6.410  20.181  0.00  0.00    -0.228 NA
ATOM      6  C   UNL     1      16.675   6.517  19.411  0.00  0.00    +0.141 A 
ENDBRANCH   7   6
ENDBRANCH   8   7
TORSDOF 3
ENDMDL
MODEL 7
REMARK VINA RESULT:      -7.4     14.221     15.018
REMARK  Name = 
REMARK  3 active torsions:
REMARK  status: ('A' for Active; 'I' for Inactive)
REMARK    1  A    between atoms: C_6  and  C_7
REMARK    2  A    between atoms: C_7  and  N_8
REMARK    3  A    between atoms: C_18  and  C_20
REMARK                            x       y       z     vdW  Elec       q    Type
REMARK                         _______ _______ _______ _____ _____    ______ ____
ROOT
ATOM      8  N   UNL     1      -3.766 -10.665  15.141  0.00  0.00    -0.255 N 
ATOM      9  C   UNL     1      -3.869 -10.687  15.958  0.00  0.00    +0.117 C 
ATOM     10  C   UNL     1      -4.665 -10.541  16.120  0.00  0.00    +0.116 C 
ATOM     11  C   UNL     1      -5.086 -10.496  16.828  0.00  0.00    +0.115 C 
ATOM     12  N   UNL     1      -5.895 -10.339  16.817  0.00  0.00    -0.273 N 
ATOM     13  C   UNL     1      -6.285 -10.227  16.099  0.00  0.00    +0.115 C 
ATOM     14  C   UNL     1      -5.864 -10.272  15.390  0.00  0.00    +0.116 C 
ATOM     15  N   UNL     1      -5.054 -10.429  15.401  0.00  0.00    -0.261 N 
ATOM     16  C   UNL     1      -4.499 -10.505  14.795  0.00  0.00    +0.308 C 
ATOM     17  O   UNL     1      -4.649 -10.434  13.987  0.00  0.00    -0.252 OA
ATOM     18  C   UNL     1      -6.316 -10.295  17.525  0.00  0.00    +0.249 C 
ATOM     19  O   UNL     1      -5.928 -10.407  18.244  0.00  0.00    -0.270 OA
ENDROOT
BRANCH  18  20
ATOM     20  C   UNL     1      -7.127 -10.137  17.515  0.00  0.00    +0.057 A 
ATOM     21  C   UNL     1      -7.668 -10.750  17.628  0.00  0.00    +0.008 A 
ATOM     22  C   UNL     1      -8.477 -10.593  17.617  0.00  0.00    +0.040 A 
ATOM     23  C   UNL     1      -8.746  -9.823  17.494  0.00  0.00    +0.176 A 
ATOM     24  O   UNL     1      -9.505  -9.502  17.455  0.00  0.00    -0.435 OA
ATOM     25  C   UNL     1      -9.434  -8.692  17.319  0.00  0.00    +0.429 C 
ATOM     26  O   UNL     1      -8.630  -8.512  17.273  0.00  0.00    -0.435 OA
ATOM     27  C   UNL     1      -8.206  -9.210  17.381  0.00  0.00    +0.177 A 
ATOM     28  C   UNL     1      -7.395  -9.367  17.392  0.00  0.00    +0.045 A 
ENDBRANCH  18  20
BRANCH   8   7
ATOM      7  C   UNL     1      -3.056 -10.781  14.737  0.00  0.00    +0.159 C 
BRANCH   7   6
ATOM      1  C   UNL     1      -1.602 -10.103  13.933  0.00  0.00    +0.132 C 
ATOM      2  N   UNL     1      -1.670 -10.290  14.734  0.00  0.00    -0.310 N 
ATOM      3  C   UNL     1      -1.082 -10.198  15.305  0.00  0.00    +0.098 A 
ATOM      4  C   UNL     1      -1.388 -10.453  16.027  0.00  0.00    +0.119 A 
ATOM      5  N   UNL     1      -2.164 -10.703  15.903  0.00  0.00    -0.228 NA
ATOM      6  C   UNL     1      -2.339 -10.602  15.103  0.00  0.00    +0.141 A 
ENDBRANCH   7   6
ENDBRANCH   8   7
TORSDOF 3
ENDMDL
MODEL 8
REMARK VINA RESULT:      -7.4     14.800     17.378
REMARK  Name = 
REMARK  3 active torsions:
REMARK  status: ('A' for Active; 'I' for Inactive)
REMARK    1  A    between atoms: C_6  and  C_7
REMARK    2  A    between atoms: C_7  and  N_8
REMARK    3  A    between atoms: C_18  and  C_20
REMARK                            x       y       z     vdW  Elec       q    Type
REMARK                         _______ _______ _______ _____ _____    ______ ____
ROOT
ATOM      8  N   UNL     1      -4.882 -10.578  14.560  0.00  0.00    -0.255 N 
ATOM      9  C   UNL     1      -4.187 -10.781  14.167  0.00  0.00    +0.117 C 
ATOM     10  C   UNL     1      -4.255 -10.535  13.382  0.00  0.00    +0.116 C 
ATOM     11  C   UNL     1      -3.740 -10.589  12.739  0.00  0.00    +0.115 C 
ATOM     12  N   UNL     1      -3.965 -10.288  12.005  0.00  0.00    -0.273 N 
ATOM     13  C   UNL     1      -4.704  -9.932  11.913  0.00  0.00    +0.115 C 
ATOM     14  C   UNL     1      -5.218  -9.878  12.555  0.00  0.00    +0.116 C 
ATOM     15  N   UNL     1      -4.994 -10.180  13.290  0.00  0.00    -0.261 N 
ATOM     16  C   UNL     1      -5.382 -10.206  14.018  0.00  0.00    +0.308 C 
ATOM     17  O   UNL     1      -6.136  -9.913  14.176  0.00  0.00    -0.252 OA
ATOM     18  C   UNL     1      -3.450 -10.341  11.363  0.00  0.00    +0.249 C 
ATOM     19  O   UNL     1      -2.711 -10.696  11.454  0.00  0.00    -0.270 OA
ENDROOT
BRANCH  18  20
ATOM     20  C   UNL     1      -3.675 -10.039  10.627  0.00  0.00    +0.057 A 
ATOM     21  C   UNL     1      -3.503  -9.256  10.433  0.00  0.00    +0.008 A 
ATOM     22  C   UNL     1      -3.727  -8.955   9.699  0.00  0.00    +0.040 A 
ATOM     23  C   UNL     1      -4.123  -9.436   9.158  0.00  0.00    +0.176 A 
ATOM     24  O   UNL     1      -4.410  -9.294   8.399  0.00  0.00    -0.435 OA
ATOM     25  C   UNL     1      -4.759  -9.989   8.124  0.00  0.00    +0.429 C 
ATOM     26  O   UNL     1      -4.687 -10.561   8.713  0.00  0.00    -0.435 OA
ATOM     27  C   UNL     1      -4.294 -10.220   9.353  0.00  0.00    +0.177 A 
ATOM     28  C   UNL     1      -4.070 -10.522  10.088  0.00  0.00    +0.045 A 
ENDBRANCH  18  20
BRANCH   8   7
ATOM      7  C   UNL     1      -5.050 -10.721  15.355  0.00  0.00    +0.159 C 
BRANCH   7   6
ATOM      1  C   UNL     1      -5.251 -10.594  17.133  0.00  0.00    +0.132 C 
ATOM      2  N   UNL     1      -4.534 -10.662  16.730  0.00  0.00    -0.310 N 
ATOM      3  C   UNL     1      -3.784 -10.683  17.073  0.00  0.00    +0.098 A 
ATOM      4  C   UNL     1      -3.229 -10.755  16.467  0.00  0.00    +0.119 A 
ATOM      5  N   UNL     1      -3.636 -10.778  15.749  0.00  0.00    -0.228 NA
ATOM      6  C   UNL     1      -4.443 -10.720  15.912  0.00  0.00    +0.141 A 
ENDBRANCH   7   6
ENDBRANCH   8   7
TORSDOF 3
ENDMDL
MODEL 9
REMARK VINA RESULT:      -6.7     14.419     16.071
REMARK  Name = 
REMARK  3 active torsions:
REMARK  status: ('A' for Active; 'I' for Inactive)
REMARK    1  A    between atoms: C_6  and  C_7
REMARK    2  A    between atoms: C_7  and  N_8
REMARK    3  A    between atoms: C_18  and  C_20
REMARK                            x       y       z     vdW  Elec       q    Type
REMARK                         _______ _______ _______ _____ _____    ______ ____
ROOT
ATOM      8  N   UNL     1      -4.311 -10.514  12.797  0.00  0.00    -0.255 N 
ATOM      9  C   UNL     1      -4.025 -10.451  13.567  0.00  0.00    +0.117 C 
ATOM     10  C   UNL     1      -4.671 -10.379  14.076  0.00  0.00    +0.116 C 
ATOM     11  C   UNL     1      -4.722 -10.299  14.896  0.00  0.00    +0.115 C 
ATOM     12  N   UNL     1      -5.460 -10.238  15.258  0.00  0.00    -0.273 N 
ATOM     13  C   UNL     1      -6.148 -10.257  14.802  0.00  0.00    +0.115 C 
ATOM     14  C   UNL     1      -6.096 -10.337  13.982  0.00  0.00    +0.116 C 
ATOM     15  N   UNL     1      -5.357 -10.398  13.619  0.00  0.00    -0.261 N 
ATOM     16  C   UNL     1      -5.136 -10.481  12.829  0.00  0.00    +0.308 C 
ATOM     17  O   UNL     1      -5.648 -10.524  12.183  0.00  0.00    -0.252 OA
ATOM     18  C   UNL     1      -5.512 -10.158  16.077  0.00  0.00    +0.249 C 
ATOM     19  O   UNL     1      -4.826 -10.139  16.535  0.00  0.00    -0.270 OA
ENDROOT
BRANCH  18  20
ATOM     20  C   UNL     1      -6.251 -10.097  16.441  0.00  0.00    +0.057 A 
ATOM     21  C   UNL     1      -6.643 -10.776  16.696  0.00  0.00    +0.008 A 
ATOM     22  C   UNL     1      -7.381 -10.715  17.058  0.00  0.00    +0.040 A 
ATOM     23  C   UNL     1      -7.728  -9.974  17.166  0.00  0.00    +0.176 A 
ATOM     24  O   UNL     1      -8.444  -9.743  17.503  0.00  0.00    -0.435 OA
ATOM     25  C   UNL     1      -8.495  -8.921  17.456  0.00  0.00    +0.429 C 
ATOM     26  O   UNL     1      -7.810  -8.644  17.090  0.00  0.00    -0.435 OA
ATOM     27  C   UNL     1      -7.336  -9.294  16.911  0.00  0.00    +0.177 A 
ATOM     28  C   UNL     1      -6.597  -9.356  16.548  0.00  0.00    +0.045 A 
ENDBRANCH  18  20
BRANCH   8   7
ATOM      7  C   UNL     1      -3.856 -10.595  12.114  0.00  0.00    +0.159 C 
BRANCH   7   6
ATOM      1  C   UNL     1      -2.857  -9.702  10.921  0.00  0.00    +0.132 C 
ATOM      2  N   UNL     1      -2.579 -10.080  11.600  0.00  0.00    -0.310 N 
ATOM      3  C   UNL     1      -1.793 -10.113  11.849  0.00  0.00    +0.098 A 
ATOM      4  C   UNL     1      -1.768 -10.544  12.552  0.00  0.00    +0.119 A 
ATOM      5  N   UNL     1      -2.537 -10.778  12.737  0.00  0.00    -0.228 NA
ATOM      6  C   UNL     1      -3.039 -10.490  12.148  0.00  0.00    +0.141 A 
ENDBRANCH   7   6
ENDBRANCH   8   7
TORSDOF 3
ENDMDL
