MODEL 1
REMARK VINA RESULT:     -10.8      0.000      0.000
REMARK  Name = 
REMARK  9 active torsions:
REMARK  status: ('A' for Active; 'I' for Inactive)
REMARK    1  A    between atoms: C_2  and  C_4
REMARK    2  A    between atoms: N_8  and  C_9
REMARK    3  A    between atoms: C_9  and  C_10
REMARK    4  A    between atoms: C_10  and  C_11
REMARK    5  A    between atoms: C_16  and  C_17
REMARK    6  A    between atoms: C_17  and  C_18
REMARK    7  A    between atoms: C_21  and  C_23
REMARK    8  A    between atoms: C_23  and  O_24
REMARK    9  A    between atoms: O_24  and  C_25
REMARK                            x       y       z     vdW  Elec       q    Type
REMARK                         _______ _______ _______ _____ _____    ______ ____
ROOT
ATOM     11  C   UNL     1      -3.455   2.582  25.018  0.00  0.00    +0.022 C 
ATOM     12  C   UNL     1      -3.030   1.912  24.791  0.00  0.00    +0.094 C 
ATOM     13  N   UNL     1      -3.411   1.183  24.729  0.00  0.00    -0.277 N 
ATOM     14  C   UNL     1      -4.217   1.123  24.895  0.00  0.00    +0.094 C 
ATOM     15  C   UNL     1      -4.642   1.792  25.123  0.00  0.00    +0.022 C 
ATOM     16  C   UNL     1      -4.261   2.522  25.184  0.00  0.00    +0.015 C 
ATOM     21  C   UNL     1      -2.986   0.514  24.501  0.00  0.00    +0.270 C 
ATOM     22  O   UNL     1      -2.180   0.573  24.335  0.00  0.00    -0.271 OA
ENDROOT
BRANCH  11  10
ATOM     10  C   UNL     1      -3.074   3.310  25.080  0.00  0.00    +0.019 C 
BRANCH  10   9
ATOM      9  C   UNL     1      -2.250   3.346  25.078  0.00  0.00    +0.073 C 
BRANCH   9   8
ATOM      4  C   UNL     1      -1.054   4.201  25.038  0.00  0.00    +0.138 C 
ATOM      5  C   UNL     1      -0.916   5.014  25.069  0.00  0.00    +0.027 C 
ATOM      6  C   UNL     1      -1.646   5.393  25.138  0.00  0.00    +0.019 C 
ATOM      7  C   UNL     1      -2.234   4.814  25.150  0.00  0.00    +0.073 C 
ATOM      8  N   UNL     1      -1.868   4.077  25.088  0.00  0.00    -0.266 NA
BRANCH   4   2
ATOM      1  N   UNL     1      -0.191   3.403  24.225  0.00  0.00    -0.087 NA
ATOM      2  C   UNL     1      -0.478   3.614  24.969  0.00  0.00    +0.275 C 
ATOM      3  O   UNL     1      -0.189   3.239  25.644  0.00  0.00    -0.270 OA
ENDBRANCH   4   2
ENDBRANCH   9   8
ENDBRANCH  10   9
ENDBRANCH  11  10
BRANCH  16  17
ATOM     17  C   UNL     1      -4.686   3.191  25.412  0.00  0.00    +0.114 C 
BRANCH  17  18
ATOM     18  C   UNL     1      -5.450   3.112  25.712  0.00  0.00    +0.365 C 
ATOM     19  O   UNL     1      -6.097   3.127  25.199  0.00  0.00    -0.246 OA
ATOM     20  O   UNL     1      -5.569   3.019  26.523  0.00  0.00    -0.246 OA
ENDBRANCH  17  18
ENDBRANCH  16  17
BRANCH  21  23
ATOM     23  C   UNL     1      -3.367  -0.216  24.439  0.00  0.00    +0.290 C 
BRANCH  23  24
ATOM     24  O   UNL     1      -2.930  -0.897  24.279  0.00  0.00    -0.466 OA
BRANCH  24  25
ATOM     25  C   UNL     1      -3.301  -1.635  24.280  0.00  0.00    +0.139 A 
ATOM     26  C   UNL     1      -3.027  -2.233  24.778  0.00  0.00    +0.037 A 
ATOM     27  C   UNL     1      -3.398  -2.970  24.779  0.00  0.00    +0.003 A 
ATOM     28  C   UNL     1      -4.041  -3.109  24.281  0.00  0.00    +0.000 A 
ATOM     29  C   UNL     1      -4.315  -2.511  23.784  0.00  0.00    +0.003 A 
ATOM     30  C   UNL     1      -3.944  -1.773  23.783  0.00  0.00    +0.037 A 
ENDBRANCH  24  25
ENDBRANCH  23  24
ENDBRANCH  21  23
TORSDOF 9
ENDMDL
MODEL 2
REMARK VINA RESULT:     -10.2      1.177      5.220
REMARK  Name = 
REMARK  9 active torsions:
REMARK  status: ('A' for Active; 'I' for Inactive)
REMARK    1  A    between atoms: C_2  and  C_4
REMARK    2  A    between atoms: N_8  and  C_9
REMARK    3  A    between atoms: C_9  and  C_10
REMARK    4  A    between atoms: C_10  and  C_11
REMARK    5  A    between atoms: C_16  and  C_17
REMARK    6  A    between atoms: C_17  and  C_18
REMARK    7  A    between atoms: C_21  and  C_23
REMARK    8  A    between atoms: C_23  and  O_24
REMARK    9  A    between atoms: O_24  and  C_25
REMARK                            x       y       z     vdW  Elec       q    Type
REMARK                         _______ _______ _______ _____ _____    ______ ____
ROOT
ATOM     11  C   UNL     1      -4.119   0.739  24.689  0.00  0.00    +0.022 C 
ATOM     12  C   UNL     1      -3.356   1.037  24.589  0.00  0.00    +0.094 C 
ATOM     13  N   UNL     1      -3.210   1.842  24.697  0.00  0.00    -0.277 N 
ATOM     14  C   UNL     1      -3.828   2.349  24.904  0.00  0.00    +0.094 C 
ATOM     15  C   UNL     1      -4.590   2.051  25.004  0.00  0.00    +0.022 C 
ATOM     16  C   UNL     1      -4.736   1.246  24.896  0.00  0.00    +0.015 C 
ATOM     21  C   UNL     1      -2.448   2.141  24.597  0.00  0.00    +0.270 C 
ATOM     22  O   UNL     1      -1.830   1.635  24.389  0.00  0.00    -0.271 OA
ENDROOT
BRANCH  11  10
ATOM     10  C   UNL     1      -4.264  -0.066  24.581  0.00  0.00    +0.019 C 
BRANCH  10   9
ATOM      9  C   UNL     1      -3.642  -0.606  24.624  0.00  0.00    +0.073 C 
BRANCH   9   8
ATOM      4  C   UNL     1      -3.267  -2.027  24.579  0.00  0.00    +0.138 C 
ATOM      5  C   UNL     1      -3.595  -2.707  24.248  0.00  0.00    +0.027 C 
ATOM      6  C   UNL     1      -4.294  -2.492  23.865  0.00  0.00    +0.019 C 
ATOM      7  C   UNL     1      -4.396  -1.679  23.959  0.00  0.00    +0.073 C 
ATOM      8  N   UNL     1      -3.760  -1.391  24.401  0.00  0.00    -0.266 NA
BRANCH   4   2
ATOM      1  N   UNL     1      -1.838  -2.010  24.623  0.00  0.00    -0.087 NA
ATOM      2  C   UNL     1      -2.565  -1.989  25.013  0.00  0.00    +0.275 C 
ATOM      3  O   UNL     1      -2.591  -1.930  25.835  0.00  0.00    -0.270 OA
ENDBRANCH   4   2
ENDBRANCH   9   8
ENDBRANCH  10   9
ENDBRANCH  11  10
BRANCH  16  17
ATOM     17  C   UNL     1      -5.498   0.947  24.996  0.00  0.00    +0.114 C 
BRANCH  17  18
ATOM     18  C   UNL     1      -6.111   1.449  25.227  0.00  0.00    +0.365 C 
ATOM     19  O   UNL     1      -6.243   1.597  26.028  0.00  0.00    -0.246 OA
ATOM     20  O   UNL     1      -6.591   1.803  24.657  0.00  0.00    -0.246 OA
ENDBRANCH  17  18
ENDBRANCH  16  17
BRANCH  21  23
ATOM     23  C   UNL     1      -2.302   2.946  24.705  0.00  0.00    +0.290 C 
BRANCH  23  24
ATOM     24  O   UNL     1      -1.571   3.198  24.991  0.00  0.00    -0.466 OA
BRANCH  24  25
ATOM     25  C   UNL     1      -1.384   4.002  24.994  0.00  0.00    +0.139 A 
ATOM     26  C   UNL     1      -0.698   4.267  24.620  0.00  0.00    +0.037 A 
ATOM     27  C   UNL     1      -0.511   5.070  24.622  0.00  0.00    +0.003 A 
ATOM     28  C   UNL     1      -1.010   5.609  24.999  0.00  0.00    +0.000 A 
ATOM     29  C   UNL     1      -1.696   5.344  25.373  0.00  0.00    +0.003 A 
ATOM     30  C   UNL     1      -1.883   4.540  25.370  0.00  0.00    +0.037 A 
ENDBRANCH  24  25
ENDBRANCH  23  24
ENDBRANCH  21  23
TORSDOF 9
ENDMDL
MODEL 3
REMARK VINA RESULT:      -9.4      1.550      3.114
REMARK  Name = 
REMARK  9 active torsions:
REMARK  status: ('A' for Active; 'I' for Inactive)
REMARK    1  A    between atoms: C_2  and  C_4
REMARK    2  A    between atoms: N_8  and  C_9
REMARK    3  A    between atoms: C_9  and  C_10
REMARK    4  A    between atoms: C_10  and  C_11
REMARK    5  A    between atoms: C_16  and  C_17
REMARK    6  A    between atoms: C_17  and  C_18
REMARK    7  A    between atoms: C_21  and  C_23
REMARK    8  A    between atoms: C_23  and  O_24
REMARK    9  A    between atoms: O_24  and  C_25
REMARK                            x       y       z     vdW  Elec       q    Type
REMARK                         _______ _______ _______ _____ _____    ______ ____
ROOT
ATOM     11  C   UNL     1      -1.112   1.903  24.465  0.00  0.00    +0.022 C 
ATOM     12  C   UNL     1      -1.825   1.550  24.684  0.00  0.00    +0.094 C 
ATOM     13  N   UNL     1      -1.931   0.737  24.583  0.00  0.00    -0.277 N 
ATOM     14  C   UNL     1      -1.324   0.278  24.264  0.00  0.00    +0.094 C 
ATOM     15  C   UNL     1      -0.612   0.631  24.045  0.00  0.00    +0.022 C 
ATOM     16  C   UNL     1      -0.505   1.443  24.146  0.00  0.00    +0.015 C 
ATOM     21  C   UNL     1      -2.644   0.384  24.802  0.00  0.00    +0.270 C 
ATOM     22  O   UNL     1      -3.251   0.843  25.121  0.00  0.00    -0.271 OA
ENDROOT
BRANCH  11  10
ATOM     10  C   UNL     1      -1.006   2.714  24.565  0.00  0.00    +0.019 C 
BRANCH  10   9
ATOM      9  C   UNL     1      -1.593   3.164  24.931  0.00  0.00    +0.073 C 
BRANCH   9   8
ATOM      4  C   UNL     1      -2.066   4.509  25.289  0.00  0.00    +0.138 C 
ATOM      5  C   UNL     1      -1.740   5.267  25.272  0.00  0.00    +0.027 C 
ATOM      6  C   UNL     1      -0.970   5.206  24.981  0.00  0.00    +0.019 C 
ATOM      7  C   UNL     1      -0.822   4.411  24.818  0.00  0.00    +0.073 C 
ATOM      8  N   UNL     1      -1.500   3.980  25.008  0.00  0.00    -0.266 NA
BRANCH   4   2
ATOM      1  N   UNL     1      -2.976   4.191  26.344  0.00  0.00    -0.087 NA
ATOM      2  C   UNL     1      -2.828   4.315  25.542  0.00  0.00    +0.275 C 
ATOM      3  O   UNL     1      -3.439   4.245  24.994  0.00  0.00    -0.270 OA
ENDBRANCH   4   2
ENDBRANCH   9   8
ENDBRANCH  10   9
ENDBRANCH  11  10
BRANCH  16  17
ATOM     17  C   UNL     1       0.207   1.796  23.927  0.00  0.00    +0.114 C 
BRANCH  17  18
ATOM     18  C   UNL     1       0.891   1.340  23.862  0.00  0.00    +0.365 C 
ATOM     19  O   UNL     1       1.013   0.872  23.193  0.00  0.00    -0.246 OA
ATOM     20  O   UNL     1       1.454   1.351  24.465  0.00  0.00    -0.246 OA
ENDBRANCH  17  18
ENDBRANCH  16  17
BRANCH  21  23
ATOM     23  C   UNL     1      -2.750  -0.428  24.702  0.00  0.00    +0.290 C 
BRANCH  23  24
ATOM     24  O   UNL     1      -3.474  -0.776  24.889  0.00  0.00    -0.466 OA
BRANCH  24  25
ATOM     25  C   UNL     1      -3.636  -1.548  24.649  0.00  0.00    +0.139 A 
ATOM     26  C   UNL     1      -3.295  -2.185  25.048  0.00  0.00    +0.037 A 
ATOM     27  C   UNL     1      -3.456  -2.956  24.808  0.00  0.00    +0.003 A 
ATOM     28  C   UNL     1      -3.958  -3.093  24.168  0.00  0.00    +0.000 A 
ATOM     29  C   UNL     1      -4.299  -2.457  23.768  0.00  0.00    +0.003 A 
ATOM     30  C   UNL     1      -4.138  -1.684  24.009  0.00  0.00    +0.037 A 
ENDBRANCH  24  25
ENDBRANCH  23  24
ENDBRANCH  21  23
TORSDOF 9
ENDMDL
MODEL 4
REMARK VINA RESULT:      -9.0      2.057      6.162
REMARK  Name = 
REMARK  9 active torsions:
REMARK  status: ('A' for Active; 'I' for Inactive)
REMARK    1  A    between atoms: C_2  and  C_4
REMARK    2  A    between atoms: N_8  and  C_9
REMARK    3  A    between atoms: C_9  and  C_10
REMARK    4  A    between atoms: C_10  and  C_11
REMARK    5  A    between atoms: C_16  and  C_17
REMARK    6  A    between atoms: C_17  and  C_18
REMARK    7  A    between atoms: C_21  and  C_23
REMARK    8  A    between atoms: C_23  and  O_24
REMARK    9  A    between atoms: O_24  and  C_25
REMARK                            x       y       z     vdW  Elec       q    Type
REMARK                         _______ _______ _______ _____ _____    ______ ____
ROOT
ATOM     11  C   UNL     1      -1.011  -0.060  24.403  0.00  0.00    +0.022 C 
ATOM     12  C   UNL     1      -1.418   0.553  24.776  0.00  0.00    +0.094 C 
ATOM     13  N   UNL     1      -1.124   1.323  24.743  0.00  0.00    -0.277 N 
ATOM     14  C   UNL     1      -0.424   1.482  24.337  0.00  0.00    +0.094 C 
ATOM     15  C   UNL     1      -0.017   0.869  23.963  0.00  0.00    +0.022 C 
ATOM     16  C   UNL     1      -0.310   0.098  23.996  0.00  0.00    +0.015 C 
ATOM     21  C   UNL     1      -1.531   1.936  25.117  0.00  0.00    +0.270 C 
ATOM     22  O   UNL     1      -2.231   1.779  25.523  0.00  0.00    -0.271 OA
ENDROOT
BRANCH  11  10
ATOM     10  C   UNL     1      -1.304  -0.830  24.436  0.00  0.00    +0.019 C 
BRANCH  10   9
ATOM      9  C   UNL     1      -2.107  -0.959  24.574  0.00  0.00    +0.073 C 
BRANCH   9   8
ATOM      4  C   UNL     1      -3.205  -1.936  24.604  0.00  0.00    +0.138 C 
ATOM      5  C   UNL     1      -3.256  -2.759  24.581  0.00  0.00    +0.027 C 
ATOM      6  C   UNL     1      -2.489  -3.059  24.529  0.00  0.00    +0.019 C 
ATOM      7  C   UNL     1      -1.965  -2.421  24.520  0.00  0.00    +0.073 C 
ATOM      8  N   UNL     1      -2.409  -1.727  24.566  0.00  0.00    -0.266 NA
BRANCH   4   2
ATOM      1  N   UNL     1      -4.269  -1.216  23.977  0.00  0.00    -0.087 NA
ATOM      2  C   UNL     1      -3.842  -1.412  24.655  0.00  0.00    +0.275 C 
ATOM      3  O   UNL     1      -4.050  -1.087  25.383  0.00  0.00    -0.270 OA
ENDBRANCH   4   2
ENDBRANCH   9   8
ENDBRANCH  10   9
ENDBRANCH  11  10
BRANCH  16  17
ATOM     17  C   UNL     1       0.097  -0.514  23.623  0.00  0.00    +0.114 C 
BRANCH  17  18
ATOM     18  C   UNL     1       0.746  -0.346  23.142  0.00  0.00    +0.365 C 
ATOM     19  O   UNL     1       1.507  -0.352  23.461  0.00  0.00    -0.246 OA
ATOM     20  O   UNL     1       0.635  -0.172  22.344  0.00  0.00    -0.246 OA
ENDBRANCH  17  18
ENDBRANCH  16  17
BRANCH  21  23
ATOM     23  C   UNL     1      -1.237   2.707  25.084  0.00  0.00    +0.290 C 
BRANCH  23  24
ATOM     24  O   UNL     1      -1.560   3.292  25.567  0.00  0.00    -0.466 OA
BRANCH  24  25
ATOM     25  C   UNL     1      -1.485   4.087  25.359  0.00  0.00    +0.139 A 
ATOM     26  C   UNL     1      -0.767   4.372  25.070  0.00  0.00    +0.037 A 
ATOM     27  C   UNL     1      -0.692   5.166  24.862  0.00  0.00    +0.003 A 
ATOM     28  C   UNL     1      -1.335   5.677  24.943  0.00  0.00    +0.000 A 
ATOM     29  C   UNL     1      -2.053   5.392  25.233  0.00  0.00    +0.003 A 
ATOM     30  C   UNL     1      -2.128   4.597  25.441  0.00  0.00    +0.037 A 
ENDBRANCH  24  25
ENDBRANCH  23  24
ENDBRANCH  21  23
TORSDOF 9
ENDMDL
MODEL 5
REMARK VINA RESULT:      -8.5      2.309      4.334
REMARK  Name = 
REMARK  9 active torsions:
REMARK  status: ('A' for Active; 'I' for Inactive)
REMARK    1  A    between atoms: C_2  and  C_4
REMARK    2  A    between atoms: N_8  and  C_9
REMARK    3  A    between atoms: C_9  and  C_10
REMARK    4  A    between atoms: C_10  and  C_11
REMARK    5  A    between atoms: C_16  and  C_17
REMARK    6  A    between atoms: C_17  and  C_18
REMARK    7  A    between atoms: C_21  and  C_23
REMARK    8  A    between atoms: C_23  and  O_24
REMARK    9  A    between atoms: O_24  and  C_25
REMARK                            x       y       z     vdW  Elec       q    Type
REMARK                         _______ _______ _______ _____ _____    ______ ____
ROOT
ATOM     11  C   UNL     1      -3.223   0.412  24.724  0.00  0.00    +0.022 C 
ATOM     12  C   UNL     1      -2.567   0.866  24.517  0.00  0.00    +0.094 C 
ATOM     13  N   UNL     1      -1.856   0.498  24.316  0.00  0.00    -0.277 N 
ATOM     14  C   UNL     1      -1.802  -0.326  24.322  0.00  0.00    +0.094 C 
ATOM     15  C   UNL     1      -2.458  -0.780  24.529  0.00  0.00    +0.022 C 
ATOM     16  C   UNL     1      -3.169  -0.412  24.730  0.00  0.00    +0.015 C 
ATOM     21  C   UNL     1      -1.200   0.953  24.109  0.00  0.00    +0.270 C 
ATOM     22  O   UNL     1      -1.253   1.776  24.103  0.00  0.00    -0.271 OA
ENDROOT
BRANCH  11  10
ATOM     10  C   UNL     1      -3.933   0.780  24.925  0.00  0.00    +0.019 C 
BRANCH  10   9
ATOM      9  C   UNL     1      -3.984   1.604  24.927  0.00  0.00    +0.073 C 
BRANCH   9   8
ATOM      4  C   UNL     1      -4.811   2.784  25.213  0.00  0.00    +0.138 C 
ATOM      5  C   UNL     1      -5.602   2.909  25.411  0.00  0.00    +0.027 C 
ATOM      6  C   UNL     1      -5.975   2.173  25.445  0.00  0.00    +0.019 C 
ATOM      7  C   UNL     1      -5.414   1.595  25.267  0.00  0.00    +0.073 C 
ATOM      8  N   UNL     1      -4.694   1.973  25.124  0.00  0.00    -0.266 NA
BRANCH   4   2
ATOM      1  N   UNL     1      -3.831   3.657  25.780  0.00  0.00    -0.087 NA
ATOM      2  C   UNL     1      -4.237   3.370  25.121  0.00  0.00    +0.275 C 
ATOM      3  O   UNL     1      -4.070   3.669  24.371  0.00  0.00    -0.270 OA
ENDBRANCH   4   2
ENDBRANCH   9   8
ENDBRANCH  10   9
ENDBRANCH  11  10
BRANCH  16  17
ATOM     17  C   UNL     1      -3.825  -0.866  24.938  0.00  0.00    +0.114 C 
BRANCH  17  18
ATOM     18  C   UNL     1      -3.804  -1.686  24.849  0.00  0.00    +0.365 C 
ATOM     19  O   UNL     1      -4.040  -2.030  24.136  0.00  0.00    -0.246 OA
ATOM     20  O   UNL     1      -3.548  -2.163  25.471  0.00  0.00    -0.246 OA
ENDBRANCH  17  18
ENDBRANCH  16  17
BRANCH  21  23
ATOM     23  C   UNL     1      -0.489   0.584  23.908  0.00  0.00    +0.290 C 
BRANCH  23  24
ATOM     24  O   UNL     1       0.168   1.039  23.705  0.00  0.00    -0.466 OA
BRANCH  24  25
ATOM     25  C   UNL     1       0.829   0.680  23.363  0.00  0.00    +0.139 A 
ATOM     26  C   UNL     1       0.733   0.034  22.859  0.00  0.00    +0.037 A 
ATOM     27  C   UNL     1       1.393  -0.324  22.518  0.00  0.00    +0.003 A 
ATOM     28  C   UNL     1       2.149  -0.037  22.681  0.00  0.00    +0.000 A 
ATOM     29  C   UNL     1       2.245   0.609  23.186  0.00  0.00    +0.003 A 
ATOM     30  C   UNL     1       1.584   0.968  23.527  0.00  0.00    +0.037 A 
ENDBRANCH  24  25
ENDBRANCH  23  24
ENDBRANCH  21  23
TORSDOF 9
ENDMDL
MODEL 6
REMARK VINA RESULT:      -8.4      3.290      5.541
REMARK  Name = 
REMARK  9 active torsions:
REMARK  status: ('A' for Active; 'I' for Inactive)
REMARK    1  A    between atoms: C_2  and  C_4
REMARK    2  A    between atoms: N_8  and  C_9
REMARK    3  A    between atoms: C_9  and  C_10
REMARK    4  A    between atoms: C_10  and  C_11
REMARK    5  A    between atoms: C_16  and  C_17
REMARK    6  A    between atoms: C_17  and  C_18
REMARK    7  A    between atoms: C_21  and  C_23
REMARK    8  A    between atoms: C_23  and  O_24
REMARK    9  A    between atoms: O_24  and  C_25
REMARK                            x       y       z     vdW  Elec       q    Type
REMARK                         _______ _______ _______ _____ _____    ______ ____
ROOT
ATOM     11  C   UNL     1      -0.959   1.130  24.295  0.00  0.00    +0.022 C 
ATOM     12  C   UNL     1      -0.456   0.676  23.825  0.00  0.00    +0.094 C 
ATOM     13  N   UNL     1       0.347   0.862  23.781  0.00  0.00    -0.277 N 
ATOM     14  C   UNL     1       0.647   1.502  24.208  0.00  0.00    +0.094 C 
ATOM     15  C   UNL     1       0.144   1.956  24.678  0.00  0.00    +0.022 C 
ATOM     16  C   UNL     1      -0.659   1.770  24.722  0.00  0.00    +0.015 C 
ATOM     21  C   UNL     1       0.851   0.408  23.311  0.00  0.00    +0.270 C 
ATOM     22  O   UNL     1       0.552  -0.231  22.884  0.00  0.00    -0.271 OA
ENDROOT
BRANCH  11  10
ATOM     10  C   UNL     1      -1.761   0.945  24.338  0.00  0.00    +0.019 C 
BRANCH  10   9
ATOM      9  C   UNL     1      -1.998   0.163  24.456  0.00  0.00    +0.073 C 
BRANCH   9   8
ATOM      4  C   UNL     1      -3.145  -0.723  24.702  0.00  0.00    +0.138 C 
ATOM      5  C   UNL     1      -3.949  -0.701  24.520  0.00  0.00    +0.027 C 
ATOM      6  C   UNL     1      -4.097  -0.003  24.105  0.00  0.00    +0.019 C 
ATOM      7  C   UNL     1      -3.384   0.405  24.031  0.00  0.00    +0.073 C 
ATOM      8  N   UNL     1      -2.795  -0.040  24.400  0.00  0.00    -0.266 NA
BRANCH   4   2
ATOM      1  N   UNL     1      -2.499  -1.998  24.714  0.00  0.00    -0.087 NA
ATOM      2  C   UNL     1      -2.757  -1.325  25.114  0.00  0.00    +0.275 C 
ATOM      3  O   UNL     1      -2.629  -1.252  25.925  0.00  0.00    -0.270 OA
ENDBRANCH   4   2
ENDBRANCH   9   8
ENDBRANCH  10   9
ENDBRANCH  11  10
BRANCH  16  17
ATOM     17  C   UNL     1      -1.163   2.224  25.192  0.00  0.00    +0.114 C 
BRANCH  17  18
ATOM     18  C   UNL     1      -0.862   2.858  25.626  0.00  0.00    +0.365 C 
ATOM     19  O   UNL     1      -0.564   2.733  26.385  0.00  0.00    -0.246 OA
ATOM     20  O   UNL     1      -0.861   3.616  25.302  0.00  0.00    -0.246 OA
ENDBRANCH  17  18
ENDBRANCH  16  17
BRANCH  21  23
ATOM     23  C   UNL     1       1.654   0.594  23.268  0.00  0.00    +0.290 C 
BRANCH  23  24
ATOM     24  O   UNL     1       2.156   0.143  22.793  0.00  0.00    -0.466 OA
BRANCH  24  25
ATOM     25  C   UNL     1       2.974   0.238  22.852  0.00  0.00    +0.139 A 
ATOM     26  C   UNL     1       3.436  -0.358  23.187  0.00  0.00    +0.037 A 
ATOM     27  C   UNL     1       4.252  -0.263  23.245  0.00  0.00    +0.003 A 
ATOM     28  C   UNL     1       4.609   0.428  22.968  0.00  0.00    +0.000 A 
ATOM     29  C   UNL     1       4.147   1.024  22.634  0.00  0.00    +0.003 A 
ATOM     30  C   UNL     1       3.330   0.929  22.575  0.00  0.00    +0.037 A 
ENDBRANCH  24  25
ENDBRANCH  23  24
ENDBRANCH  21  23
TORSDOF 9
ENDMDL
MODEL 7
REMARK VINA RESULT:      -7.5      1.453      2.085
REMARK  Name = 
REMARK  9 active torsions:
REMARK  status: ('A' for Active; 'I' for Inactive)
REMARK    1  A    between atoms: C_2  and  C_4
REMARK    2  A    between atoms: N_8  and  C_9
REMARK    3  A    between atoms: C_9  and  C_10
REMARK    4  A    between atoms: C_10  and  C_11
REMARK    5  A    between atoms: C_16  and  C_17
REMARK    6  A    between atoms: C_17  and  C_18
REMARK    7  A    between atoms: C_21  and  C_23
REMARK    8  A    between atoms: C_23  and  O_24
REMARK    9  A    between atoms: O_24  and  C_25
REMARK                            x       y       z     vdW  Elec       q    Type
REMARK                         _______ _______ _______ _____ _____    ______ ____
ROOT
ATOM     11  C   UNL     1      -2.923   2.219  23.984  0.00  0.00    +0.022 C 
ATOM     12  C   UNL     1      -3.182   1.662  24.534  0.00  0.00    +0.094 C 
ATOM     13  N   UNL     1      -3.454   0.926  24.279  0.00  0.00    -0.277 N 
ATOM     14  C   UNL     1      -3.467   0.747  23.473  0.00  0.00    +0.094 C 
ATOM     15  C   UNL     1      -3.207   1.304  22.923  0.00  0.00    +0.022 C 
ATOM     16  C   UNL     1      -2.935   2.041  23.179  0.00  0.00    +0.015 C 
ATOM     21  C   UNL     1      -3.714   0.368  24.828  0.00  0.00    +0.270 C 
ATOM     22  O   UNL     1      -3.702   0.546  25.634  0.00  0.00    -0.271 OA
ENDROOT
BRANCH  11  10
ATOM     10  C   UNL     1      -2.651   2.954  24.240  0.00  0.00    +0.019 C 
BRANCH  10   9
ATOM      9  C   UNL     1      -2.049   2.999  24.802  0.00  0.00    +0.073 C 
BRANCH   9   8
ATOM      4  C   UNL     1      -0.960   3.865  25.277  0.00  0.00    +0.138 C 
ATOM      5  C   UNL     1      -0.875   4.674  25.413  0.00  0.00    +0.027 C 
ATOM      6  C   UNL     1      -1.591   5.040  25.226  0.00  0.00    +0.019 C 
ATOM      7  C   UNL     1      -2.117   4.457  24.974  0.00  0.00    +0.073 C 
ATOM      8  N   UNL     1      -1.727   3.730  25.006  0.00  0.00    -0.266 NA
BRANCH   4   2
ATOM      1  N   UNL     1      -0.303   2.922  26.127  0.00  0.00    -0.087 NA
ATOM      2  C   UNL     1      -0.378   3.290  25.392  0.00  0.00    +0.275 C 
ATOM      3  O   UNL     1       0.126   3.084  24.774  0.00  0.00    -0.270 OA
ENDBRANCH   4   2
ENDBRANCH   9   8
ENDBRANCH  10   9
ENDBRANCH  11  10
BRANCH  16  17
ATOM     17  C   UNL     1      -2.676   2.598  22.629  0.00  0.00    +0.114 C 
BRANCH  17  18
ATOM     18  C   UNL     1      -2.739   2.442  21.822  0.00  0.00    +0.365 C 
ATOM     19  O   UNL     1      -2.201   1.933  21.457  0.00  0.00    -0.246 OA
ATOM     20  O   UNL     1      -3.339   2.794  21.378  0.00  0.00    -0.246 OA
ENDBRANCH  17  18
ENDBRANCH  16  17
BRANCH  21  23
ATOM     23  C   UNL     1      -3.986  -0.368  24.573  0.00  0.00    +0.290 C 
BRANCH  23  24
ATOM     24  O   UNL     1      -3.981  -1.012  25.089  0.00  0.00    -0.466 OA
BRANCH  24  25
ATOM     25  C   UNL     1      -3.874  -1.775  24.795  0.00  0.00    +0.139 A 
ATOM     26  C   UNL     1      -3.357  -2.294  25.174  0.00  0.00    +0.037 A 
ATOM     27  C   UNL     1      -3.250  -3.057  24.880  0.00  0.00    +0.003 A 
ATOM     28  C   UNL     1      -3.661  -3.302  24.208  0.00  0.00    +0.000 A 
ATOM     29  C   UNL     1      -4.179  -2.783  23.829  0.00  0.00    +0.003 A 
ATOM     30  C   UNL     1      -4.285  -2.019  24.123  0.00  0.00    +0.037 A 
ENDBRANCH  24  25
ENDBRANCH  23  24
ENDBRANCH  21  23
TORSDOF 9
ENDMDL
MODEL 8
REMARK VINA RESULT:      -7.5      2.534      4.511
REMARK  Name = 
REMARK  9 active torsions:
REMARK  status: ('A' for Active; 'I' for Inactive)
REMARK    1  A    between atoms: C_2  and  C_4
REMARK    2  A    between atoms: N_8  and  C_9
REMARK    3  A    between atoms: C_9  and  C_10
REMARK    4  A    between atoms: C_10  and  C_11
REMARK    5  A    between atoms: C_16  and  C_17
REMARK    6  A    between atoms: C_17  and  C_18
REMARK    7  A    between atoms: C_21  and  C_23
REMARK    8  A    between atoms: C_23  and  O_24
REMARK    9  A    between atoms: O_24  and  C_25
REMARK                            x       y       z     vdW  Elec       q    Type
REMARK                         _______ _______ _______ _____ _____    ______ ____
ROOT
ATOM     11  C   UNL     1      -2.138   2.370  24.668  0.00  0.00    +0.022 C 
ATOM     12  C   UNL     1      -1.795   1.682  24.371  0.00  0.00    +0.094 C 
ATOM     13  N   UNL     1      -0.992   1.672  24.177  0.00  0.00    -0.277 N 
ATOM     14  C   UNL     1      -0.534   2.350  24.280  0.00  0.00    +0.094 C 
ATOM     15  C   UNL     1      -0.878   3.038  24.577  0.00  0.00    +0.022 C 
ATOM     16  C   UNL     1      -1.680   3.049  24.771  0.00  0.00    +0.015 C 
ATOM     21  C   UNL     1      -0.648   0.983  23.880  0.00  0.00    +0.270 C 
ATOM     22  O   UNL     1      -1.106   0.305  23.776  0.00  0.00    -0.271 OA
ENDROOT
BRANCH  11  10
ATOM     10  C   UNL     1      -2.940   2.380  24.861  0.00  0.00    +0.019 C 
BRANCH  10   9
ATOM      9  C   UNL     1      -3.389   1.692  24.791  0.00  0.00    +0.073 C 
BRANCH   9   8
ATOM      4  C   UNL     1      -4.709   1.068  24.965  0.00  0.00    +0.138 C 
ATOM      5  C   UNL     1      -5.476   1.347  25.080  0.00  0.00    +0.027 C 
ATOM      6  C   UNL     1      -5.447   2.172  25.093  0.00  0.00    +0.019 C 
ATOM      7  C   UNL     1      -4.662   2.401  24.986  0.00  0.00    +0.073 C 
ATOM      8  N   UNL     1      -4.206   1.718  24.907  0.00  0.00    -0.266 NA
BRANCH   4   2
ATOM      1  N   UNL     1      -4.501  -0.115  24.190  0.00  0.00    -0.087 NA
ATOM      2  C   UNL     1      -4.484   0.275  24.917  0.00  0.00    +0.275 C 
ATOM      3  O   UNL     1      -4.242  -0.127  25.595  0.00  0.00    -0.270 OA
ENDBRANCH   4   2
ENDBRANCH   9   8
ENDBRANCH  10   9
ENDBRANCH  11  10
BRANCH  16  17
ATOM     17  C   UNL     1      -2.024   3.737  25.068  0.00  0.00    +0.114 C 
BRANCH  17  18
ATOM     18  C   UNL     1      -1.562   4.410  25.190  0.00  0.00    +0.365 C 
ATOM     19  O   UNL     1      -1.143   4.499  25.896  0.00  0.00    -0.246 OA
ATOM     20  O   UNL     1      -1.519   4.992  24.608  0.00  0.00    -0.246 OA
ENDBRANCH  17  18
ENDBRANCH  16  17
BRANCH  21  23
ATOM     23  C   UNL     1       0.154   0.973  23.686  0.00  0.00    +0.290 C 
BRANCH  23  24
ATOM     24  O   UNL     1       0.531   0.257  23.527  0.00  0.00    -0.466 OA
BRANCH  24  25
ATOM     25  C   UNL     1       1.256   0.251  23.134  0.00  0.00    +0.139 A 
ATOM     26  C   UNL     1       1.896   0.671  23.442  0.00  0.00    +0.037 A 
ATOM     27  C   UNL     1       2.621   0.665  23.049  0.00  0.00    +0.003 A 
ATOM     28  C   UNL     1       2.707   0.238  22.348  0.00  0.00    +0.000 A 
ATOM     29  C   UNL     1       2.067  -0.182  22.040  0.00  0.00    +0.003 A 
ATOM     30  C   UNL     1       1.342  -0.176  22.433  0.00  0.00    +0.037 A 
ENDBRANCH  24  25
ENDBRANCH  23  24
ENDBRANCH  21  23
TORSDOF 9
ENDMDL
MODEL 9
REMARK VINA RESULT:      -7.2      2.272      4.601
REMARK  Name = 
REMARK  9 active torsions:
REMARK  status: ('A' for Active; 'I' for Inactive)
REMARK    1  A    between atoms: C_2  and  C_4
REMARK    2  A    between atoms: N_8  and  C_9
REMARK    3  A    between atoms: C_9  and  C_10
REMARK    4  A    between atoms: C_10  and  C_11
REMARK    5  A    between atoms: C_16  and  C_17
REMARK    6  A    between atoms: C_17  and  C_18
REMARK    7  A    between atoms: C_21  and  C_23
REMARK    8  A    between atoms: C_23  and  O_24
REMARK    9  A    between atoms: O_24  and  C_25
REMARK                            x       y       z     vdW  Elec       q    Type
REMARK                         _______ _______ _______ _____ _____    ______ ____
ROOT
ATOM     11  C   UNL     1      -1.047   1.830  24.418  0.00  0.00    +0.022 C 
ATOM     12  C   UNL     1      -1.802   1.779  24.091  0.00  0.00    +0.094 C 
ATOM     13  N   UNL     1      -2.421   2.223  24.410  0.00  0.00    -0.277 N 
ATOM     14  C   UNL     1      -2.284   2.717  25.057  0.00  0.00    +0.094 C 
ATOM     15  C   UNL     1      -1.528   2.767  25.384  0.00  0.00    +0.022 C 
ATOM     16  C   UNL     1      -0.910   2.324  25.065  0.00  0.00    +0.015 C 
ATOM     21  C   UNL     1      -3.176   2.172  24.083  0.00  0.00    +0.270 C 
ATOM     22  O   UNL     1      -3.314   1.679  23.437  0.00  0.00    -0.271 OA
ENDROOT
BRANCH  11  10
ATOM     10  C   UNL     1      -0.429   1.387  24.099  0.00  0.00    +0.019 C 
BRANCH  10   9
ATOM      9  C   UNL     1      -0.520   0.575  23.986  0.00  0.00    +0.073 C 
BRANCH   9   8
ATOM      4  C   UNL     1       0.215  -0.672  23.727  0.00  0.00    +0.138 C 
ATOM      5  C   UNL     1       0.875  -0.878  23.276  0.00  0.00    +0.027 C 
ATOM      6  C   UNL     1       1.151  -0.196  22.903  0.00  0.00    +0.019 C 
ATOM      7  C   UNL     1       0.662   0.431  23.124  0.00  0.00    +0.073 C 
ATOM      8  N   UNL     1       0.084   0.136  23.633  0.00  0.00    -0.266 NA
BRANCH   4   2
ATOM      1  N   UNL     1      -0.868  -1.595  23.857  0.00  0.00    -0.087 NA
ATOM      2  C   UNL     1      -0.235  -1.186  24.191  0.00  0.00    +0.275 C 
ATOM      3  O   UNL     1      -0.050  -1.290  24.988  0.00  0.00    -0.270 OA
ENDBRANCH   4   2
ENDBRANCH   9   8
ENDBRANCH  10   9
ENDBRANCH  11  10
BRANCH  16  17
ATOM     17  C   UNL     1      -0.154   2.374  25.392  0.00  0.00    +0.114 C 
BRANCH  17  18
ATOM     18  C   UNL     1      -0.024   2.840  26.060  0.00  0.00    +0.365 C 
ATOM     19  O   UNL     1      -0.029   2.496  26.810  0.00  0.00    -0.246 OA
ATOM     20  O   UNL     1       0.112   3.650  25.979  0.00  0.00    -0.246 OA
ENDBRANCH  17  18
ENDBRANCH  16  17
BRANCH  21  23
ATOM     23  C   UNL     1      -3.795   2.616  24.402  0.00  0.00    +0.290 C 
BRANCH  23  24
ATOM     24  O   UNL     1      -4.577   2.414  24.234  0.00  0.00    -0.466 OA
BRANCH  24  25
ATOM     25  C   UNL     1      -5.155   2.479  24.819  0.00  0.00    +0.139 A 
ATOM     26  C   UNL     1      -5.598   1.818  25.036  0.00  0.00    +0.037 A 
ATOM     27  C   UNL     1      -6.175   1.883  25.621  0.00  0.00    +0.003 A 
ATOM     28  C   UNL     1      -6.311   2.608  25.990  0.00  0.00    +0.000 A 
ATOM     29  C   UNL     1      -5.868   3.270  25.772  0.00  0.00    +0.003 A 
ATOM     30  C   UNL     1      -5.290   3.205  25.187  0.00  0.00    +0.037 A 
ENDBRANCH  24  25
ENDBRANCH  23  24
ENDBRANCH  21  23
TORSDOF 9
ENDMDL
MODEL 10
REMARK VINA RESULT:      -7.1      2.103      4.429
REMARK  Name = 
REMARK  9 active torsions:
REMARK  status: ('A' for Active; 'I' for Inactive)
REMARK    1  A    between atoms: C_2  and  C_4
REMARK    2  A    between atoms: N_8  and  C_9
REMARK    3  A    between atoms: C_9  and  C_10
REMARK    4  A    between atoms: C_10  and  C_11
REMARK    5  A    between atoms: C_16  and  C_17
REMARK    6  A    between atoms: C_17  and  C_18
REMARK    7  A    between atoms: C_21  and  C_23
REMARK    8  A    between atoms: C_23  and  O_24
REMARK    9  A    between atoms: O_24  and  C_25
REMARK                            x       y       z     vdW  Elec       q    Type
REMARK                         _______ _______ _______ _____ _____    ______ ____
ROOT
ATOM     11  C   UNL     1      -1.807  -0.239  24.304  0.00  0.00    +0.022 C 
ATOM     12  C   UNL     1      -2.210   0.472  24.191  0.00  0.00    +0.094 C 
ATOM     13  N   UNL     1      -3.012   0.527  24.378  0.00  0.00    -0.277 N 
ATOM     14  C   UNL     1      -3.411  -0.129  24.679  0.00  0.00    +0.094 C 
ATOM     15  C   UNL     1      -3.009  -0.841  24.793  0.00  0.00    +0.022 C 
ATOM     16  C   UNL     1      -2.207  -0.895  24.605  0.00  0.00    +0.015 C 
ATOM     21  C   UNL     1      -3.414   1.238  24.265  0.00  0.00    +0.270 C 
ATOM     22  O   UNL     1      -3.016   1.894  23.964  0.00  0.00    -0.271 OA
ENDROOT
BRANCH  11  10
ATOM     10  C   UNL     1      -1.006  -0.294  24.117  0.00  0.00    +0.019 C 
BRANCH  10   9
ATOM      9  C   UNL     1      -0.528   0.378  24.154  0.00  0.00    +0.073 C 
BRANCH   9   8
ATOM      4  C   UNL     1       0.750   1.002  23.782  0.00  0.00    +0.138 C 
ATOM      5  C   UNL     1       1.406   0.770  23.340  0.00  0.00    +0.027 C 
ATOM      6  C   UNL     1       1.269   0.005  23.063  0.00  0.00    +0.019 C 
ATOM      7  C   UNL     1       0.528  -0.235  23.334  0.00  0.00    +0.073 C 
ATOM      8  N   UNL     1       0.207   0.382  23.779  0.00  0.00    -0.266 NA
BRANCH   4   2
ATOM      1  N   UNL     1       0.854   1.809  24.958  0.00  0.00    -0.087 NA
ATOM      2  C   UNL     1       0.653   1.730  24.161  0.00  0.00    +0.275 C 
ATOM      3  O   UNL     1       0.356   2.376  23.744  0.00  0.00    -0.270 OA
ENDBRANCH   4   2
ENDBRANCH   9   8
ENDBRANCH  10   9
ENDBRANCH  11  10
BRANCH  16  17
ATOM     17  C   UNL     1      -1.804  -1.606  24.719  0.00  0.00    +0.114 C 
BRANCH  17  18
ATOM     18  C   UNL     1      -2.220  -2.319  24.728  0.00  0.00    +0.365 C 
ATOM     19  O   UNL     1      -2.269  -2.775  24.042  0.00  0.00    -0.246 OA
ATOM     20  O   UNL     1      -2.585  -2.576  25.421  0.00  0.00    -0.246 OA
ENDBRANCH  17  18
ENDBRANCH  16  17
BRANCH  21  23
ATOM     23  C   UNL     1      -4.216   1.293  24.452  0.00  0.00    +0.290 C 
BRANCH  23  24
ATOM     24  O   UNL     1      -4.606   2.017  24.391  0.00  0.00    -0.466 OA
BRANCH  24  25
ATOM     25  C   UNL     1      -5.215   2.204  24.915  0.00  0.00    +0.139 A 
ATOM     26  C   UNL     1      -5.143   2.855  25.416  0.00  0.00    +0.037 A 
ATOM     27  C   UNL     1      -5.752   3.041  25.940  0.00  0.00    +0.003 A 
ATOM     28  C   UNL     1      -6.434   2.577  25.962  0.00  0.00    +0.000 A 
ATOM     29  C   UNL     1      -6.506   1.926  25.460  0.00  0.00    +0.003 A 
ATOM     30  C   UNL     1      -5.897   1.739  24.936  0.00  0.00    +0.037 A 
ENDBRANCH  24  25
ENDBRANCH  23  24
ENDBRANCH  21  23
TORSDOF 9
ENDMDL
