MODEL 1
REMARK VINA RESULT:     -10.2      0.000      0.000
REMARK  Name = 
REMARK  6 active torsions:
REMARK  status: ('A' for Active; 'I' for Inactive)
REMARK    1  A    between atoms: C_2  and  C_4
REMARK    2  A    between atoms: C_6  and  C_7
REMARK    3  A    between atoms: C_7  and  C_8
REMARK    4  A    between atoms: C_11  and  C_13
REMARK    5  A    between atoms: C_22  and  C_23
REMARK    6  A    between atoms: C_23  and  N_24
REMARK                            x       y       z     vdW  Elec       q    Type
REMARK                         _______ _______ _______ _____ _____    ______ ____
ROOT
ATOM      4  C   UNL     1      -4.929   1.583  24.782  0.00  0.00    +0.006 C 
ATOM      5  C   UNL     1      -4.647   2.288  24.460  0.00  0.00    +0.005 C 
ATOM      6  C   UNL     1      -4.013   2.274  23.931  0.00  0.00    +0.027 C 
ATOM     19  C   UNL     1      -3.664   1.556  23.724  0.00  0.00    -0.048 C 
ATOM     20  C   UNL     1      -3.031   1.543  23.195  0.00  0.00    +0.026 C 
ATOM     21  C   UNL     1      -3.947   0.851  24.046  0.00  0.00    -0.034 C 
ATOM     22  C   UNL     1      -4.580   0.865  24.575  0.00  0.00    +0.037 C 
ENDROOT
BRANCH   4   2
ATOM      1  C   UNL     1      -6.336   1.537  25.029  0.00  0.00    +0.000 C 
ATOM      2  C   UNL     1      -5.562   1.597  25.311  0.00  0.00    +0.000 C 
ATOM      3  C   UNL     1      -5.422   1.671  26.120  0.00  0.00    +0.000 C 
ENDBRANCH   4   2
BRANCH   6   7
ATOM      7  C   UNL     1      -3.730   2.979  23.609  0.00  0.00    +0.091 C 
BRANCH   7   8
ATOM      8  C   UNL     1      -3.306   3.506  24.079  0.00  0.00    +0.227 A 
ATOM      9  N   UNL     1      -3.628   4.107  24.546  0.00  0.00    -0.111 NA
ATOM     10  N   UNL     1      -3.006   4.498  24.921  0.00  0.00    -0.106 NA
ATOM     11  C   UNL     1      -2.301   4.140  24.687  0.00  0.00    +0.267 A 
ATOM     12  O   UNL     1      -2.487   3.527  24.167  0.00  0.00    -0.418 OA
BRANCH  11  13
ATOM     13  C   UNL     1      -1.543   4.357  24.930  0.00  0.00    +0.136 A 
ATOM     14  C   UNL     1      -1.134   5.034  24.697  0.00  0.00    +0.123 A 
ATOM     15  N   UNL     1      -0.399   5.030  25.072  0.00  0.00    -0.222 NA
ATOM     16  C   UNL     1      -0.354   4.350  25.537  0.00  0.00    +0.179 A 
ATOM     17  N   UNL     1      -1.061   3.934  25.449  0.00  0.00    -0.303 N 
ATOM     18  C   UNL     1      -1.252   3.221  25.817  0.00  0.00    +0.132 C 
ENDBRANCH  11  13
ENDBRANCH   7   8
ENDBRANCH   6   7
BRANCH  22  23
ATOM     23  C   UNL     1      -4.863   0.161  24.897  0.00  0.00    +0.076 C 
BRANCH  23  24
ATOM     24  N   UNL     1      -4.411  -0.529  24.844  0.00  0.00    -0.269 NA
ATOM     25  C   UNL     1      -4.533  -1.053  24.218  0.00  0.00    +0.094 C 
ATOM     26  C   UNL     1      -4.081  -1.742  24.165  0.00  0.00    +0.111 C 
ATOM     27  N   UNL     1      -3.509  -1.906  24.737  0.00  0.00    -0.277 N 
ATOM     28  C   UNL     1      -3.389  -1.381  25.362  0.00  0.00    +0.111 C 
ATOM     29  C   UNL     1      -3.840  -0.693  25.415  0.00  0.00    +0.094 C 
ATOM     30  C   UNL     1      -3.059  -2.594  24.683  0.00  0.00    +0.226 C 
ATOM     31  C   UNL     1      -3.179  -3.119  24.058  0.00  0.00    +0.095 C 
ATOM     32  O   UNL     1      -2.487  -2.759  25.255  0.00  0.00    -0.275 OA
ENDBRANCH  23  24
ENDBRANCH  22  23
TORSDOF 6
ENDMDL
MODEL 2
REMARK VINA RESULT:      -9.6      2.185      3.967
REMARK  Name = 
REMARK  6 active torsions:
REMARK  status: ('A' for Active; 'I' for Inactive)
REMARK    1  A    between atoms: C_2  and  C_4
REMARK    2  A    between atoms: C_6  and  C_7
REMARK    3  A    between atoms: C_7  and  C_8
REMARK    4  A    between atoms: C_11  and  C_13
REMARK    5  A    between atoms: C_22  and  C_23
REMARK    6  A    between atoms: C_23  and  N_24
REMARK                            x       y       z     vdW  Elec       q    Type
REMARK                         _______ _______ _______ _____ _____    ______ ____
ROOT
ATOM      4  C   UNL     1      -1.745   3.187  24.784  0.00  0.00    +0.006 C 
ATOM      5  C   UNL     1      -2.488   3.487  24.589  0.00  0.00    +0.005 C 
ATOM      6  C   UNL     1      -2.950   3.107  24.019  0.00  0.00    +0.027 C 
ATOM     19  C   UNL     1      -2.668   2.428  23.646  0.00  0.00    -0.048 C 
ATOM     20  C   UNL     1      -3.129   2.049  23.077  0.00  0.00    +0.026 C 
ATOM     21  C   UNL     1      -1.924   2.128  23.842  0.00  0.00    -0.034 C 
ATOM     22  C   UNL     1      -1.463   2.507  24.410  0.00  0.00    +0.037 C 
ENDROOT
BRANCH   4   2
ATOM      1  C   UNL     1      -1.396   3.397  26.153  0.00  0.00    +0.000 C 
ATOM      2  C   UNL     1      -1.284   3.566  25.353  0.00  0.00    +0.000 C 
ATOM      3  C   UNL     1      -0.713   4.114  25.123  0.00  0.00    +0.000 C 
ENDBRANCH   4   2
BRANCH   6   7
ATOM      7  C   UNL     1      -3.693   3.408  23.825  0.00  0.00    +0.091 C 
BRANCH   7   8
ATOM      8  C   UNL     1      -4.290   3.431  24.392  0.00  0.00    +0.227 A 
ATOM      9  N   UNL     1      -4.645   4.113  24.693  0.00  0.00    -0.111 NA
ATOM     10  N   UNL     1      -5.213   3.881  25.246  0.00  0.00    -0.106 NA
ATOM     11  C   UNL     1      -5.208   3.057  25.286  0.00  0.00    +0.267 A 
ATOM     12  O   UNL     1      -4.637   2.779  24.758  0.00  0.00    -0.418 OA
BRANCH  11  13
ATOM     13  C   UNL     1      -5.688   2.591  25.769  0.00  0.00    +0.136 A 
ATOM     14  C   UNL     1      -5.733   2.632  26.592  0.00  0.00    +0.123 A 
ATOM     15  N   UNL     1      -6.281   2.069  26.846  0.00  0.00    -0.222 NA
ATOM     16  C   UNL     1      -6.574   1.682  26.180  0.00  0.00    +0.179 A 
ATOM     17  N   UNL     1      -6.208   2.004  25.514  0.00  0.00    -0.303 N 
ATOM     18  C   UNL     1      -6.339   1.779  24.732  0.00  0.00    +0.132 C 
ENDBRANCH  11  13
ENDBRANCH   7   8
ENDBRANCH   6   7
BRANCH  22  23
ATOM     23  C   UNL     1      -0.720   2.208  24.606  0.00  0.00    +0.076 C 
BRANCH  23  24
ATOM     24  N   UNL     1      -0.580   1.395  24.566  0.00  0.00    -0.269 NA
ATOM     25  C   UNL     1      -0.862   0.899  25.163  0.00  0.00    +0.094 C 
ATOM     26  C   UNL     1      -0.721   0.086  25.124  0.00  0.00    +0.111 C 
ATOM     27  N   UNL     1      -0.299  -0.230  24.488  0.00  0.00    -0.277 N 
ATOM     28  C   UNL     1      -0.018   0.267  23.893  0.00  0.00    +0.111 C 
ATOM     29  C   UNL     1      -0.158   1.079  23.932  0.00  0.00    +0.094 C 
ATOM     30  C   UNL     1      -0.159  -1.041  24.449  0.00  0.00    +0.226 C 
ATOM     31  C   UNL     1      -0.441  -1.538  25.045  0.00  0.00    +0.095 C 
ATOM     32  O   UNL     1       0.263  -1.357  23.815  0.00  0.00    -0.275 OA
ENDBRANCH  23  24
ENDBRANCH  22  23
TORSDOF 6
ENDMDL
MODEL 3
REMARK VINA RESULT:      -9.5      1.228      4.918
REMARK  Name = 
REMARK  6 active torsions:
REMARK  status: ('A' for Active; 'I' for Inactive)
REMARK    1  A    between atoms: C_2  and  C_4
REMARK    2  A    between atoms: C_6  and  C_7
REMARK    3  A    between atoms: C_7  and  C_8
REMARK    4  A    between atoms: C_11  and  C_13
REMARK    5  A    between atoms: C_22  and  C_23
REMARK    6  A    between atoms: C_23  and  N_24
REMARK                            x       y       z     vdW  Elec       q    Type
REMARK                         _______ _______ _______ _____ _____    ______ ____
ROOT
ATOM      4  C   UNL     1      -4.752   1.600  24.787  0.00  0.00    +0.006 C 
ATOM      5  C   UNL     1      -4.663   0.848  24.458  0.00  0.00    +0.005 C 
ATOM      6  C   UNL     1      -4.057   0.704  23.916  0.00  0.00    +0.027 C 
ATOM     19  C   UNL     1      -3.540   1.311  23.704  0.00  0.00    -0.048 C 
ATOM     20  C   UNL     1      -2.935   1.167  23.163  0.00  0.00    +0.026 C 
ATOM     21  C   UNL     1      -3.630   2.063  24.033  0.00  0.00    -0.034 C 
ATOM     22  C   UNL     1      -4.235   2.207  24.574  0.00  0.00    +0.037 C 
ENDROOT
BRANCH   4   2
ATOM      1  C   UNL     1      -6.082   2.040  25.066  0.00  0.00    +0.000 C 
ATOM      2  C   UNL     1      -5.357   1.743  25.328  0.00  0.00    +0.000 C 
ATOM      3  C   UNL     1      -5.240   1.590  26.129  0.00  0.00    +0.000 C 
ENDBRANCH   4   2
BRANCH   6   7
ATOM      7  C   UNL     1      -3.968  -0.047  23.588  0.00  0.00    +0.091 C 
BRANCH   7   8
ATOM      8  C   UNL     1      -3.626  -0.653  24.030  0.00  0.00    +0.227 A 
ATOM      9  N   UNL     1      -4.031  -1.205  24.492  0.00  0.00    -0.111 NA
ATOM     10  N   UNL     1      -3.474  -1.707  24.836  0.00  0.00    -0.106 NA
ATOM     11  C   UNL     1      -2.725  -1.466  24.587  0.00  0.00    +0.267 A 
ATOM     12  O   UNL     1      -2.819  -0.814  24.089  0.00  0.00    -0.418 OA
BRANCH  11  13
ATOM     13  C   UNL     1      -2.008  -1.814  24.799  0.00  0.00    +0.136 A 
ATOM     14  C   UNL     1      -1.715  -2.531  24.514  0.00  0.00    +0.123 A 
ATOM     15  N   UNL     1      -0.983  -2.667  24.872  0.00  0.00    -0.222 NA
ATOM     16  C   UNL     1      -0.825  -2.035  25.377  0.00  0.00    +0.179 A 
ATOM     17  N   UNL     1      -1.459  -1.508  25.332  0.00  0.00    -0.303 N 
ATOM     18  C   UNL     1      -1.529  -0.799  25.748  0.00  0.00    +0.132 C 
ENDBRANCH  11  13
ENDBRANCH   7   8
ENDBRANCH   6   7
BRANCH  22  23
ATOM     23  C   UNL     1      -4.325   2.958  24.903  0.00  0.00    +0.076 C 
BRANCH  23  24
ATOM     24  N   UNL     1      -3.673   3.461  24.966  0.00  0.00    -0.269 NA
ATOM     25  C   UNL     1      -3.582   4.086  24.435  0.00  0.00    +0.094 C 
ATOM     26  C   UNL     1      -2.931   4.589  24.497  0.00  0.00    +0.111 C 
ATOM     27  N   UNL     1      -2.371   4.467  25.091  0.00  0.00    -0.277 N 
ATOM     28  C   UNL     1      -2.462   3.841  25.621  0.00  0.00    +0.111 C 
ATOM     29  C   UNL     1      -3.113   3.338  25.558  0.00  0.00    +0.094 C 
ATOM     30  C   UNL     1      -1.720   4.969  25.154  0.00  0.00    +0.226 C 
ATOM     31  C   UNL     1      -1.629   5.595  24.623  0.00  0.00    +0.095 C 
ATOM     32  O   UNL     1      -1.160   4.847  25.747  0.00  0.00    -0.275 OA
ENDBRANCH  23  24
ENDBRANCH  22  23
TORSDOF 6
ENDMDL
MODEL 4
REMARK VINA RESULT:      -9.5      2.428      3.740
REMARK  Name = 
REMARK  6 active torsions:
REMARK  status: ('A' for Active; 'I' for Inactive)
REMARK    1  A    between atoms: C_2  and  C_4
REMARK    2  A    between atoms: C_6  and  C_7
REMARK    3  A    between atoms: C_7  and  C_8
REMARK    4  A    between atoms: C_11  and  C_13
REMARK    5  A    between atoms: C_22  and  C_23
REMARK    6  A    between atoms: C_23  and  N_24
REMARK                            x       y       z     vdW  Elec       q    Type
REMARK                         _______ _______ _______ _____ _____    ______ ____
ROOT
ATOM      4  C   UNL     1      -3.166  -0.709  25.133  0.00  0.00    +0.006 C 
ATOM      5  C   UNL     1      -3.892  -0.346  24.987  0.00  0.00    +0.005 C 
ATOM      6  C   UNL     1      -3.957   0.220  24.389  0.00  0.00    +0.027 C 
ATOM     19  C   UNL     1      -3.296   0.422  23.938  0.00  0.00    -0.048 C 
ATOM     20  C   UNL     1      -3.361   0.986  23.341  0.00  0.00    +0.026 C 
ATOM     21  C   UNL     1      -2.570   0.058  24.086  0.00  0.00    -0.034 C 
ATOM     22  C   UNL     1      -2.505  -0.506  24.683  0.00  0.00    +0.037 C 
ENDROOT
BRANCH   4   2
ATOM      1  C   UNL     1      -3.305  -2.059  25.579  0.00  0.00    +0.000 C 
ATOM      2  C   UNL     1      -3.101  -1.273  25.731  0.00  0.00    +0.000 C 
ATOM      3  C   UNL     1      -2.834  -1.054  26.479  0.00  0.00    +0.000 C 
ENDBRANCH   4   2
BRANCH   6   7
ATOM      7  C   UNL     1      -4.683   0.582  24.242  0.00  0.00    +0.091 C 
BRANCH   7   8
ATOM      8  C   UNL     1      -4.978   1.143  24.769  0.00  0.00    +0.227 A 
ATOM      9  N   UNL     1      -5.420   0.985  25.448  0.00  0.00    -0.111 NA
ATOM     10  N   UNL     1      -5.599   1.705  25.809  0.00  0.00    -0.106 NA
ATOM     11  C   UNL     1      -5.268   2.308  25.353  0.00  0.00    +0.267 A 
ATOM     12  O   UNL     1      -4.885   1.960  24.710  0.00  0.00    -0.418 OA
BRANCH  11  13
ATOM     13  C   UNL     1      -5.313   3.116  25.512  0.00  0.00    +0.136 A 
ATOM     14  C   UNL     1      -5.994   3.580  25.478  0.00  0.00    +0.123 A 
ATOM     15  N   UNL     1      -5.786   4.353  25.677  0.00  0.00    -0.222 NA
ATOM     16  C   UNL     1      -4.977   4.367  25.834  0.00  0.00    +0.179 A 
ATOM     17  N   UNL     1      -4.684   3.602  25.732  0.00  0.00    -0.303 N 
ATOM     18  C   UNL     1      -3.900   3.367  25.833  0.00  0.00    +0.132 C 
ENDBRANCH  11  13
ENDBRANCH   7   8
ENDBRANCH   6   7
BRANCH  22  23
ATOM     23  C   UNL     1      -1.779  -0.869  24.830  0.00  0.00    +0.076 C 
BRANCH  23  24
ATOM     24  N   UNL     1      -1.097  -0.595  24.454  0.00  0.00    -0.269 NA
ATOM     25  C   UNL     1      -0.782  -1.013  23.816  0.00  0.00    +0.094 C 
ATOM     26  C   UNL     1      -0.101  -0.739  23.440  0.00  0.00    +0.111 C 
ATOM     27  N   UNL     1       0.267  -0.048  23.703  0.00  0.00    -0.277 N 
ATOM     28  C   UNL     1      -0.049   0.369  24.341  0.00  0.00    +0.111 C 
ATOM     29  C   UNL     1      -0.731   0.095  24.717  0.00  0.00    +0.094 C 
ATOM     30  C   UNL     1       0.947   0.225  23.328  0.00  0.00    +0.226 C 
ATOM     31  C   UNL     1       1.263  -0.192  22.689  0.00  0.00    +0.095 C 
ATOM     32  O   UNL     1       1.314   0.916  23.590  0.00  0.00    -0.275 OA
ENDBRANCH  23  24
ENDBRANCH  22  23
TORSDOF 6
ENDMDL
MODEL 5
REMARK VINA RESULT:      -9.4      3.221      4.533
REMARK  Name = 
REMARK  6 active torsions:
REMARK  status: ('A' for Active; 'I' for Inactive)
REMARK    1  A    between atoms: C_2  and  C_4
REMARK    2  A    between atoms: C_6  and  C_7
REMARK    3  A    between atoms: C_7  and  C_8
REMARK    4  A    between atoms: C_11  and  C_13
REMARK    5  A    between atoms: C_22  and  C_23
REMARK    6  A    between atoms: C_23  and  N_24
REMARK                            x       y       z     vdW  Elec       q    Type
REMARK                         _______ _______ _______ _____ _____    ______ ____
ROOT
ATOM      4  C   UNL     1      -1.354   0.618  24.766  0.00  0.00    +0.006 C 
ATOM      5  C   UNL     1      -1.765   1.308  24.955  0.00  0.00    +0.005 C 
ATOM      6  C   UNL     1      -1.502   2.036  24.668  0.00  0.00    +0.027 C 
ATOM     19  C   UNL     1      -0.828   2.074  24.193  0.00  0.00    -0.048 C 
ATOM     20  C   UNL     1      -0.566   2.801  23.907  0.00  0.00    +0.026 C 
ATOM     21  C   UNL     1      -0.418   1.383  24.005  0.00  0.00    -0.034 C 
ATOM     22  C   UNL     1      -0.680   0.656  24.291  0.00  0.00    +0.037 C 
ENDROOT
BRANCH   4   2
ATOM      1  C   UNL     1      -1.358  -0.380  25.788  0.00  0.00    +0.000 C 
ATOM      2  C   UNL     1      -1.617  -0.109  25.053  0.00  0.00    +0.000 C 
ATOM      3  C   UNL     1      -2.138  -0.565  24.606  0.00  0.00    +0.000 C 
ENDBRANCH   4   2
BRANCH   6   7
ATOM      7  C   UNL     1      -1.913   2.726  24.857  0.00  0.00    +0.091 C 
BRANCH   7   8
ATOM      8  C   UNL     1      -2.724   2.774  24.718  0.00  0.00    +0.227 A 
ATOM      9  N   UNL     1      -3.084   2.889  23.984  0.00  0.00    -0.111 NA
ATOM     10  N   UNL     1      -3.901   2.902  24.100  0.00  0.00    -0.106 NA
ATOM     11  C   UNL     1      -4.045   2.795  24.905  0.00  0.00    +0.267 A 
ATOM     12  O   UNL     1      -3.318   2.716  25.287  0.00  0.00    -0.418 OA
BRANCH  11  13
ATOM     13  C   UNL     1      -4.787   2.772  25.266  0.00  0.00    +0.136 A 
ATOM     14  C   UNL     1      -5.132   3.380  25.705  0.00  0.00    +0.123 A 
ATOM     15  N   UNL     1      -5.872   3.120  25.962  0.00  0.00    -0.222 NA
ATOM     16  C   UNL     1      -5.984   2.352  25.682  0.00  0.00    +0.179 A 
ATOM     17  N   UNL     1      -5.313   2.137  25.252  0.00  0.00    -0.303 N 
ATOM     18  C   UNL     1      -5.191   1.414  24.874  0.00  0.00    +0.132 C 
ENDBRANCH  11  13
ENDBRANCH   7   8
ENDBRANCH   6   7
BRANCH  22  23
ATOM     23  C   UNL     1      -0.270  -0.034  24.103  0.00  0.00    +0.076 C 
BRANCH  23  24
ATOM     24  N   UNL     1       0.399   0.003  23.620  0.00  0.00    -0.269 NA
ATOM     25  C   UNL     1       1.113   0.284  23.925  0.00  0.00    +0.094 C 
ATOM     26  C   UNL     1       1.781   0.320  23.443  0.00  0.00    +0.111 C 
ATOM     27  N   UNL     1       1.736   0.076  22.656  0.00  0.00    -0.277 N 
ATOM     28  C   UNL     1       1.023  -0.205  22.352  0.00  0.00    +0.111 C 
ATOM     29  C   UNL     1       0.354  -0.241  22.834  0.00  0.00    +0.094 C 
ATOM     30  C   UNL     1       2.404   0.112  22.174  0.00  0.00    +0.226 C 
ATOM     31  C   UNL     1       3.118   0.393  22.479  0.00  0.00    +0.095 C 
ATOM     32  O   UNL     1       2.360  -0.132  21.388  0.00  0.00    -0.275 OA
ENDBRANCH  23  24
ENDBRANCH  22  23
TORSDOF 6
ENDMDL
MODEL 6
REMARK VINA RESULT:      -9.4      2.127      5.027
REMARK  Name = 
REMARK  6 active torsions:
REMARK  status: ('A' for Active; 'I' for Inactive)
REMARK    1  A    between atoms: C_2  and  C_4
REMARK    2  A    between atoms: C_6  and  C_7
REMARK    3  A    between atoms: C_7  and  C_8
REMARK    4  A    between atoms: C_11  and  C_13
REMARK    5  A    between atoms: C_22  and  C_23
REMARK    6  A    between atoms: C_23  and  N_24
REMARK                            x       y       z     vdW  Elec       q    Type
REMARK                         _______ _______ _______ _____ _____    ______ ____
ROOT
ATOM      4  C   UNL     1      -1.268   2.899  24.777  0.00  0.00    +0.006 C 
ATOM      5  C   UNL     1      -0.879   2.337  24.315  0.00  0.00    +0.005 C 
ATOM      6  C   UNL     1      -1.282   1.955  23.704  0.00  0.00    +0.027 C 
ATOM     19  C   UNL     1      -2.074   2.135  23.556  0.00  0.00    -0.048 C 
ATOM     20  C   UNL     1      -2.476   1.754  22.946  0.00  0.00    +0.026 C 
ATOM     21  C   UNL     1      -2.462   2.697  24.018  0.00  0.00    -0.034 C 
ATOM     22  C   UNL     1      -2.060   3.079  24.629  0.00  0.00    +0.037 C 
ENDROOT
BRANCH   4   2
ATOM      1  C   UNL     1      -0.580   4.047  25.276  0.00  0.00    +0.000 C 
ATOM      2  C   UNL     1      -0.865   3.280  25.387  0.00  0.00    +0.000 C 
ATOM      3  C   UNL     1      -0.747   2.896  26.107  0.00  0.00    +0.000 C 
ENDBRANCH   4   2
BRANCH   6   7
ATOM      7  C   UNL     1      -0.893   1.393  23.242  0.00  0.00    +0.091 C 
BRANCH   7   8
ATOM      8  C   UNL     1      -0.656   0.677  23.575  0.00  0.00    +0.227 A 
ATOM      9  N   UNL     1       0.122   0.422  23.672  0.00  0.00    -0.111 NA
ATOM     10  N   UNL     1       0.104  -0.323  24.027  0.00  0.00    -0.106 NA
ATOM     11  C   UNL     1      -0.686  -0.528  24.149  0.00  0.00    +0.267 A 
ATOM     12  O   UNL     1      -1.156   0.091  23.870  0.00  0.00    -0.418 OA
BRANCH  11  13
ATOM     13  C   UNL     1      -0.958  -1.227  24.491  0.00  0.00    +0.136 A 
ATOM     14  C   UNL     1      -1.164  -1.916  24.086  0.00  0.00    +0.123 A 
ATOM     15  N   UNL     1      -1.406  -2.476  24.642  0.00  0.00    -0.222 NA
ATOM     16  C   UNL     1      -1.350  -2.133  25.390  0.00  0.00    +0.179 A 
ATOM     17  N   UNL     1      -1.073  -1.361  25.297  0.00  0.00    -0.303 N 
ATOM     18  C   UNL     1      -0.935  -0.819  25.903  0.00  0.00    +0.132 C 
ENDBRANCH  11  13
ENDBRANCH   7   8
ENDBRANCH   6   7
BRANCH  22  23
ATOM     23  C   UNL     1      -2.448   3.640  25.091  0.00  0.00    +0.076 C 
BRANCH  23  24
ATOM     24  N   UNL     1      -3.257   3.566  25.238  0.00  0.00    -0.269 NA
ATOM     25  C   UNL     1      -3.538   2.930  25.682  0.00  0.00    +0.094 C 
ATOM     26  C   UNL     1      -4.346   2.855  25.829  0.00  0.00    +0.111 C 
ATOM     27  N   UNL     1      -4.874   3.417  25.532  0.00  0.00    -0.277 N 
ATOM     28  C   UNL     1      -4.592   4.052  25.089  0.00  0.00    +0.111 C 
ATOM     29  C   UNL     1      -3.783   4.127  24.941  0.00  0.00    +0.094 C 
ATOM     30  C   UNL     1      -5.681   3.342  25.679  0.00  0.00    +0.226 C 
ATOM     31  C   UNL     1      -5.963   2.706  26.124  0.00  0.00    +0.095 C 
ATOM     32  O   UNL     1      -6.208   3.903  25.383  0.00  0.00    -0.275 OA
ENDBRANCH  23  24
ENDBRANCH  22  23
TORSDOF 6
ENDMDL
MODEL 7
REMARK VINA RESULT:      -9.2      3.013      4.640
REMARK  Name = 
REMARK  6 active torsions:
REMARK  status: ('A' for Active; 'I' for Inactive)
REMARK    1  A    between atoms: C_2  and  C_4
REMARK    2  A    between atoms: C_6  and  C_7
REMARK    3  A    between atoms: C_7  and  C_8
REMARK    4  A    between atoms: C_11  and  C_13
REMARK    5  A    between atoms: C_22  and  C_23
REMARK    6  A    between atoms: C_23  and  N_24
REMARK                            x       y       z     vdW  Elec       q    Type
REMARK                         _______ _______ _______ _____ _____    ______ ____
ROOT
ATOM      4  C   UNL     1      -2.983  -0.136  24.545  0.00  0.00    +0.006 C 
ATOM      5  C   UNL     1      -2.191  -0.264  24.735  0.00  0.00    +0.005 C 
ATOM      6  C   UNL     1      -1.713   0.372  24.957  0.00  0.00    +0.027 C 
ATOM     19  C   UNL     1      -2.028   1.134  24.989  0.00  0.00    -0.048 C 
ATOM     20  C   UNL     1      -1.551   1.768  25.211  0.00  0.00    +0.026 C 
ATOM     21  C   UNL     1      -2.821   1.260  24.799  0.00  0.00    -0.034 C 
ATOM     22  C   UNL     1      -3.298   0.625  24.577  0.00  0.00    +0.037 C 
ENDROOT
BRANCH   4   2
ATOM      1  C   UNL     1      -3.754  -1.287  24.898  0.00  0.00    +0.000 C 
ATOM      2  C   UNL     1      -3.460  -0.772  24.323  0.00  0.00    +0.000 C 
ATOM      3  C   UNL     1      -3.644  -0.892  23.529  0.00  0.00    +0.000 C 
ENDBRANCH   4   2
BRANCH   6   7
ATOM      7  C   UNL     1      -0.920   0.245  25.147  0.00  0.00    +0.091 C 
BRANCH   7   8
ATOM      8  C   UNL     1      -0.426  -0.145  24.614  0.00  0.00    +0.227 A 
ATOM      9  N   UNL     1      -0.240  -0.949  24.625  0.00  0.00    -0.111 NA
ATOM     10  N   UNL     1       0.271  -1.100  23.994  0.00  0.00    -0.106 NA
ATOM     11  C   UNL     1       0.400  -0.390  23.595  0.00  0.00    +0.267 A 
ATOM     12  O   UNL     1      -0.030   0.200  23.978  0.00  0.00    -0.418 OA
BRANCH  11  13
ATOM     13  C   UNL     1       0.876  -0.288  22.929  0.00  0.00    +0.136 A 
ATOM     14  C   UNL     1       0.722  -0.580  22.173  0.00  0.00    +0.123 A 
ATOM     15  N   UNL     1       1.341  -0.348  21.679  0.00  0.00    -0.222 NA
ATOM     16  C   UNL     1       1.878   0.087  22.129  0.00  0.00    +0.179 A 
ATOM     17  N   UNL     1       1.591   0.124  22.902  0.00  0.00    -0.303 N 
ATOM     18  C   UNL     1       1.954   0.506  23.536  0.00  0.00    +0.132 C 
ENDBRANCH  11  13
ENDBRANCH   7   8
ENDBRANCH   6   7
BRANCH  22  23
ATOM     23  C   UNL     1      -4.091   0.752  24.387  0.00  0.00    +0.076 C 
BRANCH  23  24
ATOM     24  N   UNL     1      -4.492   1.402  24.701  0.00  0.00    -0.269 NA
ATOM     25  C   UNL     1      -4.423   2.142  24.342  0.00  0.00    +0.094 C 
ATOM     26  C   UNL     1      -4.823   2.791  24.656  0.00  0.00    +0.111 C 
ATOM     27  N   UNL     1      -5.293   2.701  25.329  0.00  0.00    -0.277 N 
ATOM     28  C   UNL     1      -5.361   1.961  25.687  0.00  0.00    +0.111 C 
ATOM     29  C   UNL     1      -4.961   1.312  25.373  0.00  0.00    +0.094 C 
ATOM     30  C   UNL     1      -5.693   3.349  25.642  0.00  0.00    +0.226 C 
ATOM     31  C   UNL     1      -5.624   4.090  25.283  0.00  0.00    +0.095 C 
ATOM     32  O   UNL     1      -6.162   3.260  26.314  0.00  0.00    -0.275 OA
ENDBRANCH  23  24
ENDBRANCH  22  23
TORSDOF 6
ENDMDL
MODEL 8
REMARK VINA RESULT:      -6.6     14.267     16.695
REMARK  Name = 
REMARK  6 active torsions:
REMARK  status: ('A' for Active; 'I' for Inactive)
REMARK    1  A    between atoms: C_2  and  C_4
REMARK    2  A    between atoms: C_6  and  C_7
REMARK    3  A    between atoms: C_7  and  C_8
REMARK    4  A    between atoms: C_11  and  C_13
REMARK    5  A    between atoms: C_22  and  C_23
REMARK    6  A    between atoms: C_23  and  N_24
REMARK                            x       y       z     vdW  Elec       q    Type
REMARK                         _______ _______ _______ _____ _____    ______ ____
ROOT
ATOM      4  C   UNL     1      -6.609 -10.217  13.350  0.00  0.00    +0.006 C 
ATOM      5  C   UNL     1      -6.337 -10.455  14.092  0.00  0.00    +0.005 C 
ATOM      6  C   UNL     1      -5.527 -10.543  14.225  0.00  0.00    +0.027 C 
ATOM     19  C   UNL     1      -4.990 -10.394  13.616  0.00  0.00    -0.048 C 
ATOM     20  C   UNL     1      -4.181 -10.483  13.749  0.00  0.00    +0.026 C 
ATOM     21  C   UNL     1      -5.263 -10.157  12.875  0.00  0.00    -0.034 C 
ATOM     22  C   UNL     1      -6.072 -10.068  12.742  0.00  0.00    +0.037 C 
ENDROOT
BRANCH   4   2
ATOM      1  C   UNL     1      -7.769  -9.385  13.294  0.00  0.00    +0.000 C 
ATOM      2  C   UNL     1      -7.418 -10.128  13.218  0.00  0.00    +0.000 C 
ATOM      3  C   UNL     1      -7.876 -10.781  13.011  0.00  0.00    +0.000 C 
ENDBRANCH   4   2
BRANCH   6   7
ATOM      7  C   UNL     1      -5.255 -10.781  14.966  0.00  0.00    +0.091 C 
BRANCH   7   8
ATOM      8  C   UNL     1      -5.535 -10.411  15.647  0.00  0.00    +0.227 A 
ATOM      9  N   UNL     1      -5.311  -9.666  15.921  0.00  0.00    -0.111 NA
ATOM     10  N   UNL     1      -5.727  -9.515  16.618  0.00  0.00    -0.106 NA
ATOM     11  C   UNL     1      -6.209 -10.166  16.774  0.00  0.00    +0.267 A 
ATOM     12  O   UNL     1      -6.090 -10.720  16.173  0.00  0.00    -0.418 OA
BRANCH  11  13
ATOM     13  C   UNL     1      -6.719 -10.250  17.416  0.00  0.00    +0.136 A 
ATOM     14  C   UNL     1      -6.610 -10.755  18.060  0.00  0.00    +0.123 A 
ATOM     15  N   UNL     1      -7.252 -10.660  18.570  0.00  0.00    -0.222 NA
ATOM     16  C   UNL     1      -7.758 -10.097  18.241  0.00  0.00    +0.179 A 
ATOM     17  N   UNL     1      -7.428  -9.844  17.528  0.00  0.00    -0.303 N 
ATOM     18  C   UNL     1      -7.752  -9.283  17.018  0.00  0.00    +0.132 C 
ENDBRANCH  11  13
ENDBRANCH   7   8
ENDBRANCH   6   7
BRANCH  22  23
ATOM     23  C   UNL     1      -6.345  -9.830  12.001  0.00  0.00    +0.076 C 
BRANCH  23  24
ATOM     24  N   UNL     1      -5.819  -9.773  11.367  0.00  0.00    -0.269 NA
ATOM     25  C   UNL     1      -5.442  -9.056  11.208  0.00  0.00    +0.094 C 
ATOM     26  C   UNL     1      -4.917  -8.999  10.574  0.00  0.00    +0.111 C 
ATOM     27  N   UNL     1      -4.769  -9.658  10.099  0.00  0.00    -0.277 N 
ATOM     28  C   UNL     1      -5.147 -10.374  10.259  0.00  0.00    +0.111 C 
ATOM     29  C   UNL     1      -5.672 -10.431  10.893  0.00  0.00    +0.094 C 
ATOM     30  C   UNL     1      -4.244  -9.601   9.466  0.00  0.00    +0.226 C 
ATOM     31  C   UNL     1      -3.866  -8.884   9.307  0.00  0.00    +0.095 C 
ATOM     32  O   UNL     1      -4.097 -10.259   8.991  0.00  0.00    -0.275 OA
ENDBRANCH  23  24
ENDBRANCH  22  23
TORSDOF 6
ENDMDL
