MODEL 1
REMARK VINA RESULT:     -13.0      0.000      0.000
REMARK  Name = 
REMARK  2 active torsions:
REMARK  status: ('A' for Active; 'I' for Inactive)
REMARK    1  A    between atoms: N_3  and  C_4
REMARK    2  A    between atoms: N_16  and  C_17
REMARK                            x       y       z     vdW  Elec       q    Type
REMARK                         _______ _______ _______ _____ _____    ______ ____
ROOT
ATOM      1  O   UNL     1      -2.351  -0.568  24.733  0.00  0.00    -0.250 OA
ATOM      2  C   UNL     1      -3.070  -0.170  24.662  0.00  0.00    +0.328 C 
ATOM      3  N   UNL     1      -3.771  -0.597  24.575  0.00  0.00    -0.162 NA
ATOM     10  N   UNL     1      -3.089   0.655  24.678  0.00  0.00    -0.259 N 
ATOM     11  C   UNL     1      -3.809   1.053  24.606  0.00  0.00    +0.117 C 
ATOM     12  C   UNL     1      -3.828   1.877  24.622  0.00  0.00    +0.117 C 
ATOM     13  N   UNL     1      -3.127   2.304  24.709  0.00  0.00    -0.261 N 
ATOM     14  C   UNL     1      -2.408   1.907  24.781  0.00  0.00    +0.117 C 
ATOM     15  C   UNL     1      -1.812   2.471  24.859  0.00  0.00    +0.116 C 
ATOM     16  N   UNL     1      -2.162   3.217  24.836  0.00  0.00    -0.264 N 
ATOM     23  C   UNL     1      -2.975   3.114  24.744  0.00  0.00    +0.307 C 
ATOM     24  O   UNL     1      -3.538   3.715  24.695  0.00  0.00    -0.252 OA
ATOM     25  C   UNL     1      -2.389   1.082  24.765  0.00  0.00    +0.117 C 
ENDROOT
BRANCH   3   4
ATOM      4  C   UNL     1      -3.752  -1.422  24.559  0.00  0.00    +0.075 A 
ATOM      5  C   UNL     1      -4.001  -1.828  23.885  0.00  0.00    +0.017 A 
ATOM      6  C   UNL     1      -3.981  -2.651  23.869  0.00  0.00    +0.001 A 
ATOM      7  C   UNL     1      -3.714  -3.071  24.527  0.00  0.00    +0.000 A 
ATOM      8  C   UNL     1      -3.465  -2.666  25.201  0.00  0.00    +0.001 A 
ATOM      9  C   UNL     1      -3.484  -1.840  25.217  0.00  0.00    +0.017 A 
ENDBRANCH   3   4
BRANCH  16  17
ATOM     17  C   UNL     1      -1.768   3.940  24.896  0.00  0.00    +0.077 C 
ATOM     18  C   UNL     1      -1.032   4.040  24.536  0.00  0.00    +0.020 C 
ATOM     19  C   UNL     1      -0.639   4.763  24.595  0.00  0.00    +0.002 C 
ATOM     20  C   UNL     1      -0.981   5.385  25.015  0.00  0.00    +0.000 C 
ATOM     21  C   UNL     1      -1.716   5.285  25.375  0.00  0.00    +0.002 C 
ATOM     22  C   UNL     1      -2.110   4.563  25.315  0.00  0.00    +0.020 C 
ENDBRANCH  16  17
TORSDOF 2
ENDMDL
MODEL 2
REMARK VINA RESULT:     -12.7      1.073      5.695
REMARK  Name = 
REMARK  2 active torsions:
REMARK  status: ('A' for Active; 'I' for Inactive)
REMARK    1  A    between atoms: N_3  and  C_4
REMARK    2  A    between atoms: N_16  and  C_17
REMARK                            x       y       z     vdW  Elec       q    Type
REMARK                         _______ _______ _______ _____ _____    ______ ____
ROOT
ATOM      1  O   UNL     1      -2.321   2.913  24.524  0.00  0.00    -0.250 OA
ATOM      2  C   UNL     1      -1.715   2.601  24.989  0.00  0.00    +0.328 C 
ATOM      3  N   UNL     1      -1.155   3.103  25.328  0.00  0.00    -0.162 NA
ATOM     10  N   UNL     1      -1.669   1.787  25.116  0.00  0.00    -0.259 N 
ATOM     11  C   UNL     1      -1.063   1.475  25.581  0.00  0.00    +0.117 C 
ATOM     12  C   UNL     1      -1.018   0.661  25.707  0.00  0.00    +0.117 C 
ATOM     13  N   UNL     1      -1.578   0.158  25.368  0.00  0.00    -0.261 N 
ATOM     14  C   UNL     1      -2.183   0.470  24.903  0.00  0.00    +0.117 C 
ATOM     15  C   UNL     1      -2.653  -0.155  24.642  0.00  0.00    +0.116 C 
ATOM     16  N   UNL     1      -2.337  -0.854  24.946  0.00  0.00    -0.264 N 
ATOM     23  C   UNL     1      -1.673  -0.660  25.395  0.00  0.00    +0.307 C 
ATOM     24  O   UNL     1      -1.188  -1.191  25.799  0.00  0.00    -0.252 OA
ATOM     25  C   UNL     1      -2.229   1.285  24.776  0.00  0.00    +0.117 C 
ENDROOT
BRANCH   3   4
ATOM      4  C   UNL     1      -1.201   3.917  25.202  0.00  0.00    +0.075 A 
ATOM      5  C   UNL     1      -1.823   4.351  25.528  0.00  0.00    +0.017 A 
ATOM      6  C   UNL     1      -1.868   5.164  25.401  0.00  0.00    +0.001 A 
ATOM      7  C   UNL     1      -1.293   5.545  24.949  0.00  0.00    +0.000 A 
ATOM      8  C   UNL     1      -0.671   5.112  24.623  0.00  0.00    +0.001 A 
ATOM      9  C   UNL     1      -0.625   4.297  24.750  0.00  0.00    +0.017 A 
ENDBRANCH   3   4
BRANCH  16  17
ATOM     17  C   UNL     1      -2.634  -1.614  24.823  0.00  0.00    +0.077 C 
ATOM     18  C   UNL     1      -2.220  -2.147  24.348  0.00  0.00    +0.020 C 
ATOM     19  C   UNL     1      -2.517  -2.907  24.225  0.00  0.00    +0.002 C 
ATOM     20  C   UNL     1      -3.228  -3.134  24.578  0.00  0.00    +0.000 C 
ATOM     21  C   UNL     1      -3.641  -2.602  25.052  0.00  0.00    +0.002 C 
ATOM     22  C   UNL     1      -3.345  -1.842  25.175  0.00  0.00    +0.020 C 
ENDBRANCH  16  17
TORSDOF 2
ENDMDL
MODEL 3
REMARK VINA RESULT:      -9.2      2.708      4.056
REMARK  Name = 
REMARK  2 active torsions:
REMARK  status: ('A' for Active; 'I' for Inactive)
REMARK    1  A    between atoms: N_3  and  C_4
REMARK    2  A    between atoms: N_16  and  C_17
REMARK                            x       y       z     vdW  Elec       q    Type
REMARK                         _______ _______ _______ _____ _____    ______ ____
ROOT
ATOM      1  O   UNL     1      -0.489   0.422  24.400  0.00  0.00    -0.250 OA
ATOM      2  C   UNL     1      -0.709   0.926  23.786  0.00  0.00    +0.328 C 
ATOM      3  N   UNL     1      -0.192   1.064  23.159  0.00  0.00    -0.162 NA
ATOM     10  N   UNL     1      -1.449   1.293  23.798  0.00  0.00    -0.259 N 
ATOM     11  C   UNL     1      -1.670   1.797  23.183  0.00  0.00    +0.117 C 
ATOM     12  C   UNL     1      -2.408   2.163  23.196  0.00  0.00    +0.117 C 
ATOM     13  N   UNL     1      -2.927   2.026  23.822  0.00  0.00    -0.261 N 
ATOM     14  C   UNL     1      -2.707   1.521  24.437  0.00  0.00    +0.117 C 
ATOM     15  C   UNL     1      -3.328   1.491  24.977  0.00  0.00    +0.116 C 
ATOM     16  N   UNL     1      -3.934   1.976  24.697  0.00  0.00    -0.264 N 
ATOM     23  C   UNL     1      -3.685   2.306  23.984  0.00  0.00    +0.307 C 
ATOM     24  O   UNL     1      -4.119   2.827  23.513  0.00  0.00    -0.252 OA
ATOM     25  C   UNL     1      -1.967   1.155  24.425  0.00  0.00    +0.117 C 
ENDROOT
BRANCH   3   4
ATOM      4  C   UNL     1       0.548   0.697  23.147  0.00  0.00    +0.075 A 
ATOM      5  C   UNL     1       1.205   1.082  23.464  0.00  0.00    +0.017 A 
ATOM      6  C   UNL     1       1.943   0.716  23.452  0.00  0.00    +0.001 A 
ATOM      7  C   UNL     1       2.026  -0.036  23.123  0.00  0.00    +0.000 A 
ATOM      8  C   UNL     1       1.369  -0.422  22.805  0.00  0.00    +0.001 A 
ATOM      9  C   UNL     1       0.629  -0.055  22.817  0.00  0.00    +0.017 A 
ENDBRANCH   3   4
BRANCH  16  17
ATOM     17  C   UNL     1      -4.660   2.108  25.066  0.00  0.00    +0.077 C 
ATOM     18  C   UNL     1      -5.279   1.573  24.962  0.00  0.00    +0.020 C 
ATOM     19  C   UNL     1      -6.005   1.705  25.330  0.00  0.00    +0.002 C 
ATOM     20  C   UNL     1      -6.112   2.373  25.804  0.00  0.00    +0.000 C 
ATOM     21  C   UNL     1      -5.493   2.907  25.909  0.00  0.00    +0.002 C 
ATOM     22  C   UNL     1      -4.767   2.775  25.540  0.00  0.00    +0.020 C 
ENDBRANCH  16  17
TORSDOF 2
ENDMDL
