MODEL 1
REMARK VINA RESULT:     -15.1      0.000      0.000
REMARK  Name = 
REMARK  4 active torsions:
REMARK  status: ('A' for Active; 'I' for Inactive)
REMARK    1  A    between atoms: C_2  and  O_5
REMARK    2  A    between atoms: O_5  and  C_6
REMARK    3  A    between atoms: C_9  and  C_12
REMARK    4  A    between atoms: C_20  and  C_22
REMARK                            x       y       z     vdW  Elec       q    Type
REMARK                         _______ _______ _______ _____ _____    ______ ____
ROOT
ATOM     12  C   UNL     1      -3.316   2.058  25.011  0.00  0.00    +0.012 A 
ATOM     13  C   UNL     1      -2.834   1.401  24.887  0.00  0.00    +0.041 A 
ATOM     14  C   UNL     1      -1.948   1.170  24.809  0.00  0.00    +0.058 C 
ATOM     15  C   UNL     1      -1.303   1.449  24.821  0.00  0.00    +0.011 C 
ATOM     16  C   UNL     1      -1.640   0.713  24.725  0.00  0.00    +0.043 C 
ATOM     17  C   UNL     1      -1.853  -0.242  24.589  0.00  0.00    +0.096 C 
ATOM     18  N   UNL     1      -2.686  -0.208  24.634  0.00  0.00    -0.276 N 
ATOM     19  C   UNL     1      -2.137   0.244  24.677  0.00  0.00    +0.099 C 
ATOM     20  C   UNL     1      -3.469  -0.471  24.632  0.00  0.00    +0.249 C 
ATOM     21  O   UNL     1      -4.085   0.067  24.743  0.00  0.00    -0.270 OA
ATOM     28  C   UNL     1      -2.568   0.944  24.805  0.00  0.00    +0.110 C 
ATOM     29  N   UNL     1      -3.171   0.654  24.789  0.00  0.00    -0.299 N 
ATOM     30  C   UNL     1      -3.991   0.565  24.815  0.00  0.00    +0.261 A 
ATOM     31  O   UNL     1      -4.544  -0.043  24.748  0.00  0.00    -0.267 OA
ATOM     32  C   UNL     1      -4.473   1.223  24.938  0.00  0.00    +0.061 A 
ATOM     33  C   UNL     1      -4.136   1.969  25.036  0.00  0.00    +0.006 A 
ENDROOT
BRANCH  12   9
ATOM      6  C   UNL     1      -2.304   4.298  25.304  0.00  0.00    +0.147 A 
ATOM      7  C   UNL     1      -2.418   3.808  25.958  0.00  0.00    +0.037 A 
ATOM      8  C   UNL     1      -2.755   3.062  25.860  0.00  0.00    +0.003 A 
ATOM      9  C   UNL     1      -2.979   2.805  25.108  0.00  0.00    +0.001 A 
ATOM     10  C   UNL     1      -2.864   3.295  24.455  0.00  0.00    +0.003 A 
ATOM     11  C   UNL     1      -2.527   4.041  24.553  0.00  0.00    +0.037 A 
BRANCH   6   5
ATOM      5  O   UNL     1      -1.967   5.044  25.402  0.00  0.00    -0.404 OA
BRANCH   5   2
ATOM      1  F   UNL     1      -0.511   5.391  24.706  0.00  0.00    -0.133 F 
ATOM      2  C   UNL     1      -1.239   5.217  25.054  0.00  0.00    +0.575 C 
ATOM      3  F   UNL     1      -1.617   5.714  24.513  0.00  0.00    -0.133 F 
ATOM      4  F   UNL     1      -0.861   4.721  25.594  0.00  0.00    -0.133 F 
ENDBRANCH   5   2
ENDBRANCH   6   5
ENDBRANCH  12   9
BRANCH  20  22
ATOM     22  C   UNL     1      -3.635  -1.270  24.518  0.00  0.00    +0.057 A 
ATOM     23  C   UNL     1      -3.972  -1.525  23.810  0.00  0.00    +0.025 A 
ATOM     24  C   UNL     1      -4.139  -2.325  23.695  0.00  0.00    +0.099 A 
ATOM     25  N   UNL     1      -3.967  -2.870  24.290  0.00  0.00    -0.242 NA
ATOM     26  C   UNL     1      -3.629  -2.617  24.998  0.00  0.00    +0.099 A 
ATOM     27  C   UNL     1      -3.463  -1.816  25.112  0.00  0.00    +0.025 A 
ENDBRANCH  20  22
TORSDOF 4
ENDMDL
MODEL 2
REMARK VINA RESULT:     -14.7      2.911      5.122
REMARK  Name = 
REMARK  4 active torsions:
REMARK  status: ('A' for Active; 'I' for Inactive)
REMARK    1  A    between atoms: C_2  and  O_5
REMARK    2  A    between atoms: O_5  and  C_6
REMARK    3  A    between atoms: C_9  and  C_12
REMARK    4  A    between atoms: C_20  and  C_22
REMARK                            x       y       z     vdW  Elec       q    Type
REMARK                         _______ _______ _______ _____ _____    ______ ____
ROOT
ATOM     12  C   UNL     1      -3.434   0.936  24.467  0.00  0.00    +0.012 A 
ATOM     13  C   UNL     1      -2.697   1.182  24.745  0.00  0.00    +0.041 A 
ATOM     14  C   UNL     1      -1.917   0.845  25.095  0.00  0.00    +0.058 C 
ATOM     15  C   UNL     1      -1.612   0.239  25.276  0.00  0.00    +0.011 C 
ATOM     16  C   UNL     1      -1.426   1.032  25.279  0.00  0.00    +0.043 C 
ATOM     17  C   UNL     1      -1.020   1.930  25.361  0.00  0.00    +0.096 C 
ATOM     18  N   UNL     1      -1.647   2.394  25.062  0.00  0.00    -0.276 N 
ATOM     19  C   UNL     1      -1.512   1.705  25.181  0.00  0.00    +0.099 C 
ATOM     20  C   UNL     1      -2.062   3.069  24.830  0.00  0.00    +0.249 C 
ATOM     21  O   UNL     1      -2.826   2.998  24.525  0.00  0.00    -0.270 OA
ATOM     28  C   UNL     1      -2.237   1.394  24.914  0.00  0.00    +0.110 C 
ATOM     29  N   UNL     1      -2.505   1.984  24.749  0.00  0.00    -0.299 N 
ATOM     30  C   UNL     1      -3.049   2.541  24.475  0.00  0.00    +0.261 A 
ATOM     31  O   UNL     1      -3.095   3.359  24.381  0.00  0.00    -0.267 OA
ATOM     32  C   UNL     1      -3.786   2.294  24.197  0.00  0.00    +0.061 A 
ATOM     33  C   UNL     1      -3.978   1.492  24.193  0.00  0.00    +0.006 A 
ENDROOT
BRANCH  12   9
ATOM      6  C   UNL     1      -4.010  -1.472  24.454  0.00  0.00    +0.147 A 
ATOM      7  C   UNL     1      -4.126  -1.024  25.137  0.00  0.00    +0.037 A 
ATOM      8  C   UNL     1      -3.934  -0.221  25.141  0.00  0.00    +0.003 A 
ATOM      9  C   UNL     1      -3.626   0.133  24.462  0.00  0.00    +0.001 A 
ATOM     10  C   UNL     1      -3.510  -0.315  23.780  0.00  0.00    +0.003 A 
ATOM     11  C   UNL     1      -3.702  -1.117  23.775  0.00  0.00    +0.037 A 
BRANCH   6   5
ATOM      5  O   UNL     1      -4.202  -2.273  24.450  0.00  0.00    -0.404 OA
BRANCH   5   2
ATOM      1  F   UNL     1      -3.027  -3.405  24.695  0.00  0.00    -0.133 F 
ATOM      2  C   UNL     1      -3.614  -2.839  24.573  0.00  0.00    +0.575 C 
ATOM      3  F   UNL     1      -3.526  -2.923  23.756  0.00  0.00    -0.133 F 
ATOM      4  F   UNL     1      -3.703  -2.756  25.388  0.00  0.00    -0.133 F 
ENDBRANCH   5   2
ENDBRANCH   6   5
ENDBRANCH  12   9
BRANCH  20  22
ATOM     22  C   UNL     1      -1.714   3.813  24.904  0.00  0.00    +0.057 A 
ATOM     23  C   UNL     1      -1.053   4.006  24.451  0.00  0.00    +0.025 A 
ATOM     24  C   UNL     1      -0.704   4.750  24.524  0.00  0.00    +0.099 A 
ATOM     25  N   UNL     1      -1.019   5.302  25.051  0.00  0.00    -0.242 NA
ATOM     26  C   UNL     1      -1.680   5.110  25.504  0.00  0.00    +0.099 A 
ATOM     27  C   UNL     1      -2.028   4.365  25.431  0.00  0.00    +0.025 A 
ENDBRANCH  20  22
TORSDOF 4
ENDMDL
MODEL 3
REMARK VINA RESULT:     -11.5      2.742      3.839
REMARK  Name = 
REMARK  4 active torsions:
REMARK  status: ('A' for Active; 'I' for Inactive)
REMARK    1  A    between atoms: C_2  and  O_5
REMARK    2  A    between atoms: O_5  and  C_6
REMARK    3  A    between atoms: C_9  and  C_12
REMARK    4  A    between atoms: C_20  and  C_22
REMARK                            x       y       z     vdW  Elec       q    Type
REMARK                         _______ _______ _______ _____ _____    ______ ____
ROOT
ATOM     12  C   UNL     1      -3.060   1.903  24.132  0.00  0.00    +0.012 A 
ATOM     13  C   UNL     1      -2.569   1.317  24.444  0.00  0.00    +0.041 A 
ATOM     14  C   UNL     1      -2.545   0.689  25.114  0.00  0.00    +0.058 C 
ATOM     15  C   UNL     1      -2.927   0.436  25.645  0.00  0.00    +0.011 C 
ATOM     16  C   UNL     1      -2.198   0.298  25.309  0.00  0.00    +0.043 C 
ATOM     17  C   UNL     1      -1.297  -0.013  25.047  0.00  0.00    +0.096 C 
ATOM     18  N   UNL     1      -1.157   0.495  24.399  0.00  0.00    -0.276 N 
ATOM     19  C   UNL     1      -1.675   0.377  24.873  0.00  0.00    +0.099 C 
ATOM     20  C   UNL     1      -0.760   0.836  23.761  0.00  0.00    +0.249 C 
ATOM     21  O   UNL     1      -1.116   1.446  23.332  0.00  0.00    -0.270 OA
ATOM     28  C   UNL     1      -2.214   0.952  24.606  0.00  0.00    +0.110 C 
ATOM     29  N   UNL     1      -1.830   1.175  24.105  0.00  0.00    -0.299 N 
ATOM     30  C   UNL     1      -1.582   1.618  23.455  0.00  0.00    +0.261 A 
ATOM     31  O   UNL     1      -0.922   1.666  22.962  0.00  0.00    -0.267 OA
ATOM     32  C   UNL     1      -2.072   2.204  23.144  0.00  0.00    +0.061 A 
ATOM     33  C   UNL     1      -2.811   2.346  23.482  0.00  0.00    +0.006 A 
ENDROOT
BRANCH  12   9
ATOM      6  C   UNL     1      -5.277   2.329  25.147  0.00  0.00    +0.147 A 
ATOM      7  C   UNL     1      -5.187   1.727  24.591  0.00  0.00    +0.037 A 
ATOM      8  C   UNL     1      -4.448   1.585  24.252  0.00  0.00    +0.003 A 
ATOM      9  C   UNL     1      -3.799   2.045  24.470  0.00  0.00    +0.001 A 
ATOM     10  C   UNL     1      -3.888   2.647  25.027  0.00  0.00    +0.003 A 
ATOM     11  C   UNL     1      -4.627   2.789  25.366  0.00  0.00    +0.037 A 
BRANCH   6   5
ATOM      5  O   UNL     1      -6.015   2.471  25.485  0.00  0.00    -0.404 OA
BRANCH   5   2
ATOM      1  F   UNL     1      -6.526   1.564  26.765  0.00  0.00    -0.133 F 
ATOM      2  C   UNL     1      -6.270   2.018  26.125  0.00  0.00    +0.575 C 
ATOM      3  F   UNL     1      -6.645   1.497  25.605  0.00  0.00    -0.133 F 
ATOM      4  F   UNL     1      -5.896   2.538  26.644  0.00  0.00    -0.133 F 
ENDBRANCH   5   2
ENDBRANCH   6   5
ENDBRANCH  12   9
BRANCH  20  22
ATOM     22  C   UNL     1      -0.009   0.569  23.551  0.00  0.00    +0.057 A 
ATOM     23  C   UNL     1       0.661   0.983  23.797  0.00  0.00    +0.025 A 
ATOM     24  C   UNL     1       1.413   0.715  23.587  0.00  0.00    +0.099 A 
ATOM     25  N   UNL     1       1.494   0.032  23.131  0.00  0.00    -0.242 NA
ATOM     26  C   UNL     1       0.826  -0.382  22.885  0.00  0.00    +0.099 A 
ATOM     27  C   UNL     1       0.073  -0.114  23.095  0.00  0.00    +0.025 A 
ENDBRANCH  20  22
TORSDOF 4
ENDMDL
MODEL 4
REMARK VINA RESULT:     -11.4      3.042      4.426
REMARK  Name = 
REMARK  4 active torsions:
REMARK  status: ('A' for Active; 'I' for Inactive)
REMARK    1  A    between atoms: C_2  and  O_5
REMARK    2  A    between atoms: O_5  and  C_6
REMARK    3  A    between atoms: C_9  and  C_12
REMARK    4  A    between atoms: C_20  and  C_22
REMARK                            x       y       z     vdW  Elec       q    Type
REMARK                         _______ _______ _______ _____ _____    ______ ____
ROOT
ATOM     12  C   UNL     1      -1.096   1.467  24.565  0.00  0.00    +0.012 A 
ATOM     13  C   UNL     1      -1.771   1.665  24.133  0.00  0.00    +0.041 A 
ATOM     14  C   UNL     1      -2.131   1.576  23.293  0.00  0.00    +0.058 C 
ATOM     15  C   UNL     1      -1.993   1.305  22.660  0.00  0.00    +0.011 C 
ATOM     16  C   UNL     1      -2.595   1.719  23.019  0.00  0.00    +0.043 C 
ATOM     17  C   UNL     1      -3.417   2.207  23.270  0.00  0.00    +0.096 C 
ATOM     18  N   UNL     1      -3.242   2.375  24.069  0.00  0.00    -0.276 N 
ATOM     19  C   UNL     1      -2.931   2.046  23.520  0.00  0.00    +0.099 C 
ATOM     20  C   UNL     1      -3.343   2.669  24.834  0.00  0.00    +0.249 C 
ATOM     21  O   UNL     1      -2.753   2.556  25.400  0.00  0.00    -0.270 OA
ATOM     28  C   UNL     1      -2.227   1.817  23.900  0.00  0.00    +0.110 C 
ATOM     29  N   UNL     1      -2.383   2.084  24.494  0.00  0.00    -0.299 N 
ATOM     30  C   UNL     1      -2.321   2.306  25.286  0.00  0.00    +0.261 A 
ATOM     31  O   UNL     1      -2.773   2.709  25.847  0.00  0.00    -0.267 OA
ATOM     32  C   UNL     1      -1.647   2.108  25.718  0.00  0.00    +0.061 A 
ATOM     33  C   UNL     1      -1.034   1.689  25.357  0.00  0.00    +0.006 A 
ENDROOT
BRANCH  12   9
ATOM      6  C   UNL     1       0.742   0.210  23.484  0.00  0.00    +0.147 A 
ATOM      7  C   UNL     1       0.771   1.033  23.520  0.00  0.00    +0.037 A 
ATOM      8  C   UNL     1       0.158   1.452  23.881  0.00  0.00    +0.003 A 
ATOM      9  C   UNL     1      -0.484   1.048  24.205  0.00  0.00    +0.001 A 
ATOM     10  C   UNL     1      -0.513   0.225  24.169  0.00  0.00    +0.003 A 
ATOM     11  C   UNL     1       0.100  -0.194  23.808  0.00  0.00    +0.037 A 
BRANCH   6   5
ATOM      5  O   UNL     1       1.353  -0.209  23.124  0.00  0.00    -0.404 OA
BRANCH   5   2
ATOM      1  F   UNL     1       1.589  -0.091  21.495  0.00  0.00    -0.133 F 
ATOM      2  C   UNL     1       1.471  -0.150  22.309  0.00  0.00    +0.575 C 
ATOM      3  F   UNL     1       2.139   0.317  22.441  0.00  0.00    -0.133 F 
ATOM      4  F   UNL     1       0.804  -0.617  22.179  0.00  0.00    -0.133 F 
ENDBRANCH   5   2
ENDBRANCH   6   5
ENDBRANCH  12   9
BRANCH  20  22
ATOM     22  C   UNL     1      -4.033   3.075  25.032  0.00  0.00    +0.057 A 
ATOM     23  C   UNL     1      -4.063   3.896  24.961  0.00  0.00    +0.025 A 
ATOM     24  C   UNL     1      -4.754   4.302  25.160  0.00  0.00    +0.099 A 
ATOM     25  N   UNL     1      -5.414   3.886  25.429  0.00  0.00    -0.242 NA
ATOM     26  C   UNL     1      -5.384   3.066  25.499  0.00  0.00    +0.099 A 
ATOM     27  C   UNL     1      -4.693   2.659  25.301  0.00  0.00    +0.025 A 
ENDBRANCH  20  22
TORSDOF 4
ENDMDL
MODEL 5
REMARK VINA RESULT:     -11.4      2.100      2.768
REMARK  Name = 
REMARK  4 active torsions:
REMARK  status: ('A' for Active; 'I' for Inactive)
REMARK    1  A    between atoms: C_2  and  O_5
REMARK    2  A    between atoms: O_5  and  C_6
REMARK    3  A    between atoms: C_9  and  C_12
REMARK    4  A    between atoms: C_20  and  C_22
REMARK                            x       y       z     vdW  Elec       q    Type
REMARK                         _______ _______ _______ _____ _____    ______ ____
ROOT
ATOM     12  C   UNL     1      -2.902   1.658  24.623  0.00  0.00    +0.012 A 
ATOM     13  C   UNL     1      -3.128   0.891  24.822  0.00  0.00    +0.041 A 
ATOM     14  C   UNL     1      -3.857   0.416  25.119  0.00  0.00    +0.058 C 
ATOM     15  C   UNL     1      -4.529   0.498  25.304  0.00  0.00    +0.011 C 
ATOM     16  C   UNL     1      -3.989  -0.110  25.249  0.00  0.00    +0.043 C 
ATOM     17  C   UNL     1      -3.492  -0.963  25.248  0.00  0.00    +0.096 C 
ATOM     18  N   UNL     1      -2.748  -0.692  24.982  0.00  0.00    -0.276 N 
ATOM     19  C   UNL     1      -3.389  -0.417  25.124  0.00  0.00    +0.099 C 
ATOM     20  C   UNL     1      -1.956  -0.719  24.752  0.00  0.00    +0.249 C 
ATOM     21  O   UNL     1      -1.570  -0.027  24.519  0.00  0.00    -0.270 OA
ATOM     28  C   UNL     1      -3.223   0.378  24.938  0.00  0.00    +0.110 C 
ATOM     29  N   UNL     1      -2.584   0.273  24.767  0.00  0.00    -0.299 N 
ATOM     30  C   UNL     1      -1.814   0.422  24.514  0.00  0.00    +0.261 A 
ATOM     31  O   UNL     1      -1.119  -0.002  24.381  0.00  0.00    -0.267 OA
ATOM     32  C   UNL     1      -1.587   1.190  24.315  0.00  0.00    +0.061 A 
ATOM     33  C   UNL     1      -2.131   1.808  24.369  0.00  0.00    +0.006 A 
ENDROOT
BRANCH  12   9
ATOM      6  C   UNL     1      -4.534   3.512  24.787  0.00  0.00    +0.147 A 
ATOM      7  C   UNL     1      -4.484   3.067  24.095  0.00  0.00    +0.037 A 
ATOM      8  C   UNL     1      -3.940   2.449  24.040  0.00  0.00    +0.003 A 
ATOM      9  C   UNL     1      -3.446   2.276  24.678  0.00  0.00    +0.001 A 
ATOM     10  C   UNL     1      -3.496   2.722  25.370  0.00  0.00    +0.003 A 
ATOM     11  C   UNL     1      -4.040   3.340  25.425  0.00  0.00    +0.037 A 
BRANCH   6   5
ATOM      5  O   UNL     1      -5.077   4.130  24.841  0.00  0.00    -0.404 OA
BRANCH   5   2
ATOM      1  F   UNL     1      -6.280   4.075  25.970  0.00  0.00    -0.133 F 
ATOM      2  C   UNL     1      -5.679   4.102  25.406  0.00  0.00    +0.575 C 
ATOM      3  F   UNL     1      -5.311   4.710  25.826  0.00  0.00    -0.133 F 
ATOM      4  F   UNL     1      -6.046   3.495  24.986  0.00  0.00    -0.133 F 
ENDBRANCH   5   2
ENDBRANCH   6   5
ENDBRANCH  12   9
BRANCH  20  22
ATOM     22  C   UNL     1      -1.550  -1.437  24.755  0.00  0.00    +0.057 A 
ATOM     23  C   UNL     1      -1.712  -2.005  24.181  0.00  0.00    +0.025 A 
ATOM     24  C   UNL     1      -1.306  -2.724  24.184  0.00  0.00    +0.099 A 
ATOM     25  N   UNL     1      -0.737  -2.873  24.763  0.00  0.00    -0.242 NA
ATOM     26  C   UNL     1      -0.575  -2.305  25.338  0.00  0.00    +0.099 A 
ATOM     27  C   UNL     1      -0.981  -1.586  25.334  0.00  0.00    +0.025 A 
ENDBRANCH  20  22
TORSDOF 4
ENDMDL
