MODEL 1
REMARK VINA RESULT:     -12.5      0.000      0.000
REMARK  Name = 
REMARK  4 active torsions:
REMARK  status: ('A' for Active; 'I' for Inactive)
REMARK    1  A    between atoms: C_5  and  C_6
REMARK    2  A    between atoms: C_10  and  C_12
REMARK    3  A    between atoms: N_19  and  C_20
REMARK    4  A    between atoms: C_20  and  C_21
REMARK                            x       y       z     vdW  Elec       q    Type
REMARK                         _______ _______ _______ _____ _____    ______ ____
ROOT
ATOM      1  O   UNL     1      -4.490  -0.757  24.824  0.00  0.00    -0.267 OA
ATOM      2  C   UNL     1      -4.335   0.052  24.775  0.00  0.00    +0.261 A 
ATOM      3  C   UNL     1      -4.937   0.597  24.922  0.00  0.00    +0.061 A 
ATOM      4  C   UNL     1      -4.782   1.406  24.874  0.00  0.00    +0.006 A 
ATOM      5  C   UNL     1      -4.025   1.670  24.678  0.00  0.00    +0.012 A 
ATOM     14  C   UNL     1      -3.423   1.126  24.532  0.00  0.00    +0.041 A 
ATOM     15  C   UNL     1      -2.533   1.089  24.306  0.00  0.00    +0.054 C 
ATOM     16  C   UNL     1      -1.985   1.502  24.162  0.00  0.00    +0.011 C 
ATOM     17  C   UNL     1      -2.141   0.704  24.211  0.00  0.00    +0.039 C 
ATOM     18  C   UNL     1      -2.132  -0.284  24.220  0.00  0.00    +0.074 C 
ATOM     19  N   UNL     1      -2.929  -0.429  24.424  0.00  0.00    -0.268 NA
ATOM     26  C   UNL     1      -2.508   0.134  24.310  0.00  0.00    +0.078 C 
ATOM     27  C   UNL     1      -3.071   0.732  24.447  0.00  0.00    +0.110 C 
ATOM     28  N   UNL     1      -3.578   0.317  24.580  0.00  0.00    -0.299 N 
ENDROOT
BRANCH   5   6
ATOM      6  C   UNL     1      -3.870   2.479  24.630  0.00  0.00    +0.002 A 
ATOM      7  C   UNL     1      -3.964   2.875  23.912  0.00  0.00    +0.000 A 
ATOM      8  C   UNL     1      -3.809   3.684  23.864  0.00  0.00    +0.001 A 
ATOM      9  C   UNL     1      -3.560   4.097  24.533  0.00  0.00    +0.010 A 
ATOM     10  C   UNL     1      -3.467   3.701  25.251  0.00  0.00    +0.068 A 
ATOM     11  C   UNL     1      -3.622   2.892  25.299  0.00  0.00    +0.010 A 
BRANCH  10  12
ATOM     12  C   UNL     1      -3.218   4.114  25.920  0.00  0.00    +0.100 C 
ATOM     13  N   UNL     1      -2.969   4.528  26.590  0.00  0.00    -0.191 NA
ENDBRANCH  10  12
ENDBRANCH   5   6
BRANCH  19  20
ATOM     20  C   UNL     1      -3.612  -0.857  24.602  0.00  0.00    +0.106 C 
BRANCH  20  21
ATOM     21  C   UNL     1      -3.600  -1.681  24.582  0.00  0.00    +0.023 A 
ATOM     22  C   UNL     1      -3.865  -2.155  23.961  0.00  0.00    +0.004 A 
ATOM     23  C   UNL     1      -3.748  -2.944  24.175  0.00  0.00    +0.007 A 
ATOM     24  C   UNL     1      -3.412  -2.957  24.927  0.00  0.00    +0.035 A 
ATOM     25  S   UNL     1      -3.319  -2.177  25.179  0.00  0.00    -0.089 S 
ENDBRANCH  20  21
ENDBRANCH  19  20
TORSDOF 4
ENDMDL
MODEL 2
REMARK VINA RESULT:     -12.2      1.745      4.543
REMARK  Name = 
REMARK  4 active torsions:
REMARK  status: ('A' for Active; 'I' for Inactive)
REMARK    1  A    between atoms: C_5  and  C_6
REMARK    2  A    between atoms: C_10  and  C_12
REMARK    3  A    between atoms: N_19  and  C_20
REMARK    4  A    between atoms: C_20  and  C_21
REMARK                            x       y       z     vdW  Elec       q    Type
REMARK                         _______ _______ _______ _____ _____    ______ ____
ROOT
ATOM      1  O   UNL     1      -1.926   2.402  24.606  0.00  0.00    -0.267 OA
ATOM      2  C   UNL     1      -2.290   1.668  24.514  0.00  0.00    +0.261 A 
ATOM      3  C   UNL     1      -1.857   1.026  24.230  0.00  0.00    +0.061 A 
ATOM      4  C   UNL     1      -2.221   0.291  24.138  0.00  0.00    +0.006 A 
ATOM      5  C   UNL     1      -3.018   0.198  24.330  0.00  0.00    +0.012 A 
ATOM     14  C   UNL     1      -3.451   0.840  24.614  0.00  0.00    +0.041 A 
ATOM     15  C   UNL     1      -4.296   1.060  24.901  0.00  0.00    +0.054 C 
ATOM     16  C   UNL     1      -4.933   0.783  25.002  0.00  0.00    +0.011 C 
ATOM     17  C   UNL     1      -4.570   1.507  25.091  0.00  0.00    +0.039 C 
ATOM     18  C   UNL     1      -4.316   2.446  25.266  0.00  0.00    +0.074 C 
ATOM     19  N   UNL     1      -3.512   2.417  25.040  0.00  0.00    -0.268 NA
ATOM     26  C   UNL     1      -4.066   1.971  25.075  0.00  0.00    +0.078 C 
ATOM     27  C   UNL     1      -3.684   1.286  24.793  0.00  0.00    +0.110 C 
ATOM     28  N   UNL     1      -3.087   1.575  24.706  0.00  0.00    -0.299 N 
ENDROOT
BRANCH   5   6
ATOM      6  C   UNL     1      -3.382  -0.537  24.238  0.00  0.00    +0.002 A 
ATOM      7  C   UNL     1      -3.893  -0.668  23.604  0.00  0.00    +0.000 A 
ATOM      8  C   UNL     1      -4.257  -1.402  23.512  0.00  0.00    +0.001 A 
ATOM      9  C   UNL     1      -4.110  -2.006  24.054  0.00  0.00    +0.010 A 
ATOM     10  C   UNL     1      -3.599  -1.876  24.688  0.00  0.00    +0.068 A 
ATOM     11  C   UNL     1      -3.235  -1.141  24.780  0.00  0.00    +0.010 A 
BRANCH  10  12
ATOM     12  C   UNL     1      -3.451  -2.479  25.230  0.00  0.00    +0.100 C 
ATOM     13  N   UNL     1      -3.303  -3.084  25.773  0.00  0.00    -0.191 NA
ENDBRANCH  10  12
ENDBRANCH   5   6
BRANCH  19  20
ATOM     20  C   UNL     1      -2.743   2.680  24.900  0.00  0.00    +0.106 C 
BRANCH  20  21
ATOM     21  C   UNL     1      -2.527   3.451  25.099  0.00  0.00    +0.023 A 
ATOM     22  C   UNL     1      -2.239   3.700  25.830  0.00  0.00    +0.004 A 
ATOM     23  C   UNL     1      -2.096   4.512  25.784  0.00  0.00    +0.007 A 
ATOM     24  C   UNL     1      -2.297   4.764  25.025  0.00  0.00    +0.035 A 
ATOM     25  S   UNL     1      -2.563   4.109  24.601  0.00  0.00    -0.089 S 
ENDBRANCH  20  21
ENDBRANCH  19  20
TORSDOF 4
ENDMDL
MODEL 3
REMARK VINA RESULT:     -12.2      1.765      4.437
REMARK  Name = 
REMARK  4 active torsions:
REMARK  status: ('A' for Active; 'I' for Inactive)
REMARK    1  A    between atoms: C_5  and  C_6
REMARK    2  A    between atoms: C_10  and  C_12
REMARK    3  A    between atoms: N_19  and  C_20
REMARK    4  A    between atoms: C_20  and  C_21
REMARK                            x       y       z     vdW  Elec       q    Type
REMARK                         _______ _______ _______ _____ _____    ______ ____
ROOT
ATOM      1  O   UNL     1      -3.460   2.557  25.050  0.00  0.00    -0.267 OA
ATOM      2  C   UNL     1      -3.490   1.732  25.061  0.00  0.00    +0.261 A 
ATOM      3  C   UNL     1      -4.218   1.347  25.102  0.00  0.00    +0.061 A 
ATOM      4  C   UNL     1      -4.248   0.522  25.113  0.00  0.00    +0.006 A 
ATOM      5  C   UNL     1      -3.550   0.083  25.083  0.00  0.00    +0.012 A 
ATOM     14  C   UNL     1      -2.823   0.469  25.042  0.00  0.00    +0.041 A 
ATOM     15  C   UNL     1      -1.922   0.290  24.999  0.00  0.00    +0.054 C 
ATOM     16  C   UNL     1      -1.467  -0.243  24.982  0.00  0.00    +0.011 C 
ATOM     17  C   UNL     1      -1.441   0.571  24.971  0.00  0.00    +0.039 C 
ATOM     18  C   UNL     1      -1.205   1.530  24.948  0.00  0.00    +0.074 C 
ATOM     19  N   UNL     1      -1.970   1.863  24.983  0.00  0.00    -0.268 NA
ATOM     26  C   UNL     1      -1.678   1.213  24.975  0.00  0.00    +0.078 C 
ATOM     27  C   UNL     1      -2.379   0.767  25.016  0.00  0.00    +0.110 C 
ATOM     28  N   UNL     1      -2.792   1.293  25.031  0.00  0.00    -0.299 N 
ENDROOT
BRANCH   5   6
ATOM      6  C   UNL     1      -3.581  -0.741  25.095  0.00  0.00    +0.002 A 
ATOM      7  C   UNL     1      -3.379  -1.152  25.781  0.00  0.00    +0.000 A 
ATOM      8  C   UNL     1      -3.409  -1.977  25.792  0.00  0.00    +0.001 A 
ATOM      9  C   UNL     1      -3.641  -2.390  25.117  0.00  0.00    +0.010 A 
ATOM     10  C   UNL     1      -3.843  -1.979  24.431  0.00  0.00    +0.068 A 
ATOM     11  C   UNL     1      -3.813  -1.155  24.420  0.00  0.00    +0.010 A 
BRANCH  10  12
ATOM     12  C   UNL     1      -4.075  -2.393  23.756  0.00  0.00    +0.100 C 
ATOM     13  N   UNL     1      -4.307  -2.807  23.081  0.00  0.00    -0.191 NA
ENDBRANCH  10  12
ENDBRANCH   5   6
BRANCH  19  20
ATOM     20  C   UNL     1      -2.557   2.443  25.005  0.00  0.00    +0.106 C 
BRANCH  20  21
ATOM     21  C   UNL     1      -2.348   3.239  25.065  0.00  0.00    +0.023 A 
ATOM     22  C   UNL     1      -2.193   3.649  25.763  0.00  0.00    +0.004 A 
ATOM     23  C   UNL     1      -2.006   4.428  25.565  0.00  0.00    +0.007 A 
ATOM     24  C   UNL     1      -2.046   4.499  24.745  0.00  0.00    +0.035 A 
ATOM     25  S   UNL     1      -2.257   3.765  24.434  0.00  0.00    -0.089 S 
ENDBRANCH  20  21
ENDBRANCH  19  20
TORSDOF 4
ENDMDL
MODEL 4
REMARK VINA RESULT:     -11.8      1.289      1.932
REMARK  Name = 
REMARK  4 active torsions:
REMARK  status: ('A' for Active; 'I' for Inactive)
REMARK    1  A    between atoms: C_5  and  C_6
REMARK    2  A    between atoms: C_10  and  C_12
REMARK    3  A    between atoms: N_19  and  C_20
REMARK    4  A    between atoms: C_20  and  C_21
REMARK                            x       y       z     vdW  Elec       q    Type
REMARK                         _______ _______ _______ _____ _____    ______ ____
ROOT
ATOM      1  O   UNL     1      -1.895  -0.908  25.387  0.00  0.00    -0.267 OA
ATOM      2  C   UNL     1      -1.777  -0.097  25.284  0.00  0.00    +0.261 A 
ATOM      3  C   UNL     1      -1.172   0.286  25.694  0.00  0.00    +0.061 A 
ATOM      4  C   UNL     1      -1.054   1.096  25.591  0.00  0.00    +0.006 A 
ATOM      5  C   UNL     1      -1.540   1.523  25.079  0.00  0.00    +0.012 A 
ATOM     14  C   UNL     1      -2.145   1.139  24.669  0.00  0.00    +0.041 A 
ATOM     15  C   UNL     1      -2.817   1.308  24.066  0.00  0.00    +0.054 C 
ATOM     16  C   UNL     1      -3.106   1.830  23.695  0.00  0.00    +0.011 C 
ATOM     17  C   UNL     1      -3.220   1.030  23.799  0.00  0.00    +0.039 C 
ATOM     18  C   UNL     1      -3.512   0.086  23.790  0.00  0.00    +0.074 C 
ATOM     19  N   UNL     1      -2.961  -0.236  24.330  0.00  0.00    -0.268 NA
ATOM     26  C   UNL     1      -3.111   0.400  24.046  0.00  0.00    +0.078 C 
ATOM     27  C   UNL     1      -2.520   0.844  24.430  0.00  0.00    +0.110 C 
ATOM     28  N   UNL     1      -2.263   0.329  24.772  0.00  0.00    -0.299 N 
ENDROOT
BRANCH   5   6
ATOM      6  C   UNL     1      -1.422   2.333  24.976  0.00  0.00    +0.002 A 
ATOM      7  C   UNL     1      -0.863   2.603  24.433  0.00  0.00    +0.000 A 
ATOM      8  C   UNL     1      -0.745   3.413  24.330  0.00  0.00    +0.001 A 
ATOM      9  C   UNL     1      -1.185   3.953  24.771  0.00  0.00    +0.010 A 
ATOM     10  C   UNL     1      -1.744   3.683  25.314  0.00  0.00    +0.068 A 
ATOM     11  C   UNL     1      -1.863   2.873  25.417  0.00  0.00    +0.010 A 
BRANCH  10  12
ATOM     12  C   UNL     1      -2.185   4.224  25.754  0.00  0.00    +0.100 C 
ATOM     13  N   UNL     1      -2.627   4.764  26.195  0.00  0.00    -0.191 NA
ENDBRANCH  10  12
ENDBRANCH   5   6
BRANCH  19  20
ATOM     20  C   UNL     1      -2.577  -0.802  24.792  0.00  0.00    +0.106 C 
BRANCH  20  21
ATOM     21  C   UNL     1      -2.838  -1.584  24.787  0.00  0.00    +0.023 A 
ATOM     22  C   UNL     1      -3.482  -1.883  25.207  0.00  0.00    +0.004 A 
ATOM     23  C   UNL     1      -3.542  -2.689  25.040  0.00  0.00    +0.007 A 
ATOM     24  C   UNL     1      -2.936  -2.889  24.518  0.00  0.00    +0.035 A 
ATOM     25  S   UNL     1      -2.500  -2.206  24.361  0.00  0.00    -0.089 S 
ENDBRANCH  20  21
ENDBRANCH  19  20
TORSDOF 4
ENDMDL
MODEL 5
REMARK VINA RESULT:     -11.4      1.666      2.080
REMARK  Name = 
REMARK  4 active torsions:
REMARK  status: ('A' for Active; 'I' for Inactive)
REMARK    1  A    between atoms: C_5  and  C_6
REMARK    2  A    between atoms: C_10  and  C_12
REMARK    3  A    between atoms: N_19  and  C_20
REMARK    4  A    between atoms: C_20  and  C_21
REMARK                            x       y       z     vdW  Elec       q    Type
REMARK                         _______ _______ _______ _____ _____    ______ ____
ROOT
ATOM      1  O   UNL     1      -2.196  -0.513  24.369  0.00  0.00    -0.267 OA
ATOM      2  C   UNL     1      -2.585   0.214  24.370  0.00  0.00    +0.261 A 
ATOM      3  C   UNL     1      -3.337   0.279  24.037  0.00  0.00    +0.061 A 
ATOM      4  C   UNL     1      -3.727   1.007  24.038  0.00  0.00    +0.006 A 
ATOM      5  C   UNL     1      -3.364   1.669  24.371  0.00  0.00    +0.012 A 
ATOM     14  C   UNL     1      -2.612   1.603  24.704  0.00  0.00    +0.041 A 
ATOM     15  C   UNL     1      -1.973   2.110  25.127  0.00  0.00    +0.054 C 
ATOM     16  C   UNL     1      -1.846   2.764  25.348  0.00  0.00    +0.011 C 
ATOM     17  C   UNL     1      -1.465   2.044  25.346  0.00  0.00    +0.039 C 
ATOM     18  C   UNL     1      -0.851   1.275  25.439  0.00  0.00    +0.074 C 
ATOM     19  N   UNL     1      -1.314   0.682  25.076  0.00  0.00    -0.268 NA
ATOM     26  C   UNL     1      -1.369   1.376  25.224  0.00  0.00    +0.078 C 
ATOM     27  C   UNL     1      -2.127   1.507  24.905  0.00  0.00    +0.110 C 
ATOM     28  N   UNL     1      -2.223   0.876  24.703  0.00  0.00    -0.299 N 
ENDROOT
BRANCH   5   6
ATOM      6  C   UNL     1      -3.754   2.396  24.371  0.00  0.00    +0.002 A 
ATOM      7  C   UNL     1      -3.588   2.953  23.786  0.00  0.00    +0.000 A 
ATOM      8  C   UNL     1      -3.978   3.681  23.786  0.00  0.00    +0.001 A 
ATOM      9  C   UNL     1      -4.533   3.851  24.372  0.00  0.00    +0.010 A 
ATOM     10  C   UNL     1      -4.699   3.294  24.957  0.00  0.00    +0.068 A 
ATOM     11  C   UNL     1      -4.309   2.566  24.957  0.00  0.00    +0.010 A 
BRANCH  10  12
ATOM     12  C   UNL     1      -5.254   3.464  25.543  0.00  0.00    +0.100 C 
ATOM     13  N   UNL     1      -5.810   3.633  26.130  0.00  0.00    -0.191 NA
ENDBRANCH  10  12
ENDBRANCH   5   6
BRANCH  19  20
ATOM     20  C   UNL     1      -1.525  -0.064  24.793  0.00  0.00    +0.106 C 
BRANCH  20  21
ATOM     21  C   UNL     1      -1.018  -0.705  24.902  0.00  0.00    +0.023 A 
ATOM     22  C   UNL     1      -1.007  -1.209  25.555  0.00  0.00    +0.004 A 
ATOM     23  C   UNL     1      -0.415  -1.771  25.433  0.00  0.00    +0.007 A 
ATOM     24  C   UNL     1      -0.060  -1.614  24.705  0.00  0.00    +0.035 A 
ATOM     25  S   UNL     1      -0.432  -0.956  24.376  0.00  0.00    -0.089 S 
ENDBRANCH  20  21
ENDBRANCH  19  20
TORSDOF 4
ENDMDL
