MODEL 1
REMARK VINA RESULT:     -13.0      0.000      0.000
REMARK  Name = 
REMARK  6 active torsions:
REMARK  status: ('A' for Active; 'I' for Inactive)
REMARK    1  A    between atoms: C_2  and  C_3
REMARK    2  A    between atoms: C_6  and  C_7
REMARK    3  A    between atoms: C_7  and  N_8
REMARK    4  A    between atoms: C_13  and  C_14
REMARK    5  A    between atoms: C_16  and  C_19
REMARK    6  A    between atoms: C_22  and  C_25
REMARK                            x       y       z     vdW  Elec       q    Type
REMARK                         _______ _______ _______ _____ _____    ______ ____
ROOT
ATOM      8  N   UNL     1      -3.504   2.699  24.936  0.00  0.00    -0.254 NA
ATOM      9  C   UNL     1      -3.710   3.418  25.282  0.00  0.00    +0.121 C 
ATOM     10  C   UNL     1      -4.503   3.599  25.418  0.00  0.00    +0.090 A 
ATOM     11  C   UNL     1      -5.091   3.059  25.208  0.00  0.00    +0.077 A 
ATOM     12  C   UNL     1      -4.885   2.338  24.862  0.00  0.00    +0.073 C 
ATOM     13  C   UNL     1      -4.091   2.159  24.727  0.00  0.00    +0.144 C 
ATOM     29  N   UNL     1      -5.821   3.386  25.408  0.00  0.00    -0.227 NA
ATOM     30  C   UNL     1      -5.685   4.128  25.741  0.00  0.00    +0.198 A 
ATOM     31  N   UNL     1      -4.871   4.259  25.747  0.00  0.00    -0.226 NA
ENDROOT
BRANCH  13  14
ATOM     14  C   UNL     1      -3.886   1.439  24.381  0.00  0.00    +0.251 A 
ATOM     15  N   UNL     1      -3.955   0.695  24.730  0.00  0.00    -0.190 NA
ATOM     16  C   UNL     1      -3.687   0.132  24.190  0.00  0.00    +0.203 A 
ATOM     17  N   UNL     1      -3.452   0.528  23.506  0.00  0.00    -0.056 NA
ATOM     18  O   UNL     1      -3.574   1.336  23.624  0.00  0.00    -0.336 OA
BRANCH  16  19
ATOM     19  C   UNL     1      -3.659  -0.683  24.312  0.00  0.00    +0.039 A 
ATOM     20  C   UNL     1      -3.118  -1.002  24.847  0.00  0.00    +0.003 A 
ATOM     21  C   UNL     1      -3.091  -1.818  24.969  0.00  0.00    +0.004 A 
ATOM     22  C   UNL     1      -3.605  -2.314  24.557  0.00  0.00    +0.071 A 
ATOM     23  C   UNL     1      -4.146  -1.995  24.022  0.00  0.00    +0.004 A 
ATOM     24  C   UNL     1      -4.174  -1.180  23.900  0.00  0.00    +0.003 A 
BRANCH  22  25
ATOM     25  C   UNL     1      -3.577  -3.130  24.679  0.00  0.00    +0.419 C 
ATOM     26  F   UNL     1      -3.550  -3.945  24.800  0.00  0.00    -0.166 F 
ATOM     27  F   UNL     1      -3.576  -3.252  23.862  0.00  0.00    -0.166 F 
ATOM     28  F   UNL     1      -3.579  -3.007  25.495  0.00  0.00    -0.166 F 
ENDBRANCH  22  25
ENDBRANCH  16  19
ENDBRANCH  13  14
BRANCH   8   7
ATOM      7  C   UNL     1      -2.711   2.519  24.801  0.00  0.00    +0.138 C 
BRANCH   7   6
ATOM      3  C   UNL     1      -1.268   4.068  25.077  0.00  0.00    +0.156 A 
ATOM      4  C   UNL     1      -1.160   3.625  25.765  0.00  0.00    +0.038 A 
ATOM      5  C   UNL     1      -1.688   2.990  25.744  0.00  0.00    +0.037 A 
ATOM      6  C   UNL     1      -2.121   3.041  25.045  0.00  0.00    +0.139 A 
ATOM     32  O   UNL     1      -1.862   3.708  24.632  0.00  0.00    -0.458 OA
BRANCH   3   2
ATOM      1  O   UNL     1      -1.163   5.493  25.062  0.00  0.00    -0.212 OA
ATOM      2  C   UNL     1      -0.855   4.752  24.871  0.00  0.00    +0.246 C 
ENDBRANCH   3   2
ENDBRANCH   7   6
ENDBRANCH   8   7
TORSDOF 6
ENDMDL
MODEL 2
REMARK VINA RESULT:     -11.9      1.351      2.756
REMARK  Name = 
REMARK  6 active torsions:
REMARK  status: ('A' for Active; 'I' for Inactive)
REMARK    1  A    between atoms: C_2  and  C_3
REMARK    2  A    between atoms: C_6  and  C_7
REMARK    3  A    between atoms: C_7  and  N_8
REMARK    4  A    between atoms: C_13  and  C_14
REMARK    5  A    between atoms: C_16  and  C_19
REMARK    6  A    between atoms: C_22  and  C_25
REMARK                            x       y       z     vdW  Elec       q    Type
REMARK                         _______ _______ _______ _____ _____    ______ ____
ROOT
ATOM      8  N   UNL     1      -3.118   2.916  24.487  0.00  0.00    -0.254 NA
ATOM      9  C   UNL     1      -2.924   3.660  24.784  0.00  0.00    +0.121 C 
ATOM     10  C   UNL     1      -2.138   3.845  24.956  0.00  0.00    +0.090 A 
ATOM     11  C   UNL     1      -1.546   3.283  24.831  0.00  0.00    +0.077 A 
ATOM     12  C   UNL     1      -1.740   2.538  24.534  0.00  0.00    +0.073 C 
ATOM     13  C   UNL     1      -2.526   2.355  24.362  0.00  0.00    +0.144 C 
ATOM     29  N   UNL     1      -0.826   3.619  25.050  0.00  0.00    -0.227 NA
ATOM     30  C   UNL     1      -0.972   4.388  25.310  0.00  0.00    +0.198 A 
ATOM     31  N   UNL     1      -1.783   4.527  25.252  0.00  0.00    -0.226 NA
ENDROOT
BRANCH  13  14
ATOM     14  C   UNL     1      -2.719   1.610  24.065  0.00  0.00    +0.251 A 
ATOM     15  N   UNL     1      -2.818   0.921  24.507  0.00  0.00    -0.190 NA
ATOM     16  C   UNL     1      -3.008   0.308  23.989  0.00  0.00    +0.203 A 
ATOM     17  N   UNL     1      -3.026   0.618  23.225  0.00  0.00    -0.056 NA
ATOM     18  O   UNL     1      -2.848   1.423  23.271  0.00  0.00    -0.336 OA
BRANCH  16  19
ATOM     19  C   UNL     1      -3.153  -0.476  24.198  0.00  0.00    +0.039 A 
ATOM     20  C   UNL     1      -3.895  -0.810  24.060  0.00  0.00    +0.003 A 
ATOM     21  C   UNL     1      -4.040  -1.595  24.269  0.00  0.00    +0.004 A 
ATOM     22  C   UNL     1      -3.443  -2.046  24.616  0.00  0.00    +0.071 A 
ATOM     23  C   UNL     1      -2.701  -1.713  24.754  0.00  0.00    +0.004 A 
ATOM     24  C   UNL     1      -2.556  -0.928  24.545  0.00  0.00    +0.003 A 
BRANCH  22  25
ATOM     25  C   UNL     1      -3.588  -2.831  24.825  0.00  0.00    +0.419 C 
ATOM     26  F   UNL     1      -3.732  -3.615  25.034  0.00  0.00    -0.166 F 
ATOM     27  F   UNL     1      -3.573  -3.046  24.029  0.00  0.00    -0.166 F 
ATOM     28  F   UNL     1      -3.602  -2.615  25.622  0.00  0.00    -0.166 F 
ENDBRANCH  22  25
ENDBRANCH  16  19
ENDBRANCH  13  14
BRANCH   8   7
ATOM      7  C   UNL     1      -3.903   2.732  24.315  0.00  0.00    +0.138 C 
BRANCH   7   6
ATOM      3  C   UNL     1      -5.427   2.966  25.793  0.00  0.00    +0.156 A 
ATOM      4  C   UNL     1      -5.432   3.711  25.439  0.00  0.00    +0.038 A 
ATOM      5  C   UNL     1      -4.861   3.714  24.842  0.00  0.00    +0.037 A 
ATOM      6  C   UNL     1      -4.504   2.971  24.827  0.00  0.00    +0.139 A 
ATOM     32  O   UNL     1      -4.853   2.508  25.415  0.00  0.00    -0.458 OA
BRANCH   3   2
ATOM      1  O   UNL     1      -6.228   1.960  26.414  0.00  0.00    -0.212 OA
ATOM      2  C   UNL     1      -5.910   2.721  26.415  0.00  0.00    +0.246 C 
ENDBRANCH   3   2
ENDBRANCH   7   6
ENDBRANCH   8   7
TORSDOF 6
ENDMDL
MODEL 3
REMARK VINA RESULT:     -11.0      3.117      5.133
REMARK  Name = 
REMARK  6 active torsions:
REMARK  status: ('A' for Active; 'I' for Inactive)
REMARK    1  A    between atoms: C_2  and  C_3
REMARK    2  A    between atoms: C_6  and  C_7
REMARK    3  A    between atoms: C_7  and  N_8
REMARK    4  A    between atoms: C_13  and  C_14
REMARK    5  A    between atoms: C_16  and  C_19
REMARK    6  A    between atoms: C_22  and  C_25
REMARK                            x       y       z     vdW  Elec       q    Type
REMARK                         _______ _______ _______ _____ _____    ______ ____
ROOT
ATOM      8  N   UNL     1      -2.837  -0.783  24.531  0.00  0.00    -0.254 NA
ATOM      9  C   UNL     1      -2.689  -1.587  24.634  0.00  0.00    +0.121 C 
ATOM     10  C   UNL     1      -3.252  -2.144  24.403  0.00  0.00    +0.090 A 
ATOM     11  C   UNL     1      -3.965  -1.895  24.069  0.00  0.00    +0.077 A 
ATOM     12  C   UNL     1      -4.114  -1.090  23.966  0.00  0.00    +0.073 C 
ATOM     13  C   UNL     1      -3.550  -0.534  24.197  0.00  0.00    +0.144 C 
ATOM     29  N   UNL     1      -4.413  -2.565  23.895  0.00  0.00    -0.227 NA
ATOM     30  C   UNL     1      -3.978  -3.228  24.121  0.00  0.00    +0.198 A 
ATOM     31  N   UNL     1      -3.261  -2.968  24.435  0.00  0.00    -0.226 NA
ENDROOT
BRANCH  13  14
ATOM     14  C   UNL     1      -3.699   0.271  24.095  0.00  0.00    +0.251 A 
ATOM     15  N   UNL     1      -4.121   0.756  24.610  0.00  0.00    -0.190 NA
ATOM     16  C   UNL     1      -4.135   1.517  24.292  0.00  0.00    +0.203 A 
ATOM     17  N   UNL     1      -3.721   1.502  23.579  0.00  0.00    -0.056 NA
ATOM     18  O   UNL     1      -3.451   0.731  23.456  0.00  0.00    -0.336 OA
BRANCH  16  19
ATOM     19  C   UNL     1      -4.499   2.177  24.628  0.00  0.00    +0.039 A 
ATOM     20  C   UNL     1      -5.191   2.088  25.066  0.00  0.00    +0.003 A 
ATOM     21  C   UNL     1      -5.555   2.748  25.402  0.00  0.00    +0.004 A 
ATOM     22  C   UNL     1      -5.225   3.497  25.300  0.00  0.00    +0.071 A 
ATOM     23  C   UNL     1      -4.532   3.586  24.862  0.00  0.00    +0.004 A 
ATOM     24  C   UNL     1      -4.168   2.927  24.526  0.00  0.00    +0.003 A 
BRANCH  22  25
ATOM     25  C   UNL     1      -5.588   4.158  25.636  0.00  0.00    +0.419 C 
ATOM     26  F   UNL     1      -5.952   4.817  25.972  0.00  0.00    -0.166 F 
ATOM     27  F   UNL     1      -6.323   3.887  25.375  0.00  0.00    -0.166 F 
ATOM     28  F   UNL     1      -4.854   4.428  25.897  0.00  0.00    -0.166 F 
ENDBRANCH  22  25
ENDBRANCH  16  19
ENDBRANCH  13  14
BRANCH   8   7
ATOM      7  C   UNL     1      -2.274  -0.227  24.762  0.00  0.00    +0.138 C 
BRANCH   7   6
ATOM      3  C   UNL     1      -0.229  -0.568  24.251  0.00  0.00    +0.156 A 
ATOM      4  C   UNL     1      -0.240  -0.814  25.039  0.00  0.00    +0.038 A 
ATOM      5  C   UNL     1      -1.008  -0.717  25.326  0.00  0.00    +0.037 A 
ATOM      6  C   UNL     1      -1.471  -0.410  24.716  0.00  0.00    +0.139 A 
ATOM     32  O   UNL     1      -0.990  -0.317  24.052  0.00  0.00    -0.458 OA
BRANCH   3   2
ATOM      1  O   UNL     1       0.547   0.055  23.226  0.00  0.00    -0.212 OA
ATOM      2  C   UNL     1       0.426  -0.571  23.751  0.00  0.00    +0.246 C 
ENDBRANCH   3   2
ENDBRANCH   7   6
ENDBRANCH   8   7
TORSDOF 6
ENDMDL
MODEL 4
REMARK VINA RESULT:     -10.9      3.008      5.578
REMARK  Name = 
REMARK  6 active torsions:
REMARK  status: ('A' for Active; 'I' for Inactive)
REMARK    1  A    between atoms: C_2  and  C_3
REMARK    2  A    between atoms: C_6  and  C_7
REMARK    3  A    between atoms: C_7  and  N_8
REMARK    4  A    between atoms: C_13  and  C_14
REMARK    5  A    between atoms: C_16  and  C_19
REMARK    6  A    between atoms: C_22  and  C_25
REMARK                            x       y       z     vdW  Elec       q    Type
REMARK                         _______ _______ _______ _____ _____    ______ ____
ROOT
ATOM      8  N   UNL     1      -2.017  -0.040  24.431  0.00  0.00    -0.254 NA
ATOM      9  C   UNL     1      -1.396  -0.568  24.556  0.00  0.00    +0.121 C 
ATOM     10  C   UNL     1      -0.644  -0.399  24.261  0.00  0.00    +0.090 A 
ATOM     11  C   UNL     1      -0.514   0.298  23.839  0.00  0.00    +0.077 A 
ATOM     12  C   UNL     1      -1.136   0.826  23.713  0.00  0.00    +0.073 C 
ATOM     13  C   UNL     1      -1.887   0.657  24.009  0.00  0.00    +0.144 C 
ATOM     29  N   UNL     1       0.279   0.316  23.616  0.00  0.00    -0.227 NA
ATOM     30  C   UNL     1       0.640  -0.369  23.899  0.00  0.00    +0.198 A 
ATOM     31  N   UNL     1       0.069  -0.811  24.297  0.00  0.00    -0.226 NA
ENDROOT
BRANCH  13  14
ATOM     14  C   UNL     1      -2.508   1.185  23.883  0.00  0.00    +0.251 A 
ATOM     15  N   UNL     1      -2.919   1.599  24.465  0.00  0.00    -0.190 NA
ATOM     16  C   UNL     1      -3.492   2.063  24.094  0.00  0.00    +0.203 A 
ATOM     17  N   UNL     1      -3.434   1.935  23.281  0.00  0.00    -0.056 NA
ATOM     18  O   UNL     1      -2.826   1.393  23.150  0.00  0.00    -0.336 OA
BRANCH  16  19
ATOM     19  C   UNL     1      -4.028   2.565  24.469  0.00  0.00    +0.039 A 
ATOM     20  C   UNL     1      -3.786   3.311  24.723  0.00  0.00    +0.003 A 
ATOM     21  C   UNL     1      -4.323   3.813  25.099  0.00  0.00    +0.004 A 
ATOM     22  C   UNL     1      -5.100   3.568  25.221  0.00  0.00    +0.071 A 
ATOM     23  C   UNL     1      -5.343   2.822  24.968  0.00  0.00    +0.004 A 
ATOM     24  C   UNL     1      -4.807   2.319  24.592  0.00  0.00    +0.003 A 
BRANCH  22  25
ATOM     25  C   UNL     1      -5.637   4.070  25.597  0.00  0.00    +0.419 C 
ATOM     26  F   UNL     1      -6.173   4.572  25.972  0.00  0.00    -0.166 F 
ATOM     27  F   UNL     1      -5.389   4.695  25.117  0.00  0.00    -0.166 F 
ATOM     28  F   UNL     1      -5.885   3.445  26.075  0.00  0.00    -0.166 F 
ENDBRANCH  22  25
ENDBRANCH  16  19
ENDBRANCH  13  14
BRANCH   8   7
ATOM      7  C   UNL     1      -2.768  -0.209  24.726  0.00  0.00    +0.138 C 
BRANCH   7   6
ATOM      3  C   UNL     1      -3.418  -2.238  24.589  0.00  0.00    +0.156 A 
ATOM      4  C   UNL     1      -3.310  -2.160  25.403  0.00  0.00    +0.038 A 
ATOM      5  C   UNL     1      -3.053  -1.390  25.553  0.00  0.00    +0.037 A 
ATOM      6  C   UNL     1      -3.003  -0.992  24.832  0.00  0.00    +0.139 A 
ATOM     32  O   UNL     1      -3.228  -1.516  24.236  0.00  0.00    -0.458 OA
BRANCH   3   2
ATOM      1  O   UNL     1      -4.385  -2.912  23.780  0.00  0.00    -0.212 OA
ATOM      2  C   UNL     1      -3.672  -2.917  24.196  0.00  0.00    +0.246 C 
ENDBRANCH   3   2
ENDBRANCH   7   6
ENDBRANCH   8   7
TORSDOF 6
ENDMDL
MODEL 5
REMARK VINA RESULT:     -10.6      2.900      4.700
REMARK  Name = 
REMARK  6 active torsions:
REMARK  status: ('A' for Active; 'I' for Inactive)
REMARK    1  A    between atoms: C_2  and  C_3
REMARK    2  A    between atoms: C_6  and  C_7
REMARK    3  A    between atoms: C_7  and  N_8
REMARK    4  A    between atoms: C_13  and  C_14
REMARK    5  A    between atoms: C_16  and  C_19
REMARK    6  A    between atoms: C_22  and  C_25
REMARK                            x       y       z     vdW  Elec       q    Type
REMARK                         _______ _______ _______ _____ _____    ______ ____
ROOT
ATOM      8  N   UNL     1      -1.398   0.396  24.443  0.00  0.00    -0.254 NA
ATOM      9  C   UNL     1      -0.792  -0.129  24.636  0.00  0.00    +0.121 C 
ATOM     10  C   UNL     1      -0.967  -0.915  24.814  0.00  0.00    +0.090 A 
ATOM     11  C   UNL     1      -1.749  -1.176  24.800  0.00  0.00    +0.077 A 
ATOM     12  C   UNL     1      -2.356  -0.651  24.607  0.00  0.00    +0.073 C 
ATOM     13  C   UNL     1      -2.180   0.135  24.429  0.00  0.00    +0.144 C 
ATOM     29  N   UNL     1      -1.755  -1.976  24.999  0.00  0.00    -0.227 NA
ATOM     30  C   UNL     1      -0.976  -2.210  25.137  0.00  0.00    +0.198 A 
ATOM     31  N   UNL     1      -0.490  -1.554  25.022  0.00  0.00    -0.226 NA
ENDROOT
BRANCH  13  14
ATOM     14  C   UNL     1      -2.787   0.659  24.236  0.00  0.00    +0.251 A 
ATOM     15  N   UNL     1      -3.193   1.147  24.763  0.00  0.00    -0.190 NA
ATOM     16  C   UNL     1      -3.752   1.577  24.335  0.00  0.00    +0.203 A 
ATOM     17  N   UNL     1      -3.691   1.355  23.543  0.00  0.00    -0.056 NA
ATOM     18  O   UNL     1      -3.095   0.788  23.481  0.00  0.00    -0.336 OA
BRANCH  16  19
ATOM     19  C   UNL     1      -4.278   2.132  24.644  0.00  0.00    +0.039 A 
ATOM     20  C   UNL     1      -4.039   2.914  24.749  0.00  0.00    +0.003 A 
ATOM     21  C   UNL     1      -4.567   3.468  25.059  0.00  0.00    +0.004 A 
ATOM     22  C   UNL     1      -5.332   3.240  25.264  0.00  0.00    +0.071 A 
ATOM     23  C   UNL     1      -5.571   2.457  25.160  0.00  0.00    +0.004 A 
ATOM     24  C   UNL     1      -5.044   1.903  24.850  0.00  0.00    +0.003 A 
BRANCH  22  25
ATOM     25  C   UNL     1      -5.859   3.794  25.574  0.00  0.00    +0.419 C 
ATOM     26  F   UNL     1      -6.386   4.347  25.885  0.00  0.00    -0.166 F 
ATOM     27  F   UNL     1      -6.179   3.214  26.067  0.00  0.00    -0.166 F 
ATOM     28  F   UNL     1      -5.539   4.373  25.082  0.00  0.00    -0.166 F 
ENDBRANCH  22  25
ENDBRANCH  16  19
ENDBRANCH  13  14
BRANCH   8   7
ATOM      7  C   UNL     1      -1.222   1.181  24.265  0.00  0.00    +0.138 C 
BRANCH   7   6
ATOM      3  C   UNL     1      -0.027   2.223  25.696  0.00  0.00    +0.156 A 
ATOM      4  C   UNL     1       0.487   2.192  25.051  0.00  0.00    +0.038 A 
ATOM      5  C   UNL     1       0.101   1.798  24.436  0.00  0.00    +0.037 A 
ATOM      6  C   UNL     1      -0.650   1.585  24.701  0.00  0.00    +0.139 A 
ATOM     32  O   UNL     1      -0.730   1.848  25.480  0.00  0.00    -0.458 OA
BRANCH   3   2
ATOM      1  O   UNL     1       0.908   2.584  26.714  0.00  0.00    -0.212 OA
ATOM      2  C   UNL     1       0.134   2.567  26.428  0.00  0.00    +0.246 C 
ENDBRANCH   3   2
ENDBRANCH   7   6
ENDBRANCH   8   7
TORSDOF 6
ENDMDL
