MODEL 1
REMARK VINA RESULT:     -10.1      0.000      0.000
REMARK  Name = 
REMARK  8 active torsions:
REMARK  status: ('A' for Active; 'I' for Inactive)
REMARK    1  A    between atoms: C_2  and  N_4
REMARK    2  A    between atoms: C_5  and  C_7
REMARK    3  A    between atoms: C_7  and  C_8
REMARK    4  A    between atoms: C_8  and  C_9
REMARK    5  A    between atoms: C_16  and  N_19
REMARK    6  A    between atoms: N_19  and  C_20
REMARK    7  A    between atoms: C_20  and  C_21
REMARK    8  A    between atoms: C_24  and  N_27
REMARK                            x       y       z     vdW  Elec       q    Type
REMARK                         _______ _______ _______ _____ _____    ______ ____
ROOT
ATOM      9  C   UNL     1      -4.330   3.370  25.143  0.00  0.00    +0.080 C 
ATOM     10  C   UNL     1      -4.794   3.954  25.495  0.00  0.00    +0.131 C 
ATOM     11  N   UNL     1      -5.516   3.755  25.841  0.00  0.00    -0.203 NA
ATOM     12  C   UNL     1      -5.774   2.971  25.834  0.00  0.00    +0.256 C 
ATOM     13  O   UNL     1      -6.496   2.772  26.179  0.00  0.00    -0.272 OA
ATOM     14  C   UNL     1      -5.310   2.387  25.481  0.00  0.00    +0.138 C 
ATOM     15  C   UNL     1      -5.420   1.574  25.391  0.00  0.00    +0.044 C 
ATOM     16  C   UNL     1      -4.766   1.271  24.989  0.00  0.00    +0.091 C 
ATOM     17  C   UNL     1      -4.252   1.897  24.832  0.00  0.00    +0.090 C 
ATOM     18  N   UNL     1      -4.588   2.587  25.136  0.00  0.00    -0.265 NA
ENDROOT
BRANCH   9   8
ATOM      8  C   UNL     1      -3.608   3.570  24.798  0.00  0.00    +0.027 C 
BRANCH   8   7
ATOM      7  C   UNL     1      -3.092   4.082  25.187  0.00  0.00    +0.088 C 
BRANCH   7   5
ATOM      4  N   UNL     1      -1.753   4.539  25.388  0.00  0.00    -0.207 NA
ATOM      5  C   UNL     1      -2.322   4.180  24.910  0.00  0.00    +0.241 C 
ATOM      6  O   UNL     1      -2.119   3.921  24.153  0.00  0.00    -0.273 OA
BRANCH   4   2
ATOM      1  C   UNL     1      -0.443   4.016  25.160  0.00  0.00    +0.023 C 
ATOM      2  C   UNL     1      -0.982   4.638  25.111  0.00  0.00    +0.095 C 
ATOM      3  C   UNL     1      -0.751   5.359  24.786  0.00  0.00    +0.023 C 
ENDBRANCH   4   2
ENDBRANCH   7   5
ENDBRANCH   8   7
ENDBRANCH   9   8
BRANCH  16  19
ATOM     19  N   UNL     1      -4.647   0.482  24.782  0.00  0.00    -0.213 NA
BRANCH  19  20
ATOM     20  C   UNL     1      -4.368  -0.055  25.343  0.00  0.00    +0.115 C 
BRANCH  20  21
ATOM     21  C   UNL     1      -4.004  -0.754  25.098  0.00  0.00    -0.005 A 
ATOM     22  C   UNL     1      -4.188  -1.079  24.363  0.00  0.00    -0.002 A 
ATOM     23  C   UNL     1      -3.825  -1.778  24.117  0.00  0.00    +0.014 A 
ATOM     24  C   UNL     1      -3.277  -2.152  24.608  0.00  0.00    +0.048 A 
ATOM     25  C   UNL     1      -3.093  -1.827  25.344  0.00  0.00    +0.014 A 
ATOM     26  C   UNL     1      -3.457  -1.128  25.589  0.00  0.00    -0.002 A 
BRANCH  24  27
ATOM     27  N   UNL     1      -2.914  -2.851  24.363  0.00  0.00    -0.304 N 
ATOM     28  C   UNL     1      -3.369  -3.522  24.213  0.00  0.00    +0.112 C 
ATOM     29  C   UNL     1      -2.094  -2.878  24.267  0.00  0.00    +0.112 C 
ENDBRANCH  24  27
ENDBRANCH  20  21
ENDBRANCH  19  20
ENDBRANCH  16  19
TORSDOF 8
ENDMDL
MODEL 2
REMARK VINA RESULT:      -9.4      1.681      3.359
REMARK  Name = 
REMARK  8 active torsions:
REMARK  status: ('A' for Active; 'I' for Inactive)
REMARK    1  A    between atoms: C_2  and  N_4
REMARK    2  A    between atoms: C_5  and  C_7
REMARK    3  A    between atoms: C_7  and  C_8
REMARK    4  A    between atoms: C_8  and  C_9
REMARK    5  A    between atoms: C_16  and  N_19
REMARK    6  A    between atoms: N_19  and  C_20
REMARK    7  A    between atoms: C_20  and  C_21
REMARK    8  A    between atoms: C_24  and  N_27
REMARK                            x       y       z     vdW  Elec       q    Type
REMARK                         _______ _______ _______ _____ _____    ______ ____
ROOT
ATOM      9  C   UNL     1      -1.698   3.048  25.254  0.00  0.00    +0.080 C 
ATOM     10  C   UNL     1      -1.233   3.665  25.542  0.00  0.00    +0.131 C 
ATOM     11  N   UNL     1      -0.485   3.508  25.852  0.00  0.00    -0.203 NA
ATOM     12  C   UNL     1      -0.202   2.733  25.873  0.00  0.00    +0.256 C 
ATOM     13  O   UNL     1       0.547   2.577  26.183  0.00  0.00    -0.272 OA
ATOM     14  C   UNL     1      -0.667   2.116  25.585  0.00  0.00    +0.138 C 
ATOM     15  C   UNL     1      -0.535   1.303  25.534  0.00  0.00    +0.044 C 
ATOM     16  C   UNL     1      -1.203   0.958  25.192  0.00  0.00    +0.091 C 
ATOM     17  C   UNL     1      -1.746   1.558  25.033  0.00  0.00    +0.090 C 
ATOM     18  N   UNL     1      -1.415   2.274  25.275  0.00  0.00    -0.265 NA
ENDROOT
BRANCH   9   8
ATOM      8  C   UNL     1      -2.447   3.206  24.945  0.00  0.00    +0.027 C 
BRANCH   8   7
ATOM      7  C   UNL     1      -2.986   3.656  25.376  0.00  0.00    +0.088 C 
BRANCH   7   5
ATOM      4  N   UNL     1      -4.350   3.416  25.728  0.00  0.00    -0.207 NA
ATOM      5  C   UNL     1      -3.785   3.649  25.174  0.00  0.00    +0.241 C 
ATOM      6  O   UNL     1      -4.020   3.877  24.416  0.00  0.00    -0.273 OA
BRANCH   4   2
ATOM      1  C   UNL     1      -5.580   4.112  25.519  0.00  0.00    +0.023 C 
ATOM      2  C   UNL     1      -5.150   3.409  25.526  0.00  0.00    +0.095 C 
ATOM      3  C   UNL     1      -5.519   2.698  25.330  0.00  0.00    +0.023 C 
ENDBRANCH   4   2
ENDBRANCH   7   5
ENDBRANCH   8   7
ENDBRANCH   9   8
BRANCH  16  19
ATOM     19  N   UNL     1      -1.307   0.154  25.038  0.00  0.00    -0.213 NA
BRANCH  19  20
ATOM     20  C   UNL     1      -1.752  -0.311  25.555  0.00  0.00    +0.115 C 
BRANCH  20  21
ATOM     21  C   UNL     1      -2.220  -0.923  25.259  0.00  0.00    -0.005 A 
ATOM     22  C   UNL     1      -3.032  -0.928  25.407  0.00  0.00    -0.002 A 
ATOM     23  C   UNL     1      -3.501  -1.539  25.111  0.00  0.00    +0.014 A 
ATOM     24  C   UNL     1      -3.158  -2.145  24.668  0.00  0.00    +0.048 A 
ATOM     25  C   UNL     1      -2.346  -2.139  24.520  0.00  0.00    +0.014 A 
ATOM     26  C   UNL     1      -1.878  -1.528  24.816  0.00  0.00    -0.002 A 
BRANCH  24  27
ATOM     27  N   UNL     1      -3.627  -2.756  24.372  0.00  0.00    -0.304 N 
ATOM     28  C   UNL     1      -4.256  -2.586  23.866  0.00  0.00    +0.112 C 
ATOM     29  C   UNL     1      -3.467  -3.538  24.584  0.00  0.00    +0.112 C 
ENDBRANCH  24  27
ENDBRANCH  20  21
ENDBRANCH  19  20
ENDBRANCH  16  19
TORSDOF 8
ENDMDL
MODEL 3
REMARK VINA RESULT:      -8.8      2.351      5.209
REMARK  Name = 
REMARK  8 active torsions:
REMARK  status: ('A' for Active; 'I' for Inactive)
REMARK    1  A    between atoms: C_2  and  N_4
REMARK    2  A    between atoms: C_5  and  C_7
REMARK    3  A    between atoms: C_7  and  C_8
REMARK    4  A    between atoms: C_8  and  C_9
REMARK    5  A    between atoms: C_16  and  N_19
REMARK    6  A    between atoms: N_19  and  C_20
REMARK    7  A    between atoms: C_20  and  C_21
REMARK    8  A    between atoms: C_24  and  N_27
REMARK                            x       y       z     vdW  Elec       q    Type
REMARK                         _______ _______ _______ _____ _____    ______ ____
ROOT
ATOM      9  C   UNL     1      -2.062  -1.764  24.604  0.00  0.00    +0.080 C 
ATOM     10  C   UNL     1      -2.015  -2.552  24.364  0.00  0.00    +0.131 C 
ATOM     11  N   UNL     1      -2.704  -2.993  24.257  0.00  0.00    -0.203 NA
ATOM     12  C   UNL     1      -3.441  -2.645  24.391  0.00  0.00    +0.256 C 
ATOM     13  O   UNL     1      -4.129  -3.087  24.285  0.00  0.00    -0.272 OA
ATOM     14  C   UNL     1      -3.488  -1.858  24.632  0.00  0.00    +0.138 C 
ATOM     15  C   UNL     1      -4.131  -1.371  24.805  0.00  0.00    +0.044 C 
ATOM     16  C   UNL     1      -3.839  -0.629  25.018  0.00  0.00    +0.091 C 
ATOM     17  C   UNL     1      -3.016  -0.658  24.977  0.00  0.00    +0.090 C 
ATOM     18  N   UNL     1      -2.798  -1.417  24.738  0.00  0.00    -0.265 NA
ENDROOT
BRANCH   9   8
ATOM      8  C   UNL     1      -1.373  -1.323  24.711  0.00  0.00    +0.027 C 
BRANCH   8   7
ATOM      7  C   UNL     1      -0.751  -1.394  24.174  0.00  0.00    +0.088 C 
BRANCH   7   5
ATOM      4  N   UNL     1       0.022  -0.476  23.397  0.00  0.00    -0.207 NA
ATOM      5  C   UNL     1      -0.177  -0.804  24.128  0.00  0.00    +0.241 C 
ATOM      6  O   UNL     1       0.200  -0.541  24.814  0.00  0.00    -0.273 OA
BRANCH   4   2
ATOM      1  C   UNL     1       1.345  -0.060  23.054  0.00  0.00    +0.023 C 
ATOM      2  C   UNL     1       0.596   0.115  23.351  0.00  0.00    +0.095 C 
ATOM      3  C   UNL     1       0.421   0.881  23.603  0.00  0.00    +0.023 C 
ENDBRANCH   4   2
ENDBRANCH   7   5
ENDBRANCH   8   7
ENDBRANCH   9   8
BRANCH  16  19
ATOM     19  N   UNL     1      -4.292   0.025  25.235  0.00  0.00    -0.213 NA
BRANCH  19  20
ATOM     20  C   UNL     1      -4.546   0.560  24.660  0.00  0.00    +0.115 C 
BRANCH  20  21
ATOM     21  C   UNL     1      -4.684   1.348  24.862  0.00  0.00    -0.005 A 
ATOM     22  C   UNL     1      -4.230   1.946  24.520  0.00  0.00    -0.002 A 
ATOM     23  C   UNL     1      -4.367   2.734  24.721  0.00  0.00    +0.014 A 
ATOM     24  C   UNL     1      -4.957   2.924  25.266  0.00  0.00    +0.048 A 
ATOM     25  C   UNL     1      -5.411   2.326  25.609  0.00  0.00    +0.014 A 
ATOM     26  C   UNL     1      -5.273   1.538  25.406  0.00  0.00    -0.002 A 
BRANCH  24  27
ATOM     27  N   UNL     1      -5.094   3.713  25.467  0.00  0.00    -0.304 N 
ATOM     28  C   UNL     1      -4.461   4.203  25.668  0.00  0.00    +0.112 C 
ATOM     29  C   UNL     1      -5.864   4.010  25.468  0.00  0.00    +0.112 C 
ENDBRANCH  24  27
ENDBRANCH  20  21
ENDBRANCH  19  20
ENDBRANCH  16  19
TORSDOF 8
ENDMDL
MODEL 4
REMARK VINA RESULT:      -8.6      2.416      5.954
REMARK  Name = 
REMARK  8 active torsions:
REMARK  status: ('A' for Active; 'I' for Inactive)
REMARK    1  A    between atoms: C_2  and  N_4
REMARK    2  A    between atoms: C_5  and  C_7
REMARK    3  A    between atoms: C_7  and  C_8
REMARK    4  A    between atoms: C_8  and  C_9
REMARK    5  A    between atoms: C_16  and  N_19
REMARK    6  A    between atoms: N_19  and  C_20
REMARK    7  A    between atoms: C_20  and  C_21
REMARK    8  A    between atoms: C_24  and  N_27
REMARK                            x       y       z     vdW  Elec       q    Type
REMARK                         _______ _______ _______ _____ _____    ______ ____
ROOT
ATOM      9  C   UNL     1      -0.800  -0.390  24.531  0.00  0.00    +0.080 C 
ATOM     10  C   UNL     1      -0.135  -0.706  24.159  0.00  0.00    +0.131 C 
ATOM     11  N   UNL     1       0.411  -0.206  23.796  0.00  0.00    -0.203 NA
ATOM     12  C   UNL     1       0.293   0.612  23.806  0.00  0.00    +0.256 C 
ATOM     13  O   UNL     1       0.839   1.112  23.444  0.00  0.00    -0.272 OA
ATOM     14  C   UNL     1      -0.373   0.927  24.179  0.00  0.00    +0.138 C 
ATOM     15  C   UNL     1      -0.634   1.703  24.277  0.00  0.00    +0.044 C 
ATOM     16  C   UNL     1      -1.343   1.682  24.700  0.00  0.00    +0.091 C 
ATOM     17  C   UNL     1      -1.518   0.893  24.863  0.00  0.00    +0.090 C 
ATOM     18  N   UNL     1      -0.919   0.426  24.541  0.00  0.00    -0.265 NA
ENDROOT
BRANCH   9   8
ATOM      8  C   UNL     1      -1.347  -0.891  24.893  0.00  0.00    +0.027 C 
BRANCH   8   7
ATOM      7  C   UNL     1      -1.554  -1.604  24.535  0.00  0.00    +0.088 C 
BRANCH   7   5
ATOM      4  N   UNL     1      -2.758  -2.228  24.085  0.00  0.00    -0.207 NA
ATOM      5  C   UNL     1      -2.282  -1.953  24.700  0.00  0.00    +0.241 C 
ATOM      6  O   UNL     1      -2.536  -2.027  25.482  0.00  0.00    -0.273 OA
BRANCH   4   2
ATOM      1  C   UNL     1      -3.518  -3.337  24.570  0.00  0.00    +0.023 C 
ATOM      2  C   UNL     1      -3.487  -2.578  24.250  0.00  0.00    +0.095 C 
ATOM      3  C   UNL     1      -4.185  -2.166  24.095  0.00  0.00    +0.023 C 
ENDBRANCH   4   2
ENDBRANCH   7   5
ENDBRANCH   8   7
ENDBRANCH   9   8
BRANCH  16  19
ATOM     19  N   UNL     1      -1.795   2.336  24.920  0.00  0.00    -0.213 NA
BRANCH  19  20
ATOM     20  C   UNL     1      -2.354   2.646  24.399  0.00  0.00    +0.115 C 
BRANCH  20  21
ATOM     21  C   UNL     1      -3.096   2.873  24.679  0.00  0.00    -0.005 A 
ATOM     22  C   UNL     1      -3.779   2.600  24.305  0.00  0.00    -0.002 A 
ATOM     23  C   UNL     1      -4.522   2.826  24.584  0.00  0.00    +0.014 A 
ATOM     24  C   UNL     1      -4.581   3.326  25.238  0.00  0.00    +0.048 A 
ATOM     25  C   UNL     1      -3.898   3.600  25.612  0.00  0.00    +0.014 A 
ATOM     26  C   UNL     1      -3.156   3.372  25.332  0.00  0.00    -0.002 A 
BRANCH  24  27
ATOM     27  N   UNL     1      -5.324   3.553  25.517  0.00  0.00    -0.304 N 
ATOM     28  C   UNL     1      -5.555   4.344  25.482  0.00  0.00    +0.112 C 
ATOM     29  C   UNL     1      -5.836   2.987  25.832  0.00  0.00    +0.112 C 
ENDBRANCH  24  27
ENDBRANCH  20  21
ENDBRANCH  19  20
ENDBRANCH  16  19
TORSDOF 8
ENDMDL
MODEL 5
REMARK VINA RESULT:      -8.1      1.486      3.437
REMARK  Name = 
REMARK  8 active torsions:
REMARK  status: ('A' for Active; 'I' for Inactive)
REMARK    1  A    between atoms: C_2  and  N_4
REMARK    2  A    between atoms: C_5  and  C_7
REMARK    3  A    between atoms: C_7  and  C_8
REMARK    4  A    between atoms: C_8  and  C_9
REMARK    5  A    between atoms: C_16  and  N_19
REMARK    6  A    between atoms: N_19  and  C_20
REMARK    7  A    between atoms: C_20  and  C_21
REMARK    8  A    between atoms: C_24  and  N_27
REMARK                            x       y       z     vdW  Elec       q    Type
REMARK                         _______ _______ _______ _____ _____    ______ ____
ROOT
ATOM      9  C   UNL     1      -2.714   3.715  25.047  0.00  0.00    +0.080 C 
ATOM     10  C   UNL     1      -2.486   4.495  25.192  0.00  0.00    +0.131 C 
ATOM     11  N   UNL     1      -1.687   4.682  25.279  0.00  0.00    -0.203 NA
ATOM     12  C   UNL     1      -1.116   4.088  25.221  0.00  0.00    +0.256 C 
ATOM     13  O   UNL     1      -0.317   4.276  25.308  0.00  0.00    -0.272 OA
ATOM     14  C   UNL     1      -1.344   3.309  25.076  0.00  0.00    +0.138 C 
ATOM     15  C   UNL     1      -0.909   2.613  24.991  0.00  0.00    +0.044 C 
ATOM     16  C   UNL     1      -1.440   1.996  24.852  0.00  0.00    +0.091 C 
ATOM     17  C   UNL     1      -2.202   2.312  24.851  0.00  0.00    +0.090 C 
ATOM     18  N   UNL     1      -2.143   3.123  24.989  0.00  0.00    -0.265 NA
ENDROOT
BRANCH   9   8
ATOM      8  C   UNL     1      -3.513   3.529  24.961  0.00  0.00    +0.027 C 
BRANCH   8   7
ATOM      7  C   UNL     1      -4.034   3.643  25.589  0.00  0.00    +0.088 C 
BRANCH   7   5
ATOM      4  N   UNL     1      -4.966   2.566  25.713  0.00  0.00    -0.207 NA
ATOM      5  C   UNL     1      -4.806   3.358  25.542  0.00  0.00    +0.241 C 
ATOM      6  O   UNL     1      -5.420   3.864  25.323  0.00  0.00    -0.273 OA
BRANCH   4   2
ATOM      1  C   UNL     1      -6.234   2.319  26.323  0.00  0.00    +0.023 C 
ATOM      2  C   UNL     1      -5.739   2.281  25.665  0.00  0.00    +0.095 C 
ATOM      3  C   UNL     1      -6.015   1.956  24.959  0.00  0.00    +0.023 C 
ENDBRANCH   4   2
ENDBRANCH   7   5
ENDBRANCH   8   7
ENDBRANCH   9   8
BRANCH  16  19
ATOM     19  N   UNL     1      -1.241   1.204  24.735  0.00  0.00    -0.213 NA
BRANCH  19  20
ATOM     20  C   UNL     1      -1.367   0.654  25.336  0.00  0.00    +0.115 C 
BRANCH  20  21
ATOM     21  C   UNL     1      -1.601  -0.115  25.148  0.00  0.00    -0.005 A 
ATOM     22  C   UNL     1      -2.368  -0.366  25.321  0.00  0.00    -0.002 A 
ATOM     23  C   UNL     1      -2.603  -1.134  25.134  0.00  0.00    +0.014 A 
ATOM     24  C   UNL     1      -2.071  -1.652  24.773  0.00  0.00    +0.048 A 
ATOM     25  C   UNL     1      -1.304  -1.401  24.601  0.00  0.00    +0.014 A 
ATOM     26  C   UNL     1      -1.070  -0.632  24.789  0.00  0.00    -0.002 A 
BRANCH  24  27
ATOM     27  N   UNL     1      -2.306  -2.420  24.586  0.00  0.00    -0.304 N 
ATOM     28  C   UNL     1      -1.773  -2.941  24.232  0.00  0.00    +0.112 C 
ATOM     29  C   UNL     1      -3.076  -2.668  24.753  0.00  0.00    +0.112 C 
ENDBRANCH  24  27
ENDBRANCH  20  21
ENDBRANCH  19  20
ENDBRANCH  16  19
TORSDOF 8
ENDMDL
MODEL 6
REMARK VINA RESULT:      -8.1      3.293      4.771
REMARK  Name = 
REMARK  8 active torsions:
REMARK  status: ('A' for Active; 'I' for Inactive)
REMARK    1  A    between atoms: C_2  and  N_4
REMARK    2  A    between atoms: C_5  and  C_7
REMARK    3  A    between atoms: C_7  and  C_8
REMARK    4  A    between atoms: C_8  and  C_9
REMARK    5  A    between atoms: C_16  and  N_19
REMARK    6  A    between atoms: N_19  and  C_20
REMARK    7  A    between atoms: C_20  and  C_21
REMARK    8  A    between atoms: C_24  and  N_27
REMARK                            x       y       z     vdW  Elec       q    Type
REMARK                         _______ _______ _______ _____ _____    ______ ____
ROOT
ATOM      9  C   UNL     1      -3.479   0.030  24.855  0.00  0.00    +0.080 C 
ATOM     10  C   UNL     1      -4.096  -0.467  25.084  0.00  0.00    +0.131 C 
ATOM     11  N   UNL     1      -3.956  -1.270  25.206  0.00  0.00    -0.203 NA
ATOM     12  C   UNL     1      -3.197  -1.577  25.099  0.00  0.00    +0.256 C 
ATOM     13  O   UNL     1      -3.057  -2.381  25.222  0.00  0.00    -0.272 OA
ATOM     14  C   UNL     1      -2.580  -1.081  24.870  0.00  0.00    +0.138 C 
ATOM     15  C   UNL     1      -1.781  -1.225  24.723  0.00  0.00    +0.044 C 
ATOM     16  C   UNL     1      -1.428  -0.510  24.510  0.00  0.00    +0.091 C 
ATOM     17  C   UNL     1      -2.009   0.075  24.525  0.00  0.00    +0.090 C 
ATOM     18  N   UNL     1      -2.721  -0.277  24.748  0.00  0.00    -0.265 NA
ENDROOT
BRANCH   9   8
ATOM      8  C   UNL     1      -3.620   0.834  24.733  0.00  0.00    +0.027 C 
BRANCH   8   7
ATOM      7  C   UNL     1      -4.325   1.173  24.993  0.00  0.00    +0.088 C 
BRANCH   7   5
ATOM      4  N   UNL     1      -4.618   2.431  25.605  0.00  0.00    -0.207 NA
ATOM      5  C   UNL     1      -4.437   1.988  24.933  0.00  0.00    +0.241 C 
ATOM      6  O   UNL     1      -4.369   2.361  24.200  0.00  0.00    -0.273 OA
BRANCH   4   2
ATOM      1  C   UNL     1      -5.492   3.554  25.477  0.00  0.00    +0.023 C 
ATOM      2  C   UNL     1      -4.730   3.246  25.546  0.00  0.00    +0.095 C 
ATOM      3  C   UNL     1      -4.080   3.753  25.556  0.00  0.00    +0.023 C 
ENDBRANCH   4   2
ENDBRANCH   7   5
ENDBRANCH   8   7
ENDBRANCH   9   8
BRANCH  16  19
ATOM     19  N   UNL     1      -0.634  -0.401  24.316  0.00  0.00    -0.213 NA
BRANCH  19  20
ATOM     20  C   UNL     1      -0.404   0.252  23.866  0.00  0.00    +0.115 C 
BRANCH  20  21
ATOM     21  C   UNL     1       0.355   0.283  23.544  0.00  0.00    -0.005 A 
ATOM     22  C   UNL     1       0.613  -0.316  23.039  0.00  0.00    -0.002 A 
ATOM     23  C   UNL     1       1.372  -0.285  22.716  0.00  0.00    +0.014 A 
ATOM     24  C   UNL     1       1.873   0.345  22.899  0.00  0.00    +0.048 A 
ATOM     25  C   UNL     1       1.614   0.944  23.404  0.00  0.00    +0.014 A 
ATOM     26  C   UNL     1       0.855   0.913  23.726  0.00  0.00    -0.002 A 
BRANCH  24  27
ATOM     27  N   UNL     1       2.631   0.376  22.576  0.00  0.00    -0.304 N 
ATOM     28  C   UNL     1       2.794  -0.012  21.866  0.00  0.00    +0.112 C 
ATOM     29  C   UNL     1       3.227   0.795  22.964  0.00  0.00    +0.112 C 
ENDBRANCH  24  27
ENDBRANCH  20  21
ENDBRANCH  19  20
ENDBRANCH  16  19
TORSDOF 8
ENDMDL
MODEL 7
REMARK VINA RESULT:      -6.6     16.052     19.409
REMARK  Name = 
REMARK  8 active torsions:
REMARK  status: ('A' for Active; 'I' for Inactive)
REMARK    1  A    between atoms: C_2  and  N_4
REMARK    2  A    between atoms: C_5  and  C_7
REMARK    3  A    between atoms: C_7  and  C_8
REMARK    4  A    between atoms: C_8  and  C_9
REMARK    5  A    between atoms: C_16  and  N_19
REMARK    6  A    between atoms: N_19  and  C_20
REMARK    7  A    between atoms: C_20  and  C_21
REMARK    8  A    between atoms: C_24  and  N_27
REMARK                            x       y       z     vdW  Elec       q    Type
REMARK                         _______ _______ _______ _____ _____    ______ ____
ROOT
ATOM      9  C   UNL     1      14.199   7.416  17.629  0.00  0.00    +0.080 C 
ATOM     10  C   UNL     1      14.541   7.518  16.886  0.00  0.00    +0.131 C 
ATOM     11  N   UNL     1      14.143   7.947  16.304  0.00  0.00    -0.203 NA
ATOM     12  C   UNL     1      13.402   8.273  16.466  0.00  0.00    +0.256 C 
ATOM     13  O   UNL     1      13.004   8.701  15.884  0.00  0.00    -0.272 OA
ATOM     14  C   UNL     1      13.060   8.170  17.210  0.00  0.00    +0.138 C 
ATOM     15  C   UNL     1      12.343   8.425  17.528  0.00  0.00    +0.044 C 
ATOM     16  C   UNL     1      12.298   8.154  18.306  0.00  0.00    +0.091 C 
ATOM     17  C   UNL     1      12.987   7.732  18.468  0.00  0.00    +0.090 C 
ATOM     18  N   UNL     1      13.459   7.741  17.791  0.00  0.00    -0.265 NA
ENDROOT
BRANCH   9   8
ATOM      8  C   UNL     1      14.598   6.987  18.211  0.00  0.00    +0.027 C 
BRANCH   8   7
ATOM      7  C   UNL     1      15.378   7.175  18.400  0.00  0.00    +0.088 C 
BRANCH   7   5
ATOM      4  N   UNL     1      16.242   7.217  19.537  0.00  0.00    -0.207 NA
ATOM      5  C   UNL     1      15.754   6.792  19.026  0.00  0.00    +0.241 C 
ATOM      6  O   UNL     1      15.642   5.983  19.141  0.00  0.00    -0.273 OA
BRANCH   4   2
ATOM      1  C   UNL     1      17.313   6.408  20.030  0.00  0.00    +0.023 C 
ATOM      2  C   UNL     1      16.619   6.834  20.163  0.00  0.00    +0.095 C 
ATOM      3  C   UNL     1      16.302   6.878  20.923  0.00  0.00    +0.023 C 
ENDBRANCH   4   2
ENDBRANCH   7   5
ENDBRANCH   8   7
ENDBRANCH   9   8
BRANCH  16  19
ATOM     19  N   UNL     1      11.673   8.283  18.828  0.00  0.00    -0.213 NA
BRANCH  19  20
ATOM     20  C   UNL     1      11.742   8.852  19.422  0.00  0.00    +0.115 C 
BRANCH  20  21
ATOM     21  C   UNL     1      11.441   8.700  20.175  0.00  0.00    -0.005 A 
ATOM     22  C   UNL     1      11.752   9.093  20.830  0.00  0.00    -0.002 A 
ATOM     23  C   UNL     1      11.453   8.942  21.584  0.00  0.00    +0.014 A 
ATOM     24  C   UNL     1      10.840   8.397  21.682  0.00  0.00    +0.048 A 
ATOM     25  C   UNL     1      10.528   8.004  21.027  0.00  0.00    +0.014 A 
ATOM     26  C   UNL     1      10.829   8.156  20.274  0.00  0.00    -0.002 A 
BRANCH  24  27
ATOM     27  N   UNL     1      10.540   8.246  22.435  0.00  0.00    -0.304 N 
ATOM     28  C   UNL     1      10.105   7.560  22.577  0.00  0.00    +0.112 C 
ATOM     29  C   UNL     1      10.677   8.782  23.048  0.00  0.00    +0.112 C 
ENDBRANCH  24  27
ENDBRANCH  20  21
ENDBRANCH  19  20
ENDBRANCH  16  19
TORSDOF 8
ENDMDL
