MODEL 1
REMARK VINA RESULT:      -7.8      0.000      0.000
REMARK  Name = 
REMARK  7 active torsions:
REMARK  status: ('A' for Active; 'I' for Inactive)
REMARK    1  A    between atoms: N_2  and  C_4
REMARK    2  A    between atoms: C_7  and  C_10
REMARK    3  A    between atoms: N_15  and  C_16
REMARK    4  A    between atoms: C_20  and  O_24
REMARK    5  A    between atoms: O_24  and  C_25
REMARK    6  A    between atoms: N_27  and  C_28
REMARK    7  A    between atoms: C_30  and  C_34
REMARK                            x       y       z     vdW  Elec       q    Type
REMARK                         _______ _______ _______ _____ _____    ______ ____
ROOT
ATOM     16  C   UNL     1      -0.377   0.725  23.718  0.00  0.00    +0.155 C 
ATOM     17  C   UNL     1      -0.757   1.059  23.067  0.00  0.00    +0.166 C 
ATOM     18  O   UNL     1      -1.567   0.924  23.149  0.00  0.00    -0.348 OA
ATOM     19  C   UNL     1      -1.687   0.507  23.849  0.00  0.00    +0.186 C 
ATOM     20  C   UNL     1      -2.261   0.165  24.334  0.00  0.00    +0.229 C 
ATOM     21  C   UNL     1      -1.880  -0.169  24.984  0.00  0.00    +0.188 C 
ATOM     22  O   UNL     1      -1.071  -0.034  24.903  0.00  0.00    -0.348 OA
ATOM     23  C   UNL     1      -0.951   0.384  24.201  0.00  0.00    +0.168 C 
ENDROOT
BRANCH  16  15
ATOM     10  C   UNL     1       2.287   0.116  22.880  0.00  0.00    +0.086 A 
ATOM     11  C   UNL     1       1.994  -0.200  22.176  0.00  0.00    +0.040 A 
ATOM     12  C   UNL     1       1.181  -0.206  22.034  0.00  0.00    +0.103 A 
ATOM     13  N   UNL     1       0.661   0.104  22.595  0.00  0.00    -0.211 NA
ATOM     14  C   UNL     1       0.956   0.420  23.299  0.00  0.00    +0.237 A 
ATOM     15  N   UNL     1       0.436   0.731  23.860  0.00  0.00    -0.200 NA
ATOM     36  N   UNL     1       1.768   0.426  23.440  0.00  0.00    -0.212 NA
BRANCH  10   7
ATOM      4  C   UNL     1       4.726   0.134  23.305  0.00  0.00    +0.048 A 
ATOM      5  C   UNL     1       4.278  -0.534  23.492  0.00  0.00    +0.015 A 
ATOM      6  C   UNL     1       3.466  -0.540  23.350  0.00  0.00    +0.003 A 
ATOM      7  C   UNL     1       3.100   0.122  23.021  0.00  0.00    +0.018 A 
ATOM      8  C   UNL     1       3.546   0.790  22.834  0.00  0.00    +0.003 A 
ATOM      9  C   UNL     1       4.359   0.796  22.976  0.00  0.00    +0.015 A 
BRANCH   4   2
ATOM      1  C   UNL     1       6.053  -0.216  22.909  0.00  0.00    +0.112 C 
ATOM      2  N   UNL     1       5.538   0.140  23.446  0.00  0.00    -0.304 N 
ATOM      3  C   UNL     1       5.836   0.501  24.126  0.00  0.00    +0.112 C 
ENDBRANCH   4   2
ENDBRANCH  10   7
ENDBRANCH  16  15
BRANCH  20  24
ATOM     24  O   UNL     1      -3.074   0.159  24.192  0.00  0.00    -0.432 OA
BRANCH  24  25
ATOM     25  C   UNL     1      -3.579   0.609  24.665  0.00  0.00    +0.425 C 
ATOM     26  O   UNL     1      -3.507   0.582  25.486  0.00  0.00    -0.224 OA
ATOM     27  N   UNL     1      -4.155   1.085  24.317  0.00  0.00    -0.142 NA
BRANCH  27  28
ATOM     28  C   UNL     1      -4.660   1.534  24.790  0.00  0.00    +0.077 A 
ATOM     29  C   UNL     1      -4.530   2.343  24.881  0.00  0.00    +0.027 A 
ATOM     30  C   UNL     1      -5.034   2.792  25.353  0.00  0.00    +0.070 A 
ATOM     31  C   UNL     1      -5.671   2.432  25.736  0.00  0.00    +0.010 A 
ATOM     32  C   UNL     1      -5.802   1.622  25.645  0.00  0.00    +0.002 A 
ATOM     33  C   UNL     1      -5.296   1.174  25.172  0.00  0.00    +0.017 A 
BRANCH  30  34
ATOM     34  C   UNL     1      -4.903   3.602  25.444  0.00  0.00    +0.100 C 
ATOM     35  N   UNL     1      -4.773   4.411  25.535  0.00  0.00    -0.191 NA
ENDBRANCH  30  34
ENDBRANCH  27  28
ENDBRANCH  24  25
ENDBRANCH  20  24
TORSDOF 7
ENDMDL
MODEL 2
REMARK VINA RESULT:      -7.7      1.365      7.877
REMARK  Name = 
REMARK  7 active torsions:
REMARK  status: ('A' for Active; 'I' for Inactive)
REMARK    1  A    between atoms: N_2  and  C_4
REMARK    2  A    between atoms: C_7  and  C_10
REMARK    3  A    between atoms: N_15  and  C_16
REMARK    4  A    between atoms: C_20  and  O_24
REMARK    5  A    between atoms: O_24  and  C_25
REMARK    6  A    between atoms: N_27  and  C_28
REMARK    7  A    between atoms: C_30  and  C_34
REMARK                            x       y       z     vdW  Elec       q    Type
REMARK                         _______ _______ _______ _____ _____    ______ ____
ROOT
ATOM     16  C   UNL     1      -0.851   0.265  24.336  0.00  0.00    +0.155 C 
ATOM     17  C   UNL     1      -0.764  -0.552  24.265  0.00  0.00    +0.166 C 
ATOM     18  O   UNL     1      -0.070  -0.698  23.844  0.00  0.00    -0.348 OA
ATOM     19  C   UNL     1       0.272   0.027  23.656  0.00  0.00    +0.186 C 
ATOM     20  C   UNL     1       0.912   0.387  23.279  0.00  0.00    +0.229 C 
ATOM     21  C   UNL     1       0.826   1.204  23.350  0.00  0.00    +0.188 C 
ATOM     22  O   UNL     1       0.132   1.350  23.771  0.00  0.00    -0.348 OA
ATOM     23  C   UNL     1      -0.211   0.623  23.960  0.00  0.00    +0.168 C 
ENDROOT
BRANCH  16  15
ATOM     10  C   UNL     1      -3.617   0.970  24.481  0.00  0.00    +0.086 A 
ATOM     11  C   UNL     1      -3.763   0.541  23.792  0.00  0.00    +0.040 A 
ATOM     12  C   UNL     1      -3.144   0.150  23.411  0.00  0.00    +0.103 A 
ATOM     13  N   UNL     1      -2.379   0.188  23.719  0.00  0.00    -0.211 NA
ATOM     14  C   UNL     1      -2.234   0.618  24.409  0.00  0.00    +0.237 A 
ATOM     15  N   UNL     1      -1.470   0.656  24.717  0.00  0.00    -0.200 NA
ATOM     36  N   UNL     1      -2.853   1.008  24.790  0.00  0.00    -0.212 NA
BRANCH  10   7
ATOM      4  C   UNL     1      -5.475   2.140  25.624  0.00  0.00    +0.048 A 
ATOM      5  C   UNL     1      -4.830   2.569  25.339  0.00  0.00    +0.015 A 
ATOM      6  C   UNL     1      -4.211   2.179  24.958  0.00  0.00    +0.003 A 
ATOM      7  C   UNL     1      -4.236   1.360  24.862  0.00  0.00    +0.018 A 
ATOM      8  C   UNL     1      -4.880   0.931  25.147  0.00  0.00    +0.003 A 
ATOM      9  C   UNL     1      -5.500   1.321  25.528  0.00  0.00    +0.015 A 
BRANCH   4   2
ATOM      1  C   UNL     1      -6.253   3.320  25.829  0.00  0.00    +0.112 C 
ATOM      2  N   UNL     1      -6.094   2.530  26.005  0.00  0.00    -0.304 N 
ATOM      3  C   UNL     1      -6.553   2.131  26.562  0.00  0.00    +0.112 C 
ENDBRANCH   4   2
ENDBRANCH  10   7
ENDBRANCH  16  15
BRANCH  20  24
ATOM     24  O   UNL     1       1.532  -0.004  22.898  0.00  0.00    -0.432 OA
BRANCH  24  25
ATOM     25  C   UNL     1       2.311   0.235  23.024  0.00  0.00    +0.425 C 
ATOM     26  O   UNL     1       2.466   0.965  23.377  0.00  0.00    -0.224 OA
ATOM     27  N   UNL     1       2.935  -0.254  22.798  0.00  0.00    -0.142 NA
BRANCH  27  28
ATOM     28  C   UNL     1       3.714  -0.014  22.925  0.00  0.00    +0.077 A 
ATOM     29  C   UNL     1       4.192  -0.427  23.455  0.00  0.00    +0.027 A 
ATOM     30  C   UNL     1       4.971  -0.188  23.582  0.00  0.00    +0.070 A 
ATOM     31  C   UNL     1       5.273   0.465  23.177  0.00  0.00    +0.010 A 
ATOM     32  C   UNL     1       4.795   0.878  22.646  0.00  0.00    +0.002 A 
ATOM     33  C   UNL     1       4.016   0.638  22.520  0.00  0.00    +0.017 A 
BRANCH  30  34
ATOM     34  C   UNL     1       5.449  -0.601  24.113  0.00  0.00    +0.100 C 
ATOM     35  N   UNL     1       5.926  -1.014  24.643  0.00  0.00    -0.191 NA
ENDBRANCH  30  34
ENDBRANCH  27  28
ENDBRANCH  24  25
ENDBRANCH  20  24
TORSDOF 7
ENDMDL
MODEL 3
REMARK VINA RESULT:      -5.3     15.790     17.154
REMARK  Name = 
REMARK  7 active torsions:
REMARK  status: ('A' for Active; 'I' for Inactive)
REMARK    1  A    between atoms: N_2  and  C_4
REMARK    2  A    between atoms: C_7  and  C_10
REMARK    3  A    between atoms: N_15  and  C_16
REMARK    4  A    between atoms: C_20  and  O_24
REMARK    5  A    between atoms: O_24  and  C_25
REMARK    6  A    between atoms: N_27  and  C_28
REMARK    7  A    between atoms: C_30  and  C_34
REMARK                            x       y       z     vdW  Elec       q    Type
REMARK                         _______ _______ _______ _____ _____    ______ ____
ROOT
ATOM     16  C   UNL     1      -6.572  -9.808  13.189  0.00  0.00    +0.155 C 
ATOM     17  C   UNL     1      -5.888  -9.564  12.798  0.00  0.00    +0.166 C 
ATOM     18  O   UNL     1      -6.034  -9.596  11.987  0.00  0.00    -0.348 OA
ATOM     19  C   UNL     1      -6.807  -9.859  11.876  0.00  0.00    +0.186 C 
ATOM     20  C   UNL     1      -7.376 -10.042  11.307  0.00  0.00    +0.229 C 
ATOM     21  C   UNL     1      -8.060 -10.286  11.698  0.00  0.00    +0.188 C 
ATOM     22  O   UNL     1      -7.914 -10.254  12.509  0.00  0.00    -0.348 OA
ATOM     23  C   UNL     1      -7.140  -9.990  12.620  0.00  0.00    +0.168 C 
ENDROOT
BRANCH  16  15
ATOM     10  C   UNL     1      -5.505 -10.372  15.780  0.00  0.00    +0.086 A 
ATOM     11  C   UNL     1      -4.775 -10.549  15.441  0.00  0.00    +0.040 A 
ATOM     12  C   UNL     1      -4.676 -10.497  14.623  0.00  0.00    +0.103 A 
ATOM     13  N   UNL     1      -5.308 -10.267  14.145  0.00  0.00    -0.211 NA
ATOM     14  C   UNL     1      -6.039 -10.090  14.485  0.00  0.00    +0.237 A 
ATOM     15  N   UNL     1      -6.671  -9.860  14.007  0.00  0.00    -0.200 NA
ATOM     36  N   UNL     1      -6.137 -10.142  15.302  0.00  0.00    -0.212 NA
BRANCH  10   7
ATOM      4  C   UNL     1      -5.801 -10.528  18.233  0.00  0.00    +0.048 A 
ATOM      5  C   UNL     1      -5.096 -10.781  17.884  0.00  0.00    +0.015 A 
ATOM      6  C   UNL     1      -4.998 -10.728  17.068  0.00  0.00    +0.003 A 
ATOM      7  C   UNL     1      -5.604 -10.424  16.597  0.00  0.00    +0.018 A 
ATOM      8  C   UNL     1      -6.308 -10.172  16.945  0.00  0.00    +0.003 A 
ATOM      9  C   UNL     1      -6.407 -10.224  17.762  0.00  0.00    +0.015 A 
BRANCH   4   2
ATOM      1  C   UNL     1      -5.248 -10.724  19.535  0.00  0.00    +0.112 C 
ATOM      2  N   UNL     1      -5.899 -10.581  19.050  0.00  0.00    -0.304 N 
ATOM      3  C   UNL     1      -6.649 -10.490  19.382  0.00  0.00    +0.112 C 
ENDBRANCH   4   2
ENDBRANCH  10   7
ENDBRANCH  16  15
BRANCH  20  24
ATOM     24  O   UNL     1      -7.277  -9.989  10.490  0.00  0.00    -0.432 OA
BRANCH  24  25
ATOM     25  C   UNL     1      -7.840  -9.598  10.030  0.00  0.00    +0.425 C 
ATOM     26  O   UNL     1      -8.638  -9.797  10.097  0.00  0.00    -0.224 OA
ATOM     27  N   UNL     1      -7.605  -9.008   9.504  0.00  0.00    -0.142 NA
BRANCH  27  28
ATOM     28  C   UNL     1      -8.168  -8.617   9.044  0.00  0.00    +0.077 A 
ATOM     29  C   UNL     1      -8.157  -7.794   8.990  0.00  0.00    +0.027 A 
ATOM     30  C   UNL     1      -8.719  -7.403   8.531  0.00  0.00    +0.070 A 
ATOM     31  C   UNL     1      -9.294  -7.835   8.125  0.00  0.00    +0.010 A 
ATOM     32  C   UNL     1      -9.305  -8.659   8.179  0.00  0.00    +0.002 A 
ATOM     33  C   UNL     1      -8.742  -9.049   8.639  0.00  0.00    +0.017 A 
BRANCH  30  34
ATOM     34  C   UNL     1      -8.708  -6.580   8.477  0.00  0.00    +0.100 C 
ATOM     35  N   UNL     1      -8.697  -5.757   8.424  0.00  0.00    -0.191 NA
ENDBRANCH  30  34
ENDBRANCH  27  28
ENDBRANCH  24  25
ENDBRANCH  20  24
TORSDOF 7
ENDMDL
MODEL 4
REMARK VINA RESULT:      -5.1     16.278     17.480
REMARK  Name = 
REMARK  7 active torsions:
REMARK  status: ('A' for Active; 'I' for Inactive)
REMARK    1  A    between atoms: N_2  and  C_4
REMARK    2  A    between atoms: C_7  and  C_10
REMARK    3  A    between atoms: N_15  and  C_16
REMARK    4  A    between atoms: C_20  and  O_24
REMARK    5  A    between atoms: O_24  and  C_25
REMARK    6  A    between atoms: N_27  and  C_28
REMARK    7  A    between atoms: C_30  and  C_34
REMARK                            x       y       z     vdW  Elec       q    Type
REMARK                         _______ _______ _______ _____ _____    ______ ____
ROOT
ATOM     16  C   UNL     1      -4.623 -10.210  11.294  0.00  0.00    +0.155 C 
ATOM     17  C   UNL     1      -4.207 -10.165  10.584  0.00  0.00    +0.166 C 
ATOM     18  O   UNL     1      -4.752 -10.211   9.966  0.00  0.00    -0.348 OA
ATOM     19  C   UNL     1      -5.504 -10.285  10.294  0.00  0.00    +0.186 C 
ATOM     20  C   UNL     1      -6.306 -10.359  10.117  0.00  0.00    +0.229 C 
ATOM     21  C   UNL     1      -6.723 -10.404  10.827  0.00  0.00    +0.188 C 
ATOM     22  O   UNL     1      -6.178 -10.358  11.444  0.00  0.00    -0.348 OA
ATOM     23  C   UNL     1      -5.425 -10.284  11.115  0.00  0.00    +0.168 C 
ENDROOT
BRANCH  16  15
ATOM     10  C   UNL     1      -2.370 -10.513  13.027  0.00  0.00    +0.086 A 
ATOM     11  C   UNL     1      -1.900 -10.714  12.380  0.00  0.00    +0.040 A 
ATOM     12  C   UNL     1      -2.228 -10.738  11.623  0.00  0.00    +0.103 A 
ATOM     13  N   UNL     1      -3.026 -10.562  11.513  0.00  0.00    -0.211 NA
ATOM     14  C   UNL     1      -3.497 -10.361  12.161  0.00  0.00    +0.237 A 
ATOM     15  N   UNL     1      -4.295 -10.185  12.051  0.00  0.00    -0.200 NA
ATOM     36  N   UNL     1      -3.169 -10.337  12.917  0.00  0.00    -0.212 NA
BRANCH  10   7
ATOM      4  C   UNL     1      -1.386 -10.439  15.297  0.00  0.00    +0.048 A 
ATOM      5  C   UNL     1      -0.953 -10.165  14.649  0.00  0.00    +0.015 A 
ATOM      6  C   UNL     1      -1.281 -10.190  13.893  0.00  0.00    +0.003 A 
ATOM      7  C   UNL     1      -2.042 -10.488  13.783  0.00  0.00    +0.018 A 
ATOM      8  C   UNL     1      -2.475 -10.762  14.429  0.00  0.00    +0.003 A 
ATOM      9  C   UNL     1      -2.147 -10.737  15.186  0.00  0.00    +0.015 A 
BRANCH   4   2
ATOM      1  C   UNL     1      -1.445 -10.780  16.682  0.00  0.00    +0.112 C 
ATOM      2  N   UNL     1      -1.058 -10.414  16.053  0.00  0.00    -0.304 N 
ATOM      3  C   UNL     1      -0.342 -10.024  16.180  0.00  0.00    +0.112 C 
ENDBRANCH   4   2
ENDBRANCH  10   7
ENDBRANCH  16  15
BRANCH  20  24
ATOM     24  O   UNL     1      -6.634 -10.384   9.360  0.00  0.00    -0.432 OA
BRANCH  24  25
ATOM     25  C   UNL     1      -7.393 -10.088   9.229  0.00  0.00    +0.425 C 
ATOM     26  O   UNL     1      -8.021 -10.340   9.700  0.00  0.00    -0.224 OA
ATOM     27  N   UNL     1      -7.524  -9.540   8.627  0.00  0.00    -0.142 NA
BRANCH  27  28
ATOM     28  C   UNL     1      -8.283  -9.243   8.496  0.00  0.00    +0.077 A 
ATOM     29  C   UNL     1      -8.438  -8.441   8.606  0.00  0.00    +0.027 A 
ATOM     30  C   UNL     1      -9.196  -8.145   8.475  0.00  0.00    +0.070 A 
ATOM     31  C   UNL     1      -9.801  -8.652   8.234  0.00  0.00    +0.010 A 
ATOM     32  C   UNL     1      -9.647  -9.455   8.124  0.00  0.00    +0.002 A 
ATOM     33  C   UNL     1      -8.888  -9.750   8.255  0.00  0.00    +0.017 A 
BRANCH  30  34
ATOM     34  C   UNL     1      -9.350  -7.342   8.585  0.00  0.00    +0.100 C 
ATOM     35  N   UNL     1      -9.504  -6.539   8.695  0.00  0.00    -0.191 NA
ENDBRANCH  30  34
ENDBRANCH  27  28
ENDBRANCH  24  25
ENDBRANCH  20  24
TORSDOF 7
ENDMDL
MODEL 5
REMARK VINA RESULT:      -4.4     16.362     17.453
REMARK  Name = 
REMARK  7 active torsions:
REMARK  status: ('A' for Active; 'I' for Inactive)
REMARK    1  A    between atoms: N_2  and  C_4
REMARK    2  A    between atoms: C_7  and  C_10
REMARK    3  A    between atoms: N_15  and  C_16
REMARK    4  A    between atoms: C_20  and  O_24
REMARK    5  A    between atoms: O_24  and  C_25
REMARK    6  A    between atoms: N_27  and  C_28
REMARK    7  A    between atoms: C_30  and  C_34
REMARK                            x       y       z     vdW  Elec       q    Type
REMARK                         _______ _______ _______ _____ _____    ______ ____
ROOT
ATOM     16  C   UNL     1      -4.170  -9.369   9.612  0.00  0.00    +0.155 C 
ATOM     17  C   UNL     1      -4.276 -10.176   9.475  0.00  0.00    +0.166 C 
ATOM     18  O   UNL     1      -5.076 -10.304   9.322  0.00  0.00    -0.348 OA
ATOM     19  C   UNL     1      -5.464  -9.578   9.364  0.00  0.00    +0.186 C 
ATOM     20  C   UNL     1      -6.198  -9.207   9.295  0.00  0.00    +0.229 C 
ATOM     21  C   UNL     1      -6.092  -8.401   9.432  0.00  0.00    +0.188 C 
ATOM     22  O   UNL     1      -5.292  -8.273   9.585  0.00  0.00    -0.348 OA
ATOM     23  C   UNL     1      -4.904  -9.000   9.543  0.00  0.00    +0.168 C 
ENDROOT
BRANCH  16  15
ATOM     10  C   UNL     1      -1.715  -9.290  11.074  0.00  0.00    +0.086 A 
ATOM     11  C   UNL     1      -1.918  -9.993  11.454  0.00  0.00    +0.040 A 
ATOM     12  C   UNL     1      -2.634 -10.365  11.279  0.00  0.00    +0.103 A 
ATOM     13  N   UNL     1      -3.146 -10.033  10.723  0.00  0.00    -0.211 NA
ATOM     14  C   UNL     1      -2.942  -9.329  10.343  0.00  0.00    +0.237 A 
ATOM     15  N   UNL     1      -3.454  -8.998   9.788  0.00  0.00    -0.200 NA
ATOM     36  N   UNL     1      -2.227  -8.958  10.518  0.00  0.00    -0.212 NA
BRANCH  10   7
ATOM      4  C   UNL     1       0.432  -8.176  11.601  0.00  0.00    +0.048 A 
ATOM      5  C   UNL     1       0.356  -8.620  10.909  0.00  0.00    +0.015 A 
ATOM      6  C   UNL     1      -0.359  -8.991  10.734  0.00  0.00    +0.003 A 
ATOM      7  C   UNL     1      -0.999  -8.919  11.249  0.00  0.00    +0.018 A 
ATOM      8  C   UNL     1      -0.924  -8.476  11.941  0.00  0.00    +0.003 A 
ATOM      9  C   UNL     1      -0.208  -8.104  12.116  0.00  0.00    +0.015 A 
BRANCH   4   2
ATOM      1  C   UNL     1       1.819  -7.972  11.328  0.00  0.00    +0.112 C 
ATOM      2  N   UNL     1       1.147  -7.805  11.776  0.00  0.00    -0.304 N 
ATOM      3  C   UNL     1       1.191  -7.266  12.400  0.00  0.00    +0.112 C 
ENDBRANCH   4   2
ENDBRANCH  10   7
ENDBRANCH  16  15
BRANCH  20  24
ATOM     24  O   UNL     1      -6.914  -9.579   9.119  0.00  0.00    -0.432 OA
BRANCH  24  25
ATOM     25  C   UNL     1      -7.626  -9.236   9.356  0.00  0.00    +0.425 C 
ATOM     26  O   UNL     1      -7.746  -9.040  10.148  0.00  0.00    -0.224 OA
ATOM     27  N   UNL     1      -8.218  -9.089   8.801  0.00  0.00    -0.142 NA
BRANCH  27  28
ATOM     28  C   UNL     1      -8.930  -8.746   9.038  0.00  0.00    +0.077 A 
ATOM     29  C   UNL     1      -9.087  -7.956   8.862  0.00  0.00    +0.027 A 
ATOM     30  C   UNL     1      -9.798  -7.613   9.098  0.00  0.00    +0.070 A 
ATOM     31  C   UNL     1     -10.355  -8.061   9.512  0.00  0.00    +0.010 A 
ATOM     32  C   UNL     1     -10.198  -8.852   9.689  0.00  0.00    +0.002 A 
ATOM     33  C   UNL     1      -9.486  -9.194   9.452  0.00  0.00    +0.017 A 
BRANCH  30  34
ATOM     34  C   UNL     1      -9.954  -6.822   8.921  0.00  0.00    +0.100 C 
ATOM     35  N   UNL     1     -10.111  -6.032   8.744  0.00  0.00    -0.191 NA
ENDBRANCH  30  34
ENDBRANCH  27  28
ENDBRANCH  24  25
ENDBRANCH  20  24
TORSDOF 7
ENDMDL
MODEL 6
REMARK VINA RESULT:      -3.9     17.244     18.316
REMARK  Name = 
REMARK  7 active torsions:
REMARK  status: ('A' for Active; 'I' for Inactive)
REMARK    1  A    between atoms: N_2  and  C_4
REMARK    2  A    between atoms: C_7  and  C_10
REMARK    3  A    between atoms: N_15  and  C_16
REMARK    4  A    between atoms: C_20  and  O_24
REMARK    5  A    between atoms: O_24  and  C_25
REMARK    6  A    between atoms: N_27  and  C_28
REMARK    7  A    between atoms: C_30  and  C_34
REMARK                            x       y       z     vdW  Elec       q    Type
REMARK                         _______ _______ _______ _____ _____    ______ ____
ROOT
ATOM     16  C   UNL     1      -7.067 -10.288   9.847  0.00  0.00    +0.155 C 
ATOM     17  C   UNL     1      -7.168 -10.625   9.101  0.00  0.00    +0.166 C 
ATOM     18  O   UNL     1      -7.858 -10.314   8.773  0.00  0.00    -0.348 OA
ATOM     19  C   UNL     1      -8.184  -9.787   9.316  0.00  0.00    +0.186 C 
ATOM     20  C   UNL     1      -8.811  -9.268   9.450  0.00  0.00    +0.229 C 
ATOM     21  C   UNL     1      -8.711  -8.932  10.196  0.00  0.00    +0.188 C 
ATOM     22  O   UNL     1      -8.021  -9.242  10.524  0.00  0.00    -0.348 OA
ATOM     23  C   UNL     1      -7.695  -9.771   9.980  0.00  0.00    +0.168 C 
ENDROOT
BRANCH  16  15
ATOM     10  C   UNL     1      -4.334  -9.954  10.613  0.00  0.00    +0.086 A 
ATOM     11  C   UNL     1      -4.207  -9.477   9.952  0.00  0.00    +0.040 A 
ATOM     12  C   UNL     1      -4.827  -9.322   9.430  0.00  0.00    +0.103 A 
ATOM     13  N   UNL     1      -5.574  -9.644   9.569  0.00  0.00    -0.211 NA
ATOM     14  C   UNL     1      -5.700 -10.121  10.230  0.00  0.00    +0.237 A 
ATOM     15  N   UNL     1      -6.447 -10.443  10.369  0.00  0.00    -0.200 NA
ATOM     36  N   UNL     1      -5.080 -10.276  10.752  0.00  0.00    -0.212 NA
BRANCH  10   7
ATOM      4  C   UNL     1      -2.473 -10.418  12.178  0.00  0.00    +0.048 A 
ATOM      5  C   UNL     1      -2.313 -10.229  11.391  0.00  0.00    +0.015 A 
ATOM      6  C   UNL     1      -2.933 -10.074  10.869  0.00  0.00    +0.003 A 
ATOM      7  C   UNL     1      -3.714 -10.108  11.134  0.00  0.00    +0.018 A 
ATOM      8  C   UNL     1      -3.874 -10.297  11.921  0.00  0.00    +0.003 A 
ATOM      9  C   UNL     1      -3.254 -10.452  12.443  0.00  0.00    +0.015 A 
BRANCH   4   2
ATOM      1  C   UNL     1      -1.076 -10.587  12.423  0.00  0.00    +0.112 C 
ATOM      2  N   UNL     1      -1.854 -10.572  12.700  0.00  0.00    -0.304 N 
ATOM      3  C   UNL     1      -2.010 -10.712  13.498  0.00  0.00    +0.112 C 
ENDBRANCH   4   2
ENDBRANCH  10   7
ENDBRANCH  16  15
BRANCH  20  24
ATOM     24  O   UNL     1      -9.432  -9.113   8.928  0.00  0.00    -0.432 OA
BRANCH  24  25
ATOM     25  C   UNL     1      -9.737  -8.349   8.864  0.00  0.00    +0.425 C 
ATOM     26  O   UNL     1     -10.492  -8.182   9.151  0.00  0.00    -0.224 OA
ATOM     27  N   UNL     1      -9.287  -7.753   8.515  0.00  0.00    -0.142 NA
BRANCH  27  28
ATOM     28  C   UNL     1      -9.592  -6.989   8.452  0.00  0.00    +0.077 A 
ATOM     29  C   UNL     1      -9.089  -6.338   8.503  0.00  0.00    +0.027 A 
ATOM     30  C   UNL     1      -9.394  -5.575   8.439  0.00  0.00    +0.070 A 
ATOM     31  C   UNL     1     -10.203  -5.461   8.324  0.00  0.00    +0.010 A 
ATOM     32  C   UNL     1     -10.707  -6.113   8.273  0.00  0.00    +0.002 A 
ATOM     33  C   UNL     1     -10.401  -6.877   8.336  0.00  0.00    +0.017 A 
BRANCH  30  34
ATOM     34  C   UNL     1      -8.890  -4.923   8.491  0.00  0.00    +0.100 C 
ATOM     35  N   UNL     1      -8.386  -4.272   8.542  0.00  0.00    -0.191 NA
ENDBRANCH  30  34
ENDBRANCH  27  28
ENDBRANCH  24  25
ENDBRANCH  20  24
TORSDOF 7
ENDMDL
