MODEL 1
REMARK VINA RESULT:     -10.7      0.000      0.000
REMARK  Name = 
REMARK  5 active torsions:
REMARK  status: ('A' for Active; 'I' for Inactive)
REMARK    1  A    between atoms: O_2  and  C_3
REMARK    2  A    between atoms: C_3  and  C_4
REMARK    3  A    between atoms: N_6  and  C_7
REMARK    4  A    between atoms: C_13  and  C_14
REMARK    5  A    between atoms: C_17  and  C_20
REMARK                            x       y       z     vdW  Elec       q    Type
REMARK                         _______ _______ _______ _____ _____    ______ ____
ROOT
ATOM      7  C   UNL     1      -3.732   1.186  24.274  0.00  0.00    +0.132 C 
ATOM      8  C   UNL     1      -4.096   1.922  24.347  0.00  0.00    +0.202 C 
ATOM      9  O   UNL     1      -3.801   2.639  24.067  0.00  0.00    -0.219 OA
ATOM     10  C   UNL     1      -4.808   1.815  24.750  0.00  0.00    +0.184 C 
ATOM     11  O   UNL     1      -5.349   2.408  24.943  0.00  0.00    -0.220 OA
ATOM     12  C   UNL     1      -4.884   1.013  24.925  0.00  0.00    +0.042 C 
ATOM     13  C   UNL     1      -4.219   0.623  24.631  0.00  0.00    +0.049 C 
ENDROOT
BRANCH  13  14
ATOM     14  C   UNL     1      -4.067  -0.186  24.684  0.00  0.00    -0.002 A 
ATOM     15  C   UNL     1      -3.764  -0.503  25.383  0.00  0.00    +0.095 A 
ATOM     16  N   UNL     1      -3.613  -1.313  25.436  0.00  0.00    -0.240 NA
ATOM     17  C   UNL     1      -3.765  -1.805  24.791  0.00  0.00    +0.153 A 
ATOM     18  C   UNL     1      -4.068  -1.487  24.092  0.00  0.00    +0.023 A 
ATOM     19  C   UNL     1      -4.219  -0.677  24.039  0.00  0.00    -0.001 A 
BRANCH  17  20
ATOM     20  C   UNL     1      -3.614  -2.613  24.844  0.00  0.00    +0.435 C 
ATOM     21  F   UNL     1      -3.463  -3.423  24.896  0.00  0.00    -0.164 F 
ATOM     22  F   UNL     1      -3.628  -2.562  25.667  0.00  0.00    -0.164 F 
ATOM     23  F   UNL     1      -3.600  -2.664  24.021  0.00  0.00    -0.164 F 
ENDBRANCH  17  20
ENDBRANCH  13  14
BRANCH   7   6
ATOM      4  C   UNL     1      -2.330   1.436  24.156  0.00  0.00    +0.272 C 
ATOM      5  O   UNL     1      -2.376   1.983  24.772  0.00  0.00    -0.271 OA
ATOM      6  N   UNL     1      -3.008   1.037  23.907  0.00  0.00    -0.202 NA
BRANCH   4   3
ATOM      3  C   UNL     1      -1.606   1.287  23.789  0.00  0.00    +0.229 C 
BRANCH   3   2
ATOM      1  C   UNL     1      -0.232   0.909  23.903  0.00  0.00    +0.175 C 
ATOM      2  O   UNL     1      -0.922   1.208  24.244  0.00  0.00    -0.342 OA
ENDBRANCH   3   2
ENDBRANCH   4   3
ENDBRANCH   7   6
TORSDOF 5
ENDMDL
MODEL 2
REMARK VINA RESULT:     -10.0      1.196      2.478
REMARK  Name = 
REMARK  5 active torsions:
REMARK  status: ('A' for Active; 'I' for Inactive)
REMARK    1  A    between atoms: O_2  and  C_3
REMARK    2  A    between atoms: C_3  and  C_4
REMARK    3  A    between atoms: N_6  and  C_7
REMARK    4  A    between atoms: C_13  and  C_14
REMARK    5  A    between atoms: C_17  and  C_20
REMARK                            x       y       z     vdW  Elec       q    Type
REMARK                         _______ _______ _______ _____ _____    ______ ____
ROOT
ATOM      7  C   UNL     1      -3.511   1.591  24.152  0.00  0.00    +0.132 C 
ATOM      8  C   UNL     1      -3.304   2.190  23.624  0.00  0.00    +0.202 C 
ATOM      9  O   UNL     1      -3.484   2.991  23.705  0.00  0.00    -0.219 OA
ATOM     10  C   UNL     1      -2.887   1.848  23.000  0.00  0.00    +0.184 C 
ATOM     11  O   UNL     1      -2.575   2.246  22.348  0.00  0.00    -0.220 OA
ATOM     12  C   UNL     1      -2.835   1.037  23.144  0.00  0.00    +0.042 C 
ATOM     13  C   UNL     1      -3.221   0.878  23.855  0.00  0.00    +0.049 C 
ENDROOT
BRANCH  13  14
ATOM     14  C   UNL     1      -3.303   0.137  24.208  0.00  0.00    -0.002 A 
ATOM     15  C   UNL     1      -2.805  -0.081  24.829  0.00  0.00    +0.095 A 
ATOM     16  N   UNL     1      -2.887  -0.824  25.181  0.00  0.00    -0.240 NA
ATOM     17  C   UNL     1      -3.466  -1.346  24.913  0.00  0.00    +0.153 A 
ATOM     18  C   UNL     1      -3.964  -1.127  24.292  0.00  0.00    +0.023 A 
ATOM     19  C   UNL     1      -3.882  -0.386  23.940  0.00  0.00    -0.001 A 
BRANCH  17  20
ATOM     20  C   UNL     1      -3.548  -2.087  25.264  0.00  0.00    +0.435 C 
ATOM     21  F   UNL     1      -3.630  -2.830  25.616  0.00  0.00    -0.164 F 
ATOM     22  F   UNL     1      -3.665  -1.727  25.997  0.00  0.00    -0.164 F 
ATOM     23  F   UNL     1      -3.431  -2.448  24.532  0.00  0.00    -0.164 F 
ENDBRANCH  17  20
ENDBRANCH  13  14
BRANCH   7   6
ATOM      4  C   UNL     1      -4.662   2.075  24.846  0.00  0.00    +0.272 C 
ATOM      5  O   UNL     1      -4.969   2.364  24.137  0.00  0.00    -0.271 OA
ATOM      6  N   UNL     1      -3.934   1.688  24.854  0.00  0.00    -0.202 NA
BRANCH   4   3
ATOM      3  C   UNL     1      -5.085   2.172  25.549  0.00  0.00    +0.229 C 
BRANCH   3   2
ATOM      1  C   UNL     1      -6.310   2.059  26.276  0.00  0.00    +0.175 C 
ATOM      2  O   UNL     1      -5.901   2.049  25.559  0.00  0.00    -0.342 OA
ENDBRANCH   3   2
ENDBRANCH   4   3
ENDBRANCH   7   6
TORSDOF 5
ENDMDL
MODEL 3
REMARK VINA RESULT:     -10.0      3.450      4.538
REMARK  Name = 
REMARK  5 active torsions:
REMARK  status: ('A' for Active; 'I' for Inactive)
REMARK    1  A    between atoms: O_2  and  C_3
REMARK    2  A    between atoms: C_3  and  C_4
REMARK    3  A    between atoms: N_6  and  C_7
REMARK    4  A    between atoms: C_13  and  C_14
REMARK    5  A    between atoms: C_17  and  C_20
REMARK                            x       y       z     vdW  Elec       q    Type
REMARK                         _______ _______ _______ _____ _____    ______ ____
ROOT
ATOM      7  C   UNL     1      -4.110   2.197  24.866  0.00  0.00    +0.132 C 
ATOM      8  C   UNL     1      -4.873   1.914  24.994  0.00  0.00    +0.202 C 
ATOM      9  O   UNL     1      -5.163   1.177  24.761  0.00  0.00    -0.219 OA
ATOM     10  C   UNL     1      -5.298   2.496  25.396  0.00  0.00    +0.184 C 
ATOM     11  O   UNL     1      -6.085   2.444  25.636  0.00  0.00    -0.220 OA
ATOM     12  C   UNL     1      -4.795   3.139  25.516  0.00  0.00    +0.042 C 
ATOM     13  C   UNL     1      -4.061   2.954  25.188  0.00  0.00    +0.049 C 
ENDROOT
BRANCH  13  14
ATOM     14  C   UNL     1      -3.395   3.441  25.184  0.00  0.00    -0.002 A 
ATOM     15  C   UNL     1      -3.166   3.821  24.488  0.00  0.00    +0.095 A 
ATOM     16  N   UNL     1      -2.500   4.309  24.486  0.00  0.00    -0.240 NA
ATOM     17  C   UNL     1      -2.063   4.416  25.177  0.00  0.00    +0.153 A 
ATOM     18  C   UNL     1      -2.293   4.036  25.873  0.00  0.00    +0.023 A 
ATOM     19  C   UNL     1      -2.959   3.549  25.876  0.00  0.00    -0.001 A 
BRANCH  17  20
ATOM     20  C   UNL     1      -1.398   4.903  25.174  0.00  0.00    +0.435 C 
ATOM     21  F   UNL     1      -0.732   5.390  25.171  0.00  0.00    -0.164 F 
ATOM     22  F   UNL     1      -1.849   5.522  25.481  0.00  0.00    -0.164 F 
ATOM     23  F   UNL     1      -0.947   4.284  24.867  0.00  0.00    -0.164 F 
ENDBRANCH  17  20
ENDBRANCH  13  14
BRANCH   7   6
ATOM      4  C   UNL     1      -3.289   1.035  24.729  0.00  0.00    +0.272 C 
ATOM      5  O   UNL     1      -3.687   0.680  25.359  0.00  0.00    -0.271 OA
ATOM      6  N   UNL     1      -3.500   1.793  24.482  0.00  0.00    -0.202 NA
BRANCH   4   3
ATOM      3  C   UNL     1      -2.680   0.631  24.345  0.00  0.00    +0.229 C 
BRANCH   3   2
ATOM      1  C   UNL     1      -1.445  -0.085  24.419  0.00  0.00    +0.175 C 
ATOM      2  O   UNL     1      -2.124   0.209  24.785  0.00  0.00    -0.342 OA
ENDBRANCH   3   2
ENDBRANCH   4   3
ENDBRANCH   7   6
TORSDOF 5
ENDMDL
MODEL 4
REMARK VINA RESULT:      -9.9      2.622      3.601
REMARK  Name = 
REMARK  5 active torsions:
REMARK  status: ('A' for Active; 'I' for Inactive)
REMARK    1  A    between atoms: O_2  and  C_3
REMARK    2  A    between atoms: C_3  and  C_4
REMARK    3  A    between atoms: N_6  and  C_7
REMARK    4  A    between atoms: C_13  and  C_14
REMARK    5  A    between atoms: C_17  and  C_20
REMARK                            x       y       z     vdW  Elec       q    Type
REMARK                         _______ _______ _______ _____ _____    ______ ____
ROOT
ATOM      7  C   UNL     1      -3.152  -1.050  24.915  0.00  0.00    +0.132 C 
ATOM      8  C   UNL     1      -3.109  -1.855  24.742  0.00  0.00    +0.202 C 
ATOM      9  O   UNL     1      -2.520  -2.374  24.995  0.00  0.00    -0.219 OA
ATOM     10  C   UNL     1      -3.757  -2.050  24.270  0.00  0.00    +0.184 C 
ATOM     11  O   UNL     1      -3.930  -2.798  23.969  0.00  0.00    -0.220 OA
ATOM     12  C   UNL     1      -4.201  -1.364  24.152  0.00  0.00    +0.042 C 
ATOM     13  C   UNL     1      -3.827  -0.747  24.551  0.00  0.00    +0.049 C 
ENDROOT
BRANCH  13  14
ATOM     14  C   UNL     1      -4.084   0.037  24.581  0.00  0.00    -0.002 A 
ATOM     15  C   UNL     1      -3.877   0.562  23.979  0.00  0.00    +0.095 A 
ATOM     16  N   UNL     1      -4.134   1.346  24.009  0.00  0.00    -0.240 NA
ATOM     17  C   UNL     1      -4.599   1.604  24.640  0.00  0.00    +0.153 A 
ATOM     18  C   UNL     1      -4.806   1.078  25.242  0.00  0.00    +0.023 A 
ATOM     19  C   UNL     1      -4.549   0.295  25.212  0.00  0.00    -0.001 A 
BRANCH  17  20
ATOM     20  C   UNL     1      -4.856   2.386  24.670  0.00  0.00    +0.435 C 
ATOM     21  F   UNL     1      -5.114   3.170  24.700  0.00  0.00    -0.164 F 
ATOM     22  F   UNL     1      -4.113   2.620  24.942  0.00  0.00    -0.164 F 
ATOM     23  F   UNL     1      -5.599   2.152  24.398  0.00  0.00    -0.164 F 
ENDBRANCH  17  20
ENDBRANCH  13  14
BRANCH   7   6
ATOM      4  C   UNL     1      -1.817  -0.608  25.165  0.00  0.00    +0.272 C 
ATOM      5  O   UNL     1      -1.556  -1.019  24.500  0.00  0.00    -0.271 OA
ATOM      6  N   UNL     1      -2.615  -0.622  25.374  0.00  0.00    -0.202 NA
BRANCH   4   3
ATOM      3  C   UNL     1      -1.279  -0.180  25.624  0.00  0.00    +0.229 C 
BRANCH   3   2
ATOM      1  C   UNL     1      -0.552   1.050  25.650  0.00  0.00    +0.175 C 
ATOM      2  O   UNL     1      -0.762   0.351  25.263  0.00  0.00    -0.342 OA
ENDBRANCH   3   2
ENDBRANCH   4   3
ENDBRANCH   7   6
TORSDOF 5
ENDMDL
MODEL 5
REMARK VINA RESULT:      -9.8      2.968      3.807
REMARK  Name = 
REMARK  5 active torsions:
REMARK  status: ('A' for Active; 'I' for Inactive)
REMARK    1  A    between atoms: O_2  and  C_3
REMARK    2  A    between atoms: C_3  and  C_4
REMARK    3  A    between atoms: N_6  and  C_7
REMARK    4  A    between atoms: C_13  and  C_14
REMARK    5  A    between atoms: C_17  and  C_20
REMARK                            x       y       z     vdW  Elec       q    Type
REMARK                         _______ _______ _______ _____ _____    ______ ____
ROOT
ATOM      7  C   UNL     1      -1.965   3.258  24.938  0.00  0.00    +0.132 C 
ATOM      8  C   UNL     1      -1.382   3.834  25.025  0.00  0.00    +0.202 C 
ATOM      9  O   UNL     1      -0.568   3.712  24.967  0.00  0.00    -0.219 OA
ATOM     10  C   UNL     1      -1.754   4.553  25.181  0.00  0.00    +0.184 C 
ATOM     11  O   UNL     1      -1.378   5.277  25.306  0.00  0.00    -0.220 OA
ATOM     12  C   UNL     1      -2.569   4.420  25.190  0.00  0.00    +0.042 C 
ATOM     13  C   UNL     1      -2.699   3.620  25.040  0.00  0.00    +0.049 C 
ENDROOT
BRANCH  13  14
ATOM     14  C   UNL     1      -3.435   3.248  24.999  0.00  0.00    -0.002 A 
ATOM     15  C   UNL     1      -3.844   3.068  25.692  0.00  0.00    +0.095 A 
ATOM     16  N   UNL     1      -4.580   2.696  25.650  0.00  0.00    -0.240 NA
ATOM     17  C   UNL     1      -4.905   2.504  24.917  0.00  0.00    +0.153 A 
ATOM     18  C   UNL     1      -4.494   2.684  24.224  0.00  0.00    +0.023 A 
ATOM     19  C   UNL     1      -3.759   3.056  24.266  0.00  0.00    -0.001 A 
BRANCH  17  20
ATOM     20  C   UNL     1      -5.639   2.133  24.875  0.00  0.00    +0.435 C 
ATOM     21  F   UNL     1      -6.376   1.761  24.834  0.00  0.00    -0.164 F 
ATOM     22  F   UNL     1      -5.271   1.426  24.660  0.00  0.00    -0.164 F 
ATOM     23  F   UNL     1      -6.009   2.838  25.091  0.00  0.00    -0.164 F 
ENDBRANCH  17  20
ENDBRANCH  13  14
BRANCH   7   6
ATOM      4  C   UNL     1      -1.346   2.012  25.268  0.00  0.00    +0.272 C 
ATOM      5  O   UNL     1      -0.983   2.366  25.918  0.00  0.00    -0.271 OA
ATOM      6  N   UNL     1      -1.838   2.458  24.777  0.00  0.00    -0.202 NA
BRANCH   4   3
ATOM      3  C   UNL     1      -1.219   1.213  25.107  0.00  0.00    +0.229 C 
BRANCH   3   2
ATOM      1  C   UNL     1      -1.149  -0.138  25.569  0.00  0.00    +0.175 C 
ATOM      2  O   UNL     1      -1.157   0.673  25.727  0.00  0.00    -0.342 OA
ENDBRANCH   3   2
ENDBRANCH   4   3
ENDBRANCH   7   6
TORSDOF 5
ENDMDL
