MODEL 1
REMARK VINA RESULT:      -9.4      0.000      0.000
REMARK  Name = 
REMARK  7 active torsions:
REMARK  status: ('A' for Active; 'I' for Inactive)
REMARK    1  A    between atoms: N_6  and  C_7
REMARK    2  A    between atoms: C_7  and  C_8
REMARK    3  A    between atoms: C_19  and  C_20
REMARK    4  A    between atoms: C_20  and  C_21
REMARK    5  A    between atoms: C_21  and  C_22
REMARK    6  A    between atoms: N_24  and  C_25
REMARK    7  A    between atoms: C_25  and  C_26
REMARK                            x       y       z     vdW  Elec       q    Type
REMARK                         _______ _______ _______ _____ _____    ______ ____
ROOT
ATOM      1  C   UNL     1      -1.430  -0.265  24.571  0.00  0.00    +0.090 C 
ATOM      2  N   UNL     1      -1.578   0.493  24.280  0.00  0.00    -0.271 NA
ATOM      3  C   UNL     1      -2.319   0.808  24.462  0.00  0.00    +0.083 C 
ATOM      4  C   UNL     1      -2.887   0.406  24.904  0.00  0.00    +0.035 C 
ATOM      5  C   UNL     1      -3.550   0.893  24.970  0.00  0.00    +0.074 C 
ATOM      6  N   UNL     1      -3.391   1.596  24.568  0.00  0.00    -0.262 NA
ATOM     14  C   UNL     1      -2.630   1.543  24.254  0.00  0.00    +0.151 C 
ATOM     15  C   UNL     1      -2.277   2.144  23.813  0.00  0.00    +0.257 C 
ATOM     16  O   UNL     1      -2.736   2.821  23.699  0.00  0.00    -0.272 OA
ATOM     17  N   UNL     1      -1.527   2.160  23.472  0.00  0.00    -0.203 NA
ATOM     18  C   UNL     1      -0.943   1.576  23.487  0.00  0.00    +0.131 C 
ATOM     19  C   UNL     1      -0.966   0.835  23.846  0.00  0.00    +0.080 C 
ENDROOT
BRANCH   6   7
ATOM      7  C   UNL     1      -3.903   2.239  24.493  0.00  0.00    +0.100 C 
BRANCH   7   8
ATOM      8  C   UNL     1      -4.625   2.239  24.893  0.00  0.00    -0.006 A 
ATOM      9  C   UNL     1      -5.258   1.798  24.601  0.00  0.00    -0.003 A 
ATOM     10  C   UNL     1      -5.979   1.798  25.001  0.00  0.00    -0.000 A 
ATOM     11  C   UNL     1      -6.067   2.240  25.693  0.00  0.00    -0.000 A 
ATOM     12  C   UNL     1      -5.434   2.681  25.984  0.00  0.00    -0.000 A 
ATOM     13  C   UNL     1      -4.713   2.680  25.584  0.00  0.00    -0.003 A 
ENDBRANCH   7   8
ENDBRANCH   6   7
BRANCH  19  20
ATOM     20  C   UNL     1      -0.287   0.374  23.761  0.00  0.00    +0.027 C 
BRANCH  20  21
ATOM     21  C   UNL     1       0.407   0.710  23.469  0.00  0.00    +0.088 C 
BRANCH  21  22
ATOM     22  C   UNL     1       0.992   0.231  23.138  0.00  0.00    +0.242 C 
ATOM     23  O   UNL     1       0.793  -0.510  22.834  0.00  0.00    -0.273 OA
ATOM     24  N   UNL     1       1.773   0.492  23.111  0.00  0.00    -0.197 NA
BRANCH  24  25
ATOM     25  C   UNL     1       2.358   0.012  22.780  0.00  0.00    +0.179 C 
BRANCH  25  26
ATOM     26  C   UNL     1       3.150   0.232  22.832  0.00  0.00    +0.145 A 
ATOM     27  C   UNL     1       3.482   0.928  22.538  0.00  0.00    +0.038 A 
ATOM     28  C   UNL     1       4.288   0.920  22.712  0.00  0.00    +0.043 A 
ATOM     29  C   UNL     1       4.455   0.220  23.114  0.00  0.00    +0.179 A 
ATOM     30  O   UNL     1       3.752  -0.206  23.189  0.00  0.00    -0.453 OA
ENDBRANCH  25  26
ENDBRANCH  24  25
ENDBRANCH  21  22
ENDBRANCH  20  21
ENDBRANCH  19  20
TORSDOF 7
ENDMDL
MODEL 2
REMARK VINA RESULT:      -8.5      1.402      2.113
REMARK  Name = 
REMARK  7 active torsions:
REMARK  status: ('A' for Active; 'I' for Inactive)
REMARK    1  A    between atoms: N_6  and  C_7
REMARK    2  A    between atoms: C_7  and  C_8
REMARK    3  A    between atoms: C_19  and  C_20
REMARK    4  A    between atoms: C_20  and  C_21
REMARK    5  A    between atoms: C_21  and  C_22
REMARK    6  A    between atoms: N_24  and  C_25
REMARK    7  A    between atoms: C_25  and  C_26
REMARK                            x       y       z     vdW  Elec       q    Type
REMARK                         _______ _______ _______ _____ _____    ______ ____
ROOT
ATOM      1  C   UNL     1      -0.027   1.464  23.323  0.00  0.00    +0.090 C 
ATOM      2  N   UNL     1      -0.255   0.739  23.646  0.00  0.00    -0.271 NA
ATOM      3  C   UNL     1      -1.011   0.716  23.976  0.00  0.00    +0.083 C 
ATOM      4  C   UNL     1      -1.520   1.365  23.991  0.00  0.00    +0.035 C 
ATOM      5  C   UNL     1      -2.219   1.132  24.362  0.00  0.00    +0.074 C 
ATOM      6  N   UNL     1      -2.142   0.339  24.576  0.00  0.00    -0.262 NA
ATOM     14  C   UNL     1      -1.395   0.082  24.337  0.00  0.00    +0.151 C 
ATOM     15  C   UNL     1      -1.119  -0.686  24.458  0.00  0.00    +0.257 C 
ATOM     16  O   UNL     1      -1.640  -1.199  24.840  0.00  0.00    -0.272 OA
ATOM     17  N   UNL     1      -0.389  -1.009  24.247  0.00  0.00    -0.203 NA
ATOM     18  C   UNL     1       0.244  -0.644  23.864  0.00  0.00    +0.131 C 
ATOM     19  C   UNL     1       0.304   0.134  23.596  0.00  0.00    +0.080 C 
ENDROOT
BRANCH   6   7
ATOM      7  C   UNL     1      -2.712  -0.118  24.961  0.00  0.00    +0.100 C 
BRANCH   7   8
ATOM      8  C   UNL     1      -3.511   0.076  24.891  0.00  0.00    -0.006 A 
ATOM      9  C   UNL     1      -3.986  -0.319  24.345  0.00  0.00    -0.003 A 
ATOM     10  C   UNL     1      -4.784  -0.124  24.276  0.00  0.00    -0.000 A 
ATOM     11  C   UNL     1      -5.107   0.466  24.753  0.00  0.00    -0.000 A 
ATOM     12  C   UNL     1      -4.632   0.862  25.299  0.00  0.00    -0.000 A 
ATOM     13  C   UNL     1      -3.834   0.667  25.368  0.00  0.00    -0.003 A 
ENDBRANCH   7   8
ENDBRANCH   6   7
BRANCH  19  20
ATOM     20  C   UNL     1       1.016   0.333  23.230  0.00  0.00    +0.027 C 
BRANCH  20  21
ATOM     21  C   UNL     1       1.527  -0.259  22.972  0.00  0.00    +0.088 C 
BRANCH  21  22
ATOM     22  C   UNL     1       2.237  -0.059  22.600  0.00  0.00    +0.242 C 
ATOM     23  O   UNL     1       2.250   0.086  21.789  0.00  0.00    -0.273 OA
ATOM     24  N   UNL     1       2.932  -0.005  23.040  0.00  0.00    -0.197 NA
BRANCH  24  25
ATOM     25  C   UNL     1       3.641   0.194  22.669  0.00  0.00    +0.179 C 
BRANCH  25  26
ATOM     26  C   UNL     1       4.353   0.144  23.083  0.00  0.00    +0.145 A 
ATOM     27  C   UNL     1       4.858   0.772  23.258  0.00  0.00    +0.038 A 
ATOM     28  C   UNL     1       5.502   0.472  23.678  0.00  0.00    +0.043 A 
ATOM     29  C   UNL     1       5.394  -0.341  23.763  0.00  0.00    +0.179 A 
ATOM     30  O   UNL     1       4.684  -0.545  23.395  0.00  0.00    -0.453 OA
ENDBRANCH  25  26
ENDBRANCH  24  25
ENDBRANCH  21  22
ENDBRANCH  20  21
ENDBRANCH  19  20
TORSDOF 7
ENDMDL
MODEL 3
REMARK VINA RESULT:      -7.0     17.497     18.866
REMARK  Name = 
REMARK  7 active torsions:
REMARK  status: ('A' for Active; 'I' for Inactive)
REMARK    1  A    between atoms: N_6  and  C_7
REMARK    2  A    between atoms: C_7  and  C_8
REMARK    3  A    between atoms: C_19  and  C_20
REMARK    4  A    between atoms: C_20  and  C_21
REMARK    5  A    between atoms: C_21  and  C_22
REMARK    6  A    between atoms: N_24  and  C_25
REMARK    7  A    between atoms: C_25  and  C_26
REMARK                            x       y       z     vdW  Elec       q    Type
REMARK                         _______ _______ _______ _____ _____    ______ ____
ROOT
ATOM      1  C   UNL     1      -6.799  -8.889  10.868  0.00  0.00    +0.090 C 
ATOM      2  N   UNL     1      -6.263  -8.960  10.245  0.00  0.00    -0.271 NA
ATOM      3  C   UNL     1      -5.497  -9.185  10.454  0.00  0.00    +0.083 C 
ATOM      4  C   UNL     1      -5.264  -9.334  11.232  0.00  0.00    +0.035 C 
ATOM      5  C   UNL     1      -4.466  -9.543  11.223  0.00  0.00    +0.074 C 
ATOM      6  N   UNL     1      -4.206  -9.523  10.440  0.00  0.00    -0.262 NA
ATOM     14  C   UNL     1      -4.843  -9.302   9.965  0.00  0.00    +0.151 C 
ATOM     15  C   UNL     1      -4.794  -9.223   9.146  0.00  0.00    +0.257 C 
ATOM     16  O   UNL     1      -4.054  -9.380   8.815  0.00  0.00    -0.272 OA
ATOM     17  N   UNL     1      -5.385  -9.007   8.613  0.00  0.00    -0.203 NA
ATOM     18  C   UNL     1      -6.173  -8.817   8.769  0.00  0.00    +0.131 C 
ATOM     19  C   UNL     1      -6.564  -8.796   9.494  0.00  0.00    +0.080 C 
ENDROOT
BRANCH   6   7
ATOM      7  C   UNL     1      -3.442  -9.694  10.178  0.00  0.00    +0.100 C 
BRANCH   7   8
ATOM      8  C   UNL     1      -2.850  -9.874  10.724  0.00  0.00    -0.006 A 
ATOM      9  C   UNL     1      -2.853 -10.603  11.111  0.00  0.00    -0.003 A 
ATOM     10  C   UNL     1      -2.260 -10.781  11.657  0.00  0.00    -0.000 A 
ATOM     11  C   UNL     1      -1.666 -10.231  11.815  0.00  0.00    -0.000 A 
ATOM     12  C   UNL     1      -1.664  -9.503  11.429  0.00  0.00    -0.000 A 
ATOM     13  C   UNL     1      -2.256  -9.324  10.883  0.00  0.00    -0.003 A 
ENDBRANCH   7   8
ENDBRANCH   6   7
BRANCH  19  20
ATOM     20  C   UNL     1      -7.360  -8.584   9.467  0.00  0.00    +0.027 C 
BRANCH  20  21
ATOM     21  C   UNL     1      -7.628  -8.056   8.892  0.00  0.00    +0.088 C 
BRANCH  21  22
ATOM     22  C   UNL     1      -8.428  -7.860   8.851  0.00  0.00    +0.242 C 
ATOM     23  O   UNL     1      -9.001  -8.448   8.938  0.00  0.00    -0.273 OA
ATOM     24  N   UNL     1      -8.656  -7.078   8.724  0.00  0.00    -0.197 NA
BRANCH  24  25
ATOM     25  C   UNL     1      -9.457  -6.883   8.683  0.00  0.00    +0.179 C 
BRANCH  25  26
ATOM     26  C   UNL     1      -9.691  -6.093   8.721  0.00  0.00    +0.145 A 
ATOM     27  C   UNL     1     -10.435  -5.818   8.949  0.00  0.00    +0.038 A 
ATOM     28  C   UNL     1     -10.427  -4.994   8.906  0.00  0.00    +0.043 A 
ATOM     29  C   UNL     1      -9.678  -4.761   8.651  0.00  0.00    +0.179 A 
ATOM     30  O   UNL     1      -9.223  -5.439   8.536  0.00  0.00    -0.453 OA
ENDBRANCH  25  26
ENDBRANCH  24  25
ENDBRANCH  21  22
ENDBRANCH  20  21
ENDBRANCH  19  20
TORSDOF 7
ENDMDL
MODEL 4
REMARK VINA RESULT:      -6.8     14.379     14.954
REMARK  Name = 
REMARK  7 active torsions:
REMARK  status: ('A' for Active; 'I' for Inactive)
REMARK    1  A    between atoms: N_6  and  C_7
REMARK    2  A    between atoms: C_7  and  C_8
REMARK    3  A    between atoms: C_19  and  C_20
REMARK    4  A    between atoms: C_20  and  C_21
REMARK    5  A    between atoms: C_21  and  C_22
REMARK    6  A    between atoms: N_24  and  C_25
REMARK    7  A    between atoms: C_25  and  C_26
REMARK                            x       y       z     vdW  Elec       q    Type
REMARK                         _______ _______ _______ _____ _____    ______ ____
ROOT
ATOM      1  C   UNL     1      -5.507  -9.695  16.680  0.00  0.00    +0.090 C 
ATOM      2  N   UNL     1      -6.108  -9.833  16.133  0.00  0.00    -0.271 NA
ATOM      3  C   UNL     1      -6.870  -9.637  16.382  0.00  0.00    +0.083 C 
ATOM      4  C   UNL     1      -7.039  -9.322  17.126  0.00  0.00    +0.035 C 
ATOM      5  C   UNL     1      -7.854  -9.200  17.172  0.00  0.00    +0.074 C 
ATOM      6  N   UNL     1      -8.189  -9.438  16.456  0.00  0.00    -0.262 NA
ATOM     14  C   UNL     1      -7.581  -9.708  15.968  0.00  0.00    +0.151 C 
ATOM     15  C   UNL     1      -7.704  -9.993  15.204  0.00  0.00    +0.257 C 
ATOM     16  O   UNL     1      -8.488  -9.994  14.944  0.00  0.00    -0.272 OA
ATOM     17  N   UNL     1      -7.149 -10.277  14.664  0.00  0.00    -0.203 NA
ATOM     18  C   UNL     1      -6.331 -10.345  14.756  0.00  0.00    +0.131 C 
ATOM     19  C   UNL     1      -5.869 -10.148  15.409  0.00  0.00    +0.080 C 
ENDROOT
BRANCH   6   7
ATOM      7  C   UNL     1      -8.990  -9.411  16.263  0.00  0.00    +0.100 C 
BRANCH   7   8
ATOM      8  C   UNL     1      -9.511  -8.972  16.728  0.00  0.00    -0.006 A 
ATOM      9  C   UNL     1      -9.573  -8.156  16.622  0.00  0.00    -0.003 A 
ATOM     10  C   UNL     1     -10.094  -7.718  17.087  0.00  0.00    -0.000 A 
ATOM     11  C   UNL     1     -10.553  -8.096  17.660  0.00  0.00    -0.000 A 
ATOM     12  C   UNL     1     -10.491  -8.912  17.766  0.00  0.00    -0.000 A 
ATOM     13  C   UNL     1      -9.970  -9.349  17.301  0.00  0.00    -0.003 A 
ENDBRANCH   7   8
ENDBRANCH   6   7
BRANCH  19  20
ATOM     20  C   UNL     1      -5.059 -10.284  15.329  0.00  0.00    +0.027 C 
BRANCH  20  21
ATOM     21  C   UNL     1      -4.769 -10.675  14.664  0.00  0.00    +0.088 C 
BRANCH  21  22
ATOM     22  C   UNL     1      -3.960 -10.672  14.502  0.00  0.00    +0.242 C 
ATOM     23  O   UNL     1      -3.417 -10.781  15.114  0.00  0.00    -0.273 OA
ATOM     24  N   UNL     1      -3.694 -10.561  13.730  0.00  0.00    -0.197 NA
BRANCH  24  25
ATOM     25  C   UNL     1      -2.885 -10.558  13.568  0.00  0.00    +0.179 C 
BRANCH  25  26
ATOM     26  C   UNL     1      -2.618 -10.436  12.798  0.00  0.00    +0.145 A 
ATOM     27  C   UNL     1      -1.830 -10.381  12.559  0.00  0.00    +0.038 A 
ATOM     28  C   UNL     1      -1.818 -10.259  11.743  0.00  0.00    +0.043 A 
ATOM     29  C   UNL     1      -2.599 -10.238  11.478  0.00  0.00    +0.179 A 
ATOM     30  O   UNL     1      -3.094 -10.347  12.129  0.00  0.00    -0.453 OA
ENDBRANCH  25  26
ENDBRANCH  24  25
ENDBRANCH  21  22
ENDBRANCH  20  21
ENDBRANCH  19  20
TORSDOF 7
ENDMDL
MODEL 5
REMARK VINA RESULT:      -6.4     15.266     16.778
REMARK  Name = 
REMARK  7 active torsions:
REMARK  status: ('A' for Active; 'I' for Inactive)
REMARK    1  A    between atoms: N_6  and  C_7
REMARK    2  A    between atoms: C_7  and  C_8
REMARK    3  A    between atoms: C_19  and  C_20
REMARK    4  A    between atoms: C_20  and  C_21
REMARK    5  A    between atoms: C_21  and  C_22
REMARK    6  A    between atoms: N_24  and  C_25
REMARK    7  A    between atoms: C_25  and  C_26
REMARK                            x       y       z     vdW  Elec       q    Type
REMARK                         _______ _______ _______ _____ _____    ______ ____
ROOT
ATOM      1  C   UNL     1      -6.748 -10.001  13.773  0.00  0.00    +0.090 C 
ATOM      2  N   UNL     1      -5.932 -10.126  13.769  0.00  0.00    -0.271 NA
ATOM      3  C   UNL     1      -5.569 -10.104  13.029  0.00  0.00    +0.083 C 
ATOM      4  C   UNL     1      -5.978  -9.966  12.326  0.00  0.00    +0.035 C 
ATOM      5  C   UNL     1      -5.434  -9.984  11.706  0.00  0.00    +0.074 C 
ATOM      6  N   UNL     1      -4.688 -10.132  12.026  0.00  0.00    -0.262 NA
ATOM     14  C   UNL     1      -4.772 -10.207  12.844  0.00  0.00    +0.151 C 
ATOM     15  C   UNL     1      -4.141 -10.358  13.353  0.00  0.00    +0.257 C 
ATOM     16  O   UNL     1      -3.401 -10.433  12.995  0.00  0.00    -0.272 OA
ATOM     17  N   UNL     1      -4.151 -10.443  14.173  0.00  0.00    -0.203 NA
ATOM     18  C   UNL     1      -4.796 -10.399  14.687  0.00  0.00    +0.131 C 
ATOM     19  C   UNL     1      -5.587 -10.258  14.508  0.00  0.00    +0.080 C 
ENDROOT
BRANCH   6   7
ATOM      7  C   UNL     1      -3.983 -10.196  11.603  0.00  0.00    +0.100 C 
BRANCH   7   8
ATOM      8  C   UNL     1      -3.966 -10.009  10.799  0.00  0.00    -0.006 A 
ATOM      9  C   UNL     1      -3.823  -9.233  10.559  0.00  0.00    -0.003 A 
ATOM     10  C   UNL     1      -3.807  -9.046   9.756  0.00  0.00    -0.000 A 
ATOM     11  C   UNL     1      -3.934  -9.636   9.193  0.00  0.00    -0.000 A 
ATOM     12  C   UNL     1      -4.078 -10.412   9.433  0.00  0.00    -0.000 A 
ATOM     13  C   UNL     1      -4.094 -10.598  10.237  0.00  0.00    -0.003 A 
ENDBRANCH   7   8
ENDBRANCH   6   7
BRANCH  19  20
ATOM     20  C   UNL     1      -6.105 -10.247  15.151  0.00  0.00    +0.027 C 
BRANCH  20  21
ATOM     21  C   UNL     1      -5.892  -9.857  15.845  0.00  0.00    +0.088 C 
BRANCH  21  22
ATOM     22  C   UNL     1      -6.359  -9.932  16.521  0.00  0.00    +0.242 C 
ATOM     23  O   UNL     1      -6.151 -10.475  17.107  0.00  0.00    -0.273 OA
ATOM     24  N   UNL     1      -7.032  -9.466  16.612  0.00  0.00    -0.197 NA
BRANCH  24  25
ATOM     25  C   UNL     1      -7.499  -9.541  17.288  0.00  0.00    +0.179 C 
BRANCH  25  26
ATOM     26  C   UNL     1      -8.254  -9.209  17.308  0.00  0.00    +0.145 A 
ATOM     27  C   UNL     1      -8.939  -9.576  17.584  0.00  0.00    +0.038 A 
ATOM     28  C   UNL     1      -9.565  -9.045  17.502  0.00  0.00    +0.043 A 
ATOM     29  C   UNL     1      -9.266  -8.349  17.174  0.00  0.00    +0.179 A 
ATOM     30  O   UNL     1      -8.456  -8.450  17.054  0.00  0.00    -0.453 OA
ENDBRANCH  25  26
ENDBRANCH  24  25
ENDBRANCH  21  22
ENDBRANCH  20  21
ENDBRANCH  19  20
TORSDOF 7
ENDMDL
MODEL 6
REMARK VINA RESULT:      -6.4     15.263     16.623
REMARK  Name = 
REMARK  7 active torsions:
REMARK  status: ('A' for Active; 'I' for Inactive)
REMARK    1  A    between atoms: N_6  and  C_7
REMARK    2  A    between atoms: C_7  and  C_8
REMARK    3  A    between atoms: C_19  and  C_20
REMARK    4  A    between atoms: C_20  and  C_21
REMARK    5  A    between atoms: C_21  and  C_22
REMARK    6  A    between atoms: N_24  and  C_25
REMARK    7  A    between atoms: C_25  and  C_26
REMARK                            x       y       z     vdW  Elec       q    Type
REMARK                         _______ _______ _______ _____ _____    ______ ____
ROOT
ATOM      1  C   UNL     1      -6.788  -9.839  13.606  0.00  0.00    +0.090 C 
ATOM      2  N   UNL     1      -5.985 -10.026  13.584  0.00  0.00    -0.271 NA
ATOM      3  C   UNL     1      -5.620  -9.956  12.847  0.00  0.00    +0.083 C 
ATOM      4  C   UNL     1      -6.016  -9.714  12.165  0.00  0.00    +0.035 C 
ATOM      5  C   UNL     1      -5.475  -9.710  11.543  0.00  0.00    +0.074 C 
ATOM      6  N   UNL     1      -4.743  -9.950  11.841  0.00  0.00    -0.262 NA
ATOM     14  C   UNL     1      -4.833 -10.102  12.647  0.00  0.00    +0.151 C 
ATOM     15  C   UNL     1      -4.217 -10.354  13.133  0.00  0.00    +0.257 C 
ATOM     16  O   UNL     1      -3.485 -10.450  12.764  0.00  0.00    -0.272 OA
ATOM     17  N   UNL     1      -4.235 -10.523  13.940  0.00  0.00    -0.203 NA
ATOM     18  C   UNL     1      -4.874 -10.481  14.460  0.00  0.00    +0.131 C 
ATOM     19  C   UNL     1      -5.652 -10.261  14.302  0.00  0.00    +0.080 C 
ENDROOT
BRANCH   6   7
ATOM      7  C   UNL     1      -4.045 -10.025  11.408  0.00  0.00    +0.100 C 
BRANCH   7   8
ATOM      8  C   UNL     1      -4.044  -9.870  10.597  0.00  0.00    -0.006 A 
ATOM      9  C   UNL     1      -4.274 -10.456  10.065  0.00  0.00    -0.003 A 
ATOM     10  C   UNL     1      -4.272 -10.300   9.255  0.00  0.00    -0.000 A 
ATOM     11  C   UNL     1      -4.041  -9.558   8.978  0.00  0.00    -0.000 A 
ATOM     12  C   UNL     1      -3.811  -8.972   9.511  0.00  0.00    -0.000 A 
ATOM     13  C   UNL     1      -3.812  -9.128  10.320  0.00  0.00    -0.003 A 
ENDBRANCH   7   8
ENDBRANCH   6   7
BRANCH  19  20
ATOM     20  C   UNL     1      -6.168 -10.275  14.946  0.00  0.00    +0.027 C 
BRANCH  20  21
ATOM     21  C   UNL     1      -5.915 -10.005  15.683  0.00  0.00    +0.088 C 
BRANCH  21  22
ATOM     22  C   UNL     1      -6.416 -10.059  16.337  0.00  0.00    +0.242 C 
ATOM     23  O   UNL     1      -7.197  -9.798  16.280  0.00  0.00    -0.273 OA
ATOM     24  N   UNL     1      -6.137 -10.372  17.046  0.00  0.00    -0.197 NA
BRANCH  24  25
ATOM     25  C   UNL     1      -6.638 -10.426  17.700  0.00  0.00    +0.179 C 
BRANCH  25  26
ATOM     26  C   UNL     1      -6.324 -10.562  18.450  0.00  0.00    +0.145 A 
ATOM     27  C   UNL     1      -5.525 -10.659  18.633  0.00  0.00    +0.038 A 
ATOM     28  C   UNL     1      -5.462 -10.781  19.446  0.00  0.00    +0.043 A 
ATOM     29  C   UNL     1      -6.222 -10.760  19.766  0.00  0.00    +0.179 A 
ATOM     30  O   UNL     1      -6.755 -10.624  19.152  0.00  0.00    -0.453 OA
ENDBRANCH  25  26
ENDBRANCH  24  25
ENDBRANCH  21  22
ENDBRANCH  20  21
ENDBRANCH  19  20
TORSDOF 7
ENDMDL
MODEL 7
REMARK VINA RESULT:      -5.8     14.723     15.553
REMARK  Name = 
REMARK  7 active torsions:
REMARK  status: ('A' for Active; 'I' for Inactive)
REMARK    1  A    between atoms: N_6  and  C_7
REMARK    2  A    between atoms: C_7  and  C_8
REMARK    3  A    between atoms: C_19  and  C_20
REMARK    4  A    between atoms: C_20  and  C_21
REMARK    5  A    between atoms: C_21  and  C_22
REMARK    6  A    between atoms: N_24  and  C_25
REMARK    7  A    between atoms: C_25  and  C_26
REMARK                            x       y       z     vdW  Elec       q    Type
REMARK                         _______ _______ _______ _____ _____    ______ ____
ROOT
ATOM      1  C   UNL     1      -3.560 -10.747  15.171  0.00  0.00    +0.090 C 
ATOM      2  N   UNL     1      -4.354 -10.525  15.191  0.00  0.00    -0.271 NA
ATOM      3  C   UNL     1      -4.705 -10.516  15.938  0.00  0.00    +0.083 C 
ATOM      4  C   UNL     1      -4.304 -10.714  16.631  0.00  0.00    +0.035 C 
ATOM      5  C   UNL     1      -4.832 -10.641  17.261  0.00  0.00    +0.074 C 
ATOM      6  N   UNL     1      -5.560 -10.399  16.957  0.00  0.00    -0.262 NA
ATOM     14  C   UNL     1      -5.482 -10.322  16.139  0.00  0.00    +0.151 C 
ATOM     15  C   UNL     1      -6.098 -10.088  15.644  0.00  0.00    +0.257 C 
ATOM     16  O   UNL     1      -6.817  -9.930  16.016  0.00  0.00    -0.272 OA
ATOM     17  N   UNL     1      -6.091  -9.990  14.825  0.00  0.00    -0.203 NA
ATOM     18  C   UNL     1      -5.465 -10.103  14.299  0.00  0.00    +0.131 C 
ATOM     19  C   UNL     1      -4.693 -10.341  14.461  0.00  0.00    +0.080 C 
ENDROOT
BRANCH   6   7
ATOM      7  C   UNL     1      -6.246 -10.259  17.394  0.00  0.00    +0.100 C 
BRANCH   7   8
ATOM      8  C   UNL     1      -6.263 -10.433  18.200  0.00  0.00    -0.006 A 
ATOM      9  C   UNL     1      -5.557 -10.529  18.617  0.00  0.00    -0.003 A 
ATOM     10  C   UNL     1      -5.576 -10.703  19.423  0.00  0.00    -0.000 A 
ATOM     11  C   UNL     1      -6.299 -10.781  19.812  0.00  0.00    -0.000 A 
ATOM     12  C   UNL     1      -7.004 -10.685  19.395  0.00  0.00    -0.000 A 
ATOM     13  C   UNL     1      -6.986 -10.511  18.589  0.00  0.00    -0.003 A 
ENDBRANCH   7   8
ENDBRANCH   6   7
BRANCH  19  20
ATOM     20  C   UNL     1      -4.191 -10.403  13.809  0.00  0.00    +0.027 C 
BRANCH  20  21
ATOM     21  C   UNL     1      -4.507 -10.450  13.049  0.00  0.00    +0.088 C 
BRANCH  21  22
ATOM     22  C   UNL     1      -4.008 -10.429  12.392  0.00  0.00    +0.242 C 
ATOM     23  O   UNL     1      -3.260 -10.777  12.431  0.00  0.00    -0.273 OA
ATOM     24  N   UNL     1      -4.255 -10.061  11.697  0.00  0.00    -0.197 NA
BRANCH  24  25
ATOM     25  C   UNL     1      -3.755 -10.040  11.040  0.00  0.00    +0.179 C 
BRANCH  25  26
ATOM     26  C   UNL     1      -4.003  -9.672  10.345  0.00  0.00    +0.145 A 
ATOM     27  C   UNL     1      -3.571  -9.122   9.907  0.00  0.00    +0.038 A 
ATOM     28  C   UNL     1      -4.027  -8.900   9.256  0.00  0.00    +0.043 A 
ATOM     29  C   UNL     1      -4.740  -9.312   9.293  0.00  0.00    +0.179 A 
ATOM     30  O   UNL     1      -4.726  -9.790   9.965  0.00  0.00    -0.453 OA
ENDBRANCH  25  26
ENDBRANCH  24  25
ENDBRANCH  21  22
ENDBRANCH  20  21
ENDBRANCH  19  20
TORSDOF 7
ENDMDL
MODEL 8
REMARK VINA RESULT:      -5.8     16.911     17.472
REMARK  Name = 
REMARK  7 active torsions:
REMARK  status: ('A' for Active; 'I' for Inactive)
REMARK    1  A    between atoms: N_6  and  C_7
REMARK    2  A    between atoms: C_7  and  C_8
REMARK    3  A    between atoms: C_19  and  C_20
REMARK    4  A    between atoms: C_20  and  C_21
REMARK    5  A    between atoms: C_21  and  C_22
REMARK    6  A    between atoms: N_24  and  C_25
REMARK    7  A    between atoms: C_25  and  C_26
REMARK                            x       y       z     vdW  Elec       q    Type
REMARK                         _______ _______ _______ _____ _____    ______ ____
ROOT
ATOM      1  C   UNL     1      -4.439  -9.216   9.601  0.00  0.00    +0.090 C 
ATOM      2  N   UNL     1      -5.046  -9.215  10.159  0.00  0.00    -0.271 NA
ATOM      3  C   UNL     1      -5.792  -9.002   9.877  0.00  0.00    +0.083 C 
ATOM      4  C   UNL     1      -5.940  -8.799   9.091  0.00  0.00    +0.035 C 
ATOM      5  C   UNL     1      -6.742  -8.621   9.020  0.00  0.00    +0.074 C 
ATOM      6  N   UNL     1      -7.090  -8.714   9.762  0.00  0.00    -0.262 NA
ATOM     14  C   UNL     1      -6.503  -8.950  10.292  0.00  0.00    +0.151 C 
ATOM     15  C   UNL     1      -6.644  -9.097  11.091  0.00  0.00    +0.257 C 
ATOM     16  O   UNL     1      -7.423  -8.994  11.342  0.00  0.00    -0.272 OA
ATOM     17  N   UNL     1      -6.110  -9.333  11.673  0.00  0.00    -0.203 NA
ATOM     18  C   UNL     1      -5.301  -9.481  11.599  0.00  0.00    +0.131 C 
ATOM     19  C   UNL     1      -4.828  -9.428  10.926  0.00  0.00    +0.080 C 
ENDROOT
BRANCH   6   7
ATOM      7  C   UNL     1      -7.886  -8.593   9.944  0.00  0.00    +0.100 C 
BRANCH   7   8
ATOM      8  C   UNL     1      -8.433  -8.477   9.337  0.00  0.00    -0.006 A 
ATOM      9  C   UNL     1      -8.643  -7.712   9.111  0.00  0.00    -0.003 A 
ATOM     10  C   UNL     1      -9.190  -7.597   8.504  0.00  0.00    -0.000 A 
ATOM     11  C   UNL     1      -9.527  -8.247   8.124  0.00  0.00    -0.000 A 
ATOM     12  C   UNL     1      -9.317  -9.012   8.350  0.00  0.00    -0.000 A 
ATOM     13  C   UNL     1      -8.770  -9.127   8.956  0.00  0.00    -0.003 A 
ENDBRANCH   7   8
ENDBRANCH   6   7
BRANCH  19  20
ATOM     20  C   UNL     1      -4.031  -9.613  11.032  0.00  0.00    +0.027 C 
BRANCH  20  21
ATOM     21  C   UNL     1      -3.810 -10.194  11.574  0.00  0.00    +0.088 C 
BRANCH  21  22
ATOM     22  C   UNL     1      -3.056 -10.181  11.909  0.00  0.00    +0.242 C 
ATOM     23  O   UNL     1      -2.399 -10.018  11.439  0.00  0.00    -0.273 OA
ATOM     24  N   UNL     1      -2.960 -10.332  12.714  0.00  0.00    -0.197 NA
BRANCH  24  25
ATOM     25  C   UNL     1      -2.206 -10.319  13.049  0.00  0.00    +0.179 C 
BRANCH  25  26
ATOM     26  C   UNL     1      -2.115 -10.406  13.864  0.00  0.00    +0.145 A 
ATOM     27  C   UNL     1      -1.442 -10.213  14.301  0.00  0.00    +0.038 A 
ATOM     28  C   UNL     1      -1.593 -10.389  15.093  0.00  0.00    +0.043 A 
ATOM     29  C   UNL     1      -2.359 -10.689  15.145  0.00  0.00    +0.179 A 
ATOM     30  O   UNL     1      -2.683 -10.700  14.387  0.00  0.00    -0.453 OA
ENDBRANCH  25  26
ENDBRANCH  24  25
ENDBRANCH  21  22
ENDBRANCH  20  21
ENDBRANCH  19  20
TORSDOF 7
ENDMDL
MODEL 9
REMARK VINA RESULT:      -5.8     14.267     14.949
REMARK  Name = 
REMARK  7 active torsions:
REMARK  status: ('A' for Active; 'I' for Inactive)
REMARK    1  A    between atoms: N_6  and  C_7
REMARK    2  A    between atoms: C_7  and  C_8
REMARK    3  A    between atoms: C_19  and  C_20
REMARK    4  A    between atoms: C_20  and  C_21
REMARK    5  A    between atoms: C_21  and  C_22
REMARK    6  A    between atoms: N_24  and  C_25
REMARK    7  A    between atoms: C_25  and  C_26
REMARK                            x       y       z     vdW  Elec       q    Type
REMARK                         _______ _______ _______ _____ _____    ______ ____
ROOT
ATOM      1  C   UNL     1      -3.534 -10.227  16.350  0.00  0.00    +0.090 C 
ATOM      2  N   UNL     1      -4.181 -10.381  15.862  0.00  0.00    -0.271 NA
ATOM      3  C   UNL     1      -4.918 -10.372  16.231  0.00  0.00    +0.083 C 
ATOM      4  C   UNL     1      -5.022 -10.220  17.035  0.00  0.00    +0.035 C 
ATOM      5  C   UNL     1      -5.830 -10.257  17.200  0.00  0.00    +0.074 C 
ATOM      6  N   UNL     1      -6.225 -10.433  16.497  0.00  0.00    -0.262 NA
ATOM     14  C   UNL     1      -5.662 -10.504  15.899  0.00  0.00    +0.151 C 
ATOM     15  C   UNL     1      -5.851 -10.678  15.115  0.00  0.00    +0.257 C 
ATOM     16  O   UNL     1      -6.654 -10.780  14.955  0.00  0.00    -0.272 OA
ATOM     17  N   UNL     1      -5.344 -10.763  14.470  0.00  0.00    -0.203 NA
ATOM     18  C   UNL     1      -4.522 -10.695  14.450  0.00  0.00    +0.131 C 
ATOM     19  C   UNL     1      -4.004 -10.525  15.069  0.00  0.00    +0.080 C 
ENDROOT
BRANCH   6   7
ATOM      7  C   UNL     1      -7.041 -10.522  16.409  0.00  0.00    +0.100 C 
BRANCH   7   8
ATOM      8  C   UNL     1      -7.549 -10.290  17.017  0.00  0.00    -0.006 A 
ATOM      9  C   UNL     1      -7.950  -9.571  16.968  0.00  0.00    -0.003 A 
ATOM     10  C   UNL     1      -8.457  -9.340  17.576  0.00  0.00    -0.000 A 
ATOM     11  C   UNL     1      -8.563  -9.828  18.233  0.00  0.00    -0.000 A 
ATOM     12  C   UNL     1      -8.161 -10.547  18.281  0.00  0.00    -0.000 A 
ATOM     13  C   UNL     1      -7.654 -10.778  17.674  0.00  0.00    -0.003 A 
ENDBRANCH   7   8
ENDBRANCH   6   7
BRANCH  19  20
ATOM     20  C   UNL     1      -3.204 -10.495  14.869  0.00  0.00    +0.027 C 
BRANCH  20  21
ATOM     21  C   UNL     1      -2.949 -10.781  14.140  0.00  0.00    +0.088 C 
BRANCH  21  22
ATOM     22  C   UNL     1      -2.193 -10.598  13.865  0.00  0.00    +0.242 C 
ATOM     23  O   UNL     1      -1.533 -10.781  14.325  0.00  0.00    -0.273 OA
ATOM     24  N   UNL     1      -2.096 -10.234  13.132  0.00  0.00    -0.197 NA
BRANCH  24  25
ATOM     25  C   UNL     1      -1.340 -10.051  12.858  0.00  0.00    +0.179 C 
BRANCH  25  26
ATOM     26  C   UNL     1      -1.244  -9.669  12.134  0.00  0.00    +0.145 A 
ATOM     27  C   UNL     1      -1.705  -9.785  11.459  0.00  0.00    +0.038 A 
ATOM     28  C   UNL     1      -1.416  -9.291  10.865  0.00  0.00    +0.043 A 
ATOM     29  C   UNL     1      -0.778  -8.869  11.172  0.00  0.00    +0.179 A 
ATOM     30  O   UNL     1      -0.671  -9.102  11.956  0.00  0.00    -0.453 OA
ENDBRANCH  25  26
ENDBRANCH  24  25
ENDBRANCH  21  22
ENDBRANCH  20  21
ENDBRANCH  19  20
TORSDOF 7
ENDMDL
MODEL 10
REMARK VINA RESULT:      -5.7     15.218     15.786
REMARK  Name = 
REMARK  7 active torsions:
REMARK  status: ('A' for Active; 'I' for Inactive)
REMARK    1  A    between atoms: N_6  and  C_7
REMARK    2  A    between atoms: C_7  and  C_8
REMARK    3  A    between atoms: C_19  and  C_20
REMARK    4  A    between atoms: C_20  and  C_21
REMARK    5  A    between atoms: C_21  and  C_22
REMARK    6  A    between atoms: N_24  and  C_25
REMARK    7  A    between atoms: C_25  and  C_26
REMARK                            x       y       z     vdW  Elec       q    Type
REMARK                         _______ _______ _______ _____ _____    ______ ____
ROOT
ATOM      1  C   UNL     1      -4.638 -10.737  14.150  0.00  0.00    +0.090 C 
ATOM      2  N   UNL     1      -5.373 -10.435  13.926  0.00  0.00    -0.271 NA
ATOM      3  C   UNL     1      -5.926 -10.351  14.533  0.00  0.00    +0.083 C 
ATOM      4  C   UNL     1      -5.772 -10.551  15.318  0.00  0.00    +0.035 C 
ATOM      5  C   UNL     1      -6.451 -10.392  15.759  0.00  0.00    +0.074 C 
ATOM      6  N   UNL     1      -7.024 -10.093  15.246  0.00  0.00    -0.262 NA
ATOM     14  C   UNL     1      -6.699 -10.068  14.488  0.00  0.00    +0.151 C 
ATOM     15  C   UNL     1      -7.111  -9.799  13.826  0.00  0.00    +0.257 C 
ATOM     16  O   UNL     1      -7.885  -9.549  13.963  0.00  0.00    -0.272 OA
ATOM     17  N   UNL     1      -6.851  -9.746  13.045  0.00  0.00    -0.203 NA
ATOM     18  C   UNL     1      -6.114  -9.950  12.733  0.00  0.00    +0.131 C 
ATOM     19  C   UNL     1      -5.457 -10.256  13.125  0.00  0.00    +0.080 C 
ENDROOT
BRANCH   6   7
ATOM      7  C   UNL     1      -7.788  -9.860  15.454  0.00  0.00    +0.100 C 
BRANCH   7   8
ATOM      8  C   UNL     1      -8.027  -9.893  16.244  0.00  0.00    -0.006 A 
ATOM      9  C   UNL     1      -8.411 -10.564  16.531  0.00  0.00    -0.003 A 
ATOM     10  C   UNL     1      -8.650 -10.595  17.320  0.00  0.00    -0.000 A 
ATOM     11  C   UNL     1      -8.505  -9.955  17.821  0.00  0.00    -0.000 A 
ATOM     12  C   UNL     1      -8.121  -9.284  17.533  0.00  0.00    -0.000 A 
ATOM     13  C   UNL     1      -7.883  -9.253  16.744  0.00  0.00    -0.003 A 
ENDBRANCH   7   8
ENDBRANCH   6   7
BRANCH  19  20
ATOM     20  C   UNL     1      -4.796 -10.404  12.654  0.00  0.00    +0.027 C 
BRANCH  20  21
ATOM     21  C   UNL     1      -4.693  -9.995  11.946  0.00  0.00    +0.088 C 
BRANCH  21  22
ATOM     22  C   UNL     1      -4.068 -10.190  11.443  0.00  0.00    +0.242 C 
ATOM     23  O   UNL     1      -4.165 -10.781  10.876  0.00  0.00    -0.273 OA
ATOM     24  N   UNL     1      -3.348  -9.794  11.507  0.00  0.00    -0.197 NA
BRANCH  24  25
ATOM     25  C   UNL     1      -2.723  -9.988  11.005  0.00  0.00    +0.179 C 
BRANCH  25  26
ATOM     26  C   UNL     1      -1.979  -9.655  11.124  0.00  0.00    +0.145 A 
ATOM     27  C   UNL     1      -1.642  -9.045  10.682  0.00  0.00    +0.038 A 
ATOM     28  C   UNL     1      -0.894  -8.887  10.991  0.00  0.00    +0.043 A 
ATOM     29  C   UNL     1      -0.768  -9.400  11.625  0.00  0.00    +0.179 A 
ATOM     30  O   UNL     1      -1.438  -9.875  11.708  0.00  0.00    -0.453 OA
ENDBRANCH  25  26
ENDBRANCH  24  25
ENDBRANCH  21  22
ENDBRANCH  20  21
ENDBRANCH  19  20
TORSDOF 7
ENDMDL
