MODEL 1
REMARK VINA RESULT:     -11.9      0.000      0.000
REMARK  Name = 
REMARK  4 active torsions:
REMARK  status: ('A' for Active; 'I' for Inactive)
REMARK    1  A    between atoms: C_2  and  C_3
REMARK    2  A    between atoms: C_2  and  C_10
REMARK    3  A    between atoms: C_13  and  N_14
REMARK    4  A    between atoms: C_15  and  C_17
REMARK                            x       y       z     vdW  Elec       q    Type
REMARK                         _______ _______ _______ _____ _____    ______ ____
ROOT
ATOM     10  C   UNL     1      -3.841   2.314  24.219  0.00  0.00    +0.010 A 
ATOM     11  C   UNL     1      -3.291   1.894  23.770  0.00  0.00    -0.000 A 
ATOM     12  C   UNL     1      -3.335   1.072  23.727  0.00  0.00    +0.016 A 
ATOM     13  C   UNL     1      -3.930   0.669  24.135  0.00  0.00    +0.073 A 
ATOM     22  C   UNL     1      -4.479   1.089  24.584  0.00  0.00    +0.016 A 
ATOM     23  C   UNL     1      -4.434   1.912  24.626  0.00  0.00    -0.000 A 
ENDROOT
BRANCH  13  14
ATOM     14  N   UNL     1      -3.974  -0.154  24.093  0.00  0.00    -0.179 NA
ATOM     15  C   UNL     1      -3.583  -0.617  24.653  0.00  0.00    +0.245 C 
ATOM     16  O   UNL     1      -3.148  -0.258  25.256  0.00  0.00    -0.273 OA
BRANCH  15  17
ATOM     17  C   UNL     1      -3.628  -1.440  24.611  0.00  0.00    +0.079 C 
ATOM     18  C   UNL     1      -3.295  -1.971  25.147  0.00  0.00    +0.009 C 
ATOM     19  C   UNL     1      -3.475  -2.736  24.892  0.00  0.00    +0.001 C 
ATOM     20  C   UNL     1      -3.918  -2.676  24.200  0.00  0.00    +0.001 C 
ATOM     21  C   UNL     1      -4.012  -1.875  24.026  0.00  0.00    +0.009 C 
ENDBRANCH  15  17
ENDBRANCH  13  14
BRANCH  10   2
ATOM      1  O   UNL     1      -4.159   3.600  23.682  0.00  0.00    -0.216 OA
ATOM      2  C   UNL     1      -3.797   3.137  24.262  0.00  0.00    +0.197 C 
BRANCH   2   3
ATOM      3  C   UNL     1      -3.390   3.497  24.882  0.00  0.00    +0.159 C 
ATOM      4  C   UNL     1      -3.778   3.652  25.593  0.00  0.00    +0.167 C 
ATOM      5  O   UNL     1      -3.372   4.013  26.215  0.00  0.00    -0.342 OA
ATOM      6  C   UNL     1      -2.578   4.218  26.125  0.00  0.00    +0.229 C 
ATOM      7  C   UNL     1      -2.191   4.063  25.413  0.00  0.00    +0.272 C 
ATOM      8  O   UNL     1      -1.397   4.269  25.323  0.00  0.00    -0.271 OA
ATOM      9  N   UNL     1      -2.596   3.703  24.792  0.00  0.00    -0.199 NA
ENDBRANCH   2   3
ENDBRANCH  10   2
TORSDOF 4
ENDMDL
MODEL 2
REMARK VINA RESULT:     -10.4      1.317      4.872
REMARK  Name = 
REMARK  4 active torsions:
REMARK  status: ('A' for Active; 'I' for Inactive)
REMARK    1  A    between atoms: C_2  and  C_3
REMARK    2  A    between atoms: C_2  and  C_10
REMARK    3  A    between atoms: C_13  and  N_14
REMARK    4  A    between atoms: C_15  and  C_17
REMARK                            x       y       z     vdW  Elec       q    Type
REMARK                         _______ _______ _______ _____ _____    ______ ____
ROOT
ATOM     10  C   UNL     1      -3.739   0.646  24.400  0.00  0.00    +0.010 A 
ATOM     11  C   UNL     1      -3.995   1.197  24.959  0.00  0.00    -0.000 A 
ATOM     12  C   UNL     1      -3.647   1.945  24.989  0.00  0.00    +0.016 A 
ATOM     13  C   UNL     1      -3.044   2.142  24.461  0.00  0.00    +0.073 A 
ATOM     22  C   UNL     1      -2.790   1.591  23.903  0.00  0.00    +0.016 A 
ATOM     23  C   UNL     1      -3.137   0.843  23.872  0.00  0.00    -0.000 A 
ENDROOT
BRANCH  13  14
ATOM     14  N   UNL     1      -2.697   2.889  24.491  0.00  0.00    -0.179 NA
ATOM     15  C   UNL     1      -2.060   3.027  24.998  0.00  0.00    +0.245 C 
ATOM     16  O   UNL     1      -1.770   2.419  25.473  0.00  0.00    -0.273 OA
BRANCH  15  17
ATOM     17  C   UNL     1      -1.713   3.775  25.028  0.00  0.00    +0.079 C 
ATOM     18  C   UNL     1      -2.082   4.472  25.270  0.00  0.00    +0.009 C 
ATOM     19  C   UNL     1      -1.532   5.085  25.214  0.00  0.00    +0.001 C 
ATOM     20  C   UNL     1      -0.824   4.767  24.937  0.00  0.00    +0.001 C 
ATOM     21  C   UNL     1      -0.935   3.957  24.822  0.00  0.00    +0.009 C 
ENDBRANCH  15  17
ENDBRANCH  13  14
BRANCH  10   2
ATOM      1  O   UNL     1      -4.794  -0.212  23.957  0.00  0.00    -0.216 OA
ATOM      2  C   UNL     1      -4.087  -0.101  24.369  0.00  0.00    +0.197 C 
BRANCH   2   3
ATOM      3  C   UNL     1      -3.728  -0.739  24.750  0.00  0.00    +0.159 C 
ATOM      4  C   UNL     1      -3.808  -0.829  25.566  0.00  0.00    +0.167 C 
ATOM      5  O   UNL     1      -3.450  -1.467  25.948  0.00  0.00    -0.342 OA
ATOM      6  C   UNL     1      -3.012  -2.015  25.513  0.00  0.00    +0.229 C 
ATOM      7  C   UNL     1      -2.932  -1.924  24.697  0.00  0.00    +0.272 C 
ATOM      8  O   UNL     1      -2.494  -2.471  24.262  0.00  0.00    -0.271 OA
ATOM      9  N   UNL     1      -3.290  -1.287  24.315  0.00  0.00    -0.199 NA
ENDBRANCH   2   3
ENDBRANCH  10   2
TORSDOF 4
ENDMDL
MODEL 3
REMARK VINA RESULT:     -10.2      1.763      2.455
REMARK  Name = 
REMARK  4 active torsions:
REMARK  status: ('A' for Active; 'I' for Inactive)
REMARK    1  A    between atoms: C_2  and  C_3
REMARK    2  A    between atoms: C_2  and  C_10
REMARK    3  A    between atoms: C_13  and  N_14
REMARK    4  A    between atoms: C_15  and  C_17
REMARK                            x       y       z     vdW  Elec       q    Type
REMARK                         _______ _______ _______ _____ _____    ______ ____
ROOT
ATOM     10  C   UNL     1      -0.829   1.480  25.124  0.00  0.00    +0.010 A 
ATOM     11  C   UNL     1      -1.016   0.942  25.721  0.00  0.00    -0.000 A 
ATOM     12  C   UNL     1      -1.421   0.248  25.538  0.00  0.00    +0.016 A 
ATOM     13  C   UNL     1      -1.640   0.091  24.757  0.00  0.00    +0.073 A 
ATOM     22  C   UNL     1      -1.453   0.630  24.161  0.00  0.00    +0.016 A 
ATOM     23  C   UNL     1      -1.047   1.324  24.344  0.00  0.00    -0.000 A 
ENDROOT
BRANCH  13  14
ATOM     14  N   UNL     1      -2.046  -0.603  24.574  0.00  0.00    -0.179 NA
ATOM     15  C   UNL     1      -2.864  -0.642  24.677  0.00  0.00    +0.245 C 
ATOM     16  O   UNL     1      -3.276   0.012  24.964  0.00  0.00    -0.273 OA
BRANCH  15  17
ATOM     17  C   UNL     1      -3.269  -1.337  24.494  0.00  0.00    +0.079 C 
ATOM     18  C   UNL     1      -3.930  -1.398  24.003  0.00  0.00    +0.009 C 
ATOM     19  C   UNL     1      -4.154  -2.192  23.975  0.00  0.00    +0.001 C 
ATOM     20  C   UNL     1      -3.633  -2.621  24.448  0.00  0.00    +0.001 C 
ATOM     21  C   UNL     1      -3.086  -2.093  24.769  0.00  0.00    +0.009 C 
ENDBRANCH  15  17
ENDBRANCH  13  14
BRANCH  10   2
ATOM      1  O   UNL     1       0.370   2.142  25.533  0.00  0.00    -0.216 OA
ATOM      2  C   UNL     1      -0.423   2.175  25.307  0.00  0.00    +0.197 C 
BRANCH   2   3
ATOM      3  C   UNL     1      -0.810   2.902  25.265  0.00  0.00    +0.159 C 
ATOM      4  C   UNL     1      -0.608   3.441  24.674  0.00  0.00    +0.167 C 
ATOM      5  O   UNL     1      -0.994   4.170  24.631  0.00  0.00    -0.342 OA
ATOM      6  C   UNL     1      -1.582   4.358  25.178  0.00  0.00    +0.229 C 
ATOM      7  C   UNL     1      -1.783   3.818  25.769  0.00  0.00    +0.272 C 
ATOM      8  O   UNL     1      -2.370   4.006  26.317  0.00  0.00    -0.271 OA
ATOM      9  N   UNL     1      -1.397   3.091  25.812  0.00  0.00    -0.199 NA
ENDBRANCH   2   3
ENDBRANCH  10   2
TORSDOF 4
ENDMDL
