MODEL 1
REMARK VINA RESULT:     -12.3      0.000      0.000
REMARK  Name = 
REMARK  4 active torsions:
REMARK  status: ('A' for Active; 'I' for Inactive)
REMARK    1  A    between atoms: C_2  and  C_20
REMARK    2  A    between atoms: C_6  and  C_8
REMARK    3  A    between atoms: C_11  and  C_12
REMARK    4  A    between atoms: C_12  and  C_13
REMARK                            x       y       z     vdW  Elec       q    Type
REMARK                         _______ _______ _______ _____ _____    ______ ____
ROOT
ATOM      1  O   UNL     1      -3.962  -0.772  25.954  0.00  0.00    -0.270 OA
ATOM      2  C   UNL     1      -3.767  -0.745  25.152  0.00  0.00    +0.249 C 
ATOM      3  N   UNL     1      -3.632  -0.018  24.786  0.00  0.00    -0.276 N 
ATOM      4  C   UNL     1      -3.433   0.095  23.993  0.00  0.00    +0.094 C 
ATOM      5  C   UNL     1      -3.350   0.906  23.864  0.00  0.00    +0.033 C 
ATOM      6  C   UNL     1      -3.497   1.294  24.578  0.00  0.00    +0.100 C 
ATOM      7  C   UNL     1      -3.672   0.723  25.147  0.00  0.00    +0.103 C 
ENDROOT
BRANCH   2  20
ATOM     20  C   UNL     1      -3.707  -1.443  24.718  0.00  0.00    +0.057 A 
ATOM     21  C   UNL     1      -4.322  -1.672  24.218  0.00  0.00    +0.025 A 
ATOM     22  C   UNL     1      -4.263  -2.371  23.783  0.00  0.00    +0.099 A 
ATOM     23  N   UNL     1      -3.588  -2.841  23.850  0.00  0.00    -0.242 NA
ATOM     24  C   UNL     1      -2.973  -2.612  24.350  0.00  0.00    +0.099 A 
ATOM     25  C   UNL     1      -3.033  -1.914  24.784  0.00  0.00    +0.025 A 
ENDBRANCH   2  20
BRANCH   6   8
ATOM      8  C   UNL     1      -3.475   2.109  24.700  0.00  0.00    +0.227 A 
ATOM      9  N   UNL     1      -3.903   2.675  24.279  0.00  0.00    -0.112 NA
ATOM     10  N   UNL     1      -3.713   3.418  24.584  0.00  0.00    -0.111 NA
ATOM     11  C   UNL     1      -3.167   3.311  25.193  0.00  0.00    +0.230 A 
ATOM     19  O   UNL     1      -3.019   2.502  25.265  0.00  0.00    -0.423 OA
BRANCH  11  12
ATOM     12  C   UNL     1      -2.828   3.908  25.650  0.00  0.00    +0.113 C 
BRANCH  12  13
ATOM     13  C   UNL     1      -2.112   4.249  25.419  0.00  0.00    -0.013 A 
ATOM     14  C   UNL     1      -2.092   5.034  25.169  0.00  0.00    -0.004 A 
ATOM     15  C   UNL     1      -1.377   5.376  24.938  0.00  0.00    -0.000 A 
ATOM     16  C   UNL     1      -0.682   4.931  24.958  0.00  0.00    -0.000 A 
ATOM     17  C   UNL     1      -0.704   4.144  25.209  0.00  0.00    -0.000 A 
ATOM     18  C   UNL     1      -1.418   3.804  25.439  0.00  0.00    -0.004 A 
ENDBRANCH  12  13
ENDBRANCH  11  12
ENDBRANCH   6   8
TORSDOF 4
ENDMDL
MODEL 2
REMARK VINA RESULT:     -12.2      1.173      5.545
REMARK  Name = 
REMARK  4 active torsions:
REMARK  status: ('A' for Active; 'I' for Inactive)
REMARK    1  A    between atoms: C_2  and  C_20
REMARK    2  A    between atoms: C_6  and  C_8
REMARK    3  A    between atoms: C_11  and  C_12
REMARK    4  A    between atoms: C_12  and  C_13
REMARK                            x       y       z     vdW  Elec       q    Type
REMARK                         _______ _______ _______ _____ _____    ______ ____
ROOT
ATOM      1  O   UNL     1      -1.356   2.696  25.993  0.00  0.00    -0.270 OA
ATOM      2  C   UNL     1      -1.682   3.106  25.355  0.00  0.00    +0.249 C 
ATOM      3  N   UNL     1      -2.190   2.719  24.833  0.00  0.00    -0.276 N 
ATOM      4  C   UNL     1      -2.556   3.054  24.175  0.00  0.00    +0.094 C 
ATOM      5  C   UNL     1      -3.014   2.471  23.812  0.00  0.00    +0.033 C 
ATOM      6  C   UNL     1      -2.930   1.775  24.247  0.00  0.00    +0.100 C 
ATOM      7  C   UNL     1      -2.421   1.928  24.878  0.00  0.00    +0.103 C 
ENDROOT
BRANCH   2  20
ATOM     20  C   UNL     1      -1.500   3.901  25.240  0.00  0.00    +0.057 A 
ATOM     21  C   UNL     1      -2.024   4.485  25.495  0.00  0.00    +0.025 A 
ATOM     22  C   UNL     1      -1.842   5.282  25.379  0.00  0.00    +0.099 A 
ATOM     23  N   UNL     1      -1.136   5.494  25.009  0.00  0.00    -0.242 NA
ATOM     24  C   UNL     1      -0.612   4.910  24.754  0.00  0.00    +0.099 A 
ATOM     25  C   UNL     1      -0.794   4.115  24.869  0.00  0.00    +0.025 A 
ENDBRANCH   2  20
BRANCH   6   8
ATOM      8  C   UNL     1      -3.292   1.052  24.081  0.00  0.00    +0.227 A 
ATOM      9  N   UNL     1      -3.333   0.690  23.340  0.00  0.00    -0.112 NA
ATOM     10  N   UNL     1      -3.743  -0.020  23.426  0.00  0.00    -0.111 NA
ATOM     11  C   UNL     1      -3.955  -0.098  24.220  0.00  0.00    +0.230 A 
ATOM     19  O   UNL     1      -3.676   0.566  24.624  0.00  0.00    -0.423 OA
BRANCH  11  12
ATOM     12  C   UNL     1      -4.372  -0.727  24.551  0.00  0.00    +0.113 C 
BRANCH  12  13
ATOM     13  C   UNL     1      -4.012  -1.465  24.630  0.00  0.00    -0.013 A 
ATOM     14  C   UNL     1      -4.090  -2.028  24.032  0.00  0.00    -0.004 A 
ATOM     15  C   UNL     1      -3.730  -2.766  24.110  0.00  0.00    -0.000 A 
ATOM     16  C   UNL     1      -3.293  -2.942  24.788  0.00  0.00    -0.000 A 
ATOM     17  C   UNL     1      -3.216  -2.378  25.386  0.00  0.00    -0.000 A 
ATOM     18  C   UNL     1      -3.575  -1.641  25.307  0.00  0.00    -0.004 A 
ENDBRANCH  12  13
ENDBRANCH  11  12
ENDBRANCH   6   8
TORSDOF 4
ENDMDL
