MODEL 1
REMARK VINA RESULT:     -12.2      0.000      0.000
REMARK  Name = 
REMARK  5 active torsions:
REMARK  status: ('A' for Active; 'I' for Inactive)
REMARK    1  A    between atoms: S_2  and  C_3
REMARK    2  A    between atoms: C_3  and  C_4
REMARK    3  A    between atoms: N_6  and  C_7
REMARK    4  A    between atoms: N_15  and  S_17
REMARK    5  A    between atoms: S_17  and  C_20
REMARK                            x       y       z     vdW  Elec       q    Type
REMARK                         _______ _______ _______ _____ _____    ______ ____
ROOT
ATOM      7  C   UNL     1      -3.226   0.354  24.624  0.00  0.00    +0.129 A 
ATOM      8  C   UNL     1      -4.002   0.136  24.450  0.00  0.00    +0.023 A 
ATOM      9  C   UNL     1      -4.198  -0.660  24.363  0.00  0.00    +0.014 A 
ATOM     10  C   UNL     1      -3.618  -1.239  24.450  0.00  0.00    +0.041 A 
ATOM     11  C   UNL     1      -3.509  -2.152  24.420  0.00  0.00    +0.056 C 
ATOM     12  C   UNL     1      -3.868  -2.745  24.312  0.00  0.00    +0.011 C 
ATOM     13  C   UNL     1      -3.102  -2.527  24.484  0.00  0.00    +0.041 C 
ATOM     14  C   UNL     1      -2.137  -2.465  24.688  0.00  0.00    +0.098 C 
ATOM     15  N   UNL     1      -2.060  -1.636  24.752  0.00  0.00    -0.155 NA
ATOM     16  C   UNL     1      -2.576  -2.109  24.617  0.00  0.00    +0.102 C 
ATOM     25  C   UNL     1      -3.205  -1.573  24.517  0.00  0.00    +0.110 C 
ATOM     26  N   UNL     1      -2.841  -1.022  24.625  0.00  0.00    -0.298 N 
ATOM     27  C   UNL     1      -2.645  -0.225  24.711  0.00  0.00    +0.276 A 
ATOM     28  O   UNL     1      -1.868  -0.008  24.886  0.00  0.00    -0.266 OA
ENDROOT
BRANCH   7   6
ATOM      4  C   UNL     1      -3.626   1.715  24.788  0.00  0.00    +0.257 C 
ATOM      5  O   UNL     1      -3.431   2.513  24.875  0.00  0.00    -0.272 OA
ATOM      6  N   UNL     1      -3.031   1.150  24.711  0.00  0.00    -0.174 NA
BRANCH   4   3
ATOM      3  C   UNL     1      -4.418   1.484  24.779  0.00  0.00    +0.145 C 
BRANCH   3   2
ATOM      1  C   UNL     1      -5.719   1.900  25.200  0.00  0.00    +0.070 C 
ATOM      2  S   UNL     1      -5.015   2.054  24.798  0.00  0.00    -0.130 S 
ENDBRANCH   3   2
ENDBRANCH   4   3
ENDBRANCH   7   6
BRANCH  15  17
ATOM     17  S   UNL     1      -1.699  -0.903  24.869  0.00  0.00    +0.069 S 
ATOM     18  O   UNL     1      -1.528  -0.858  24.063  0.00  0.00    -0.152 OA
ATOM     19  O   UNL     1      -1.870  -0.948  25.676  0.00  0.00    -0.152 OA
BRANCH  17  20
ATOM     20  C   UNL     1      -1.338  -0.170  24.987  0.00  0.00    +0.152 A 
ATOM     21  C   UNL     1      -1.281   0.233  25.704  0.00  0.00    +0.027 A 
ATOM     22  C   UNL     1      -0.878   0.940  25.568  0.00  0.00    +0.009 A 
ATOM     23  C   UNL     1      -0.686   0.973  24.766  0.00  0.00    +0.037 A 
ATOM     24  S   UNL     1      -0.970   0.287  24.407  0.00  0.00    -0.067 S 
ENDBRANCH  17  20
ENDBRANCH  15  17
TORSDOF 5
ENDMDL
MODEL 2
REMARK VINA RESULT:     -11.7      1.136      3.430
REMARK  Name = 
REMARK  5 active torsions:
REMARK  status: ('A' for Active; 'I' for Inactive)
REMARK    1  A    between atoms: S_2  and  C_3
REMARK    2  A    between atoms: C_3  and  C_4
REMARK    3  A    between atoms: N_6  and  C_7
REMARK    4  A    between atoms: N_15  and  S_17
REMARK    5  A    between atoms: S_17  and  C_20
REMARK                            x       y       z     vdW  Elec       q    Type
REMARK                         _______ _______ _______ _____ _____    ______ ____
ROOT
ATOM      7  C   UNL     1      -3.229   0.230  24.733  0.00  0.00    +0.129 A 
ATOM      8  C   UNL     1      -3.897  -0.183  24.986  0.00  0.00    +0.023 A 
ATOM      9  C   UNL     1      -4.614   0.212  25.084  0.00  0.00    +0.014 A 
ATOM     10  C   UNL     1      -4.664   1.020  24.930  0.00  0.00    +0.041 A 
ATOM     11  C   UNL     1      -5.268   1.713  24.939  0.00  0.00    +0.056 C 
ATOM     12  C   UNL     1      -5.941   1.854  25.079  0.00  0.00    +0.011 C 
ATOM     13  C   UNL     1      -5.280   2.259  24.829  0.00  0.00    +0.041 C 
ATOM     14  C   UNL     1      -4.604   2.914  24.525  0.00  0.00    +0.098 C 
ATOM     15  N   UNL     1      -3.940   2.410  24.462  0.00  0.00    -0.155 NA
ATOM     16  C   UNL     1      -4.627   2.357  24.645  0.00  0.00    +0.102 C 
ATOM     25  C   UNL     1      -4.641   1.542  24.817  0.00  0.00    +0.110 C 
ATOM     26  N   UNL     1      -3.996   1.434  24.677  0.00  0.00    -0.298 N 
ATOM     27  C   UNL     1      -3.278   1.039  24.579  0.00  0.00    +0.276 A 
ATOM     28  O   UNL     1      -2.611   1.452  24.326  0.00  0.00    -0.266 OA
ENDROOT
BRANCH   7   6
ATOM      4  C   UNL     1      -2.492  -0.990  24.641  0.00  0.00    +0.257 C 
ATOM      5  O   UNL     1      -1.773  -1.386  24.542  0.00  0.00    -0.272 OA
ATOM      6  N   UNL     1      -2.512  -0.166  24.635  0.00  0.00    -0.174 NA
BRANCH   4   3
ATOM      3  C   UNL     1      -3.188  -1.419  24.745  0.00  0.00    +0.145 C 
BRANCH   3   2
ATOM      1  C   UNL     1      -3.696  -2.715  24.418  0.00  0.00    +0.070 C 
ATOM      2  S   UNL     1      -3.159  -2.240  24.826  0.00  0.00    -0.130 S 
ENDBRANCH   3   2
ENDBRANCH   4   3
ENDBRANCH   7   6
BRANCH  15  17
ATOM     17  S   UNL     1      -3.162   2.177  24.315  0.00  0.00    +0.069 S 
ATOM     18  O   UNL     1      -3.359   2.018  23.529  0.00  0.00    -0.152 OA
ATOM     19  O   UNL     1      -2.966   2.336  25.101  0.00  0.00    -0.152 OA
BRANCH  17  20
ATOM     20  C   UNL     1      -2.384   1.944  24.168  0.00  0.00    +0.152 A 
ATOM     21  C   UNL     1      -2.091   1.656  23.453  0.00  0.00    +0.027 A 
ATOM     22  C   UNL     1      -1.290   1.492  23.553  0.00  0.00    +0.009 A 
ATOM     23  C   UNL     1      -1.086   1.680  24.331  0.00  0.00    +0.037 A 
ATOM     24  S   UNL     1      -1.763   1.959  24.711  0.00  0.00    -0.067 S 
ENDBRANCH  17  20
ENDBRANCH  15  17
TORSDOF 5
ENDMDL
MODEL 3
REMARK VINA RESULT:     -11.5      1.292      3.584
REMARK  Name = 
REMARK  5 active torsions:
REMARK  status: ('A' for Active; 'I' for Inactive)
REMARK    1  A    between atoms: S_2  and  C_3
REMARK    2  A    between atoms: C_3  and  C_4
REMARK    3  A    between atoms: N_6  and  C_7
REMARK    4  A    between atoms: N_15  and  S_17
REMARK    5  A    between atoms: S_17  and  C_20
REMARK                            x       y       z     vdW  Elec       q    Type
REMARK                         _______ _______ _______ _____ _____    ______ ____
ROOT
ATOM      7  C   UNL     1      -2.464   0.545  24.552  0.00  0.00    +0.129 A 
ATOM      8  C   UNL     1      -2.199   1.321  24.454  0.00  0.00    +0.023 A 
ATOM      9  C   UNL     1      -2.735   1.947  24.487  0.00  0.00    +0.014 A 
ATOM     10  C   UNL     1      -3.535   1.798  24.618  0.00  0.00    +0.041 A 
ATOM     11  C   UNL     1      -4.338   2.238  24.705  0.00  0.00    +0.056 C 
ATOM     12  C   UNL     1      -4.616   2.882  24.698  0.00  0.00    +0.011 C 
ATOM     13  C   UNL     1      -4.874   2.115  24.795  0.00  0.00    +0.041 C 
ATOM     14  C   UNL     1      -5.373   1.273  24.934  0.00  0.00    +0.098 C 
ATOM     15  N   UNL     1      -4.742   0.727  24.881  0.00  0.00    -0.155 NA
ATOM     16  C   UNL     1      -4.833   1.433  24.841  0.00  0.00    +0.102 C 
ATOM     25  C   UNL     1      -4.041   1.648  24.706  0.00  0.00    +0.110 C 
ATOM     26  N   UNL     1      -3.800   1.023  24.717  0.00  0.00    -0.298 N 
ATOM     27  C   UNL     1      -3.264   0.397  24.684  0.00  0.00    +0.276 A 
ATOM     28  O   UNL     1      -3.529  -0.379  24.783  0.00  0.00    -0.266 OA
ENDROOT
BRANCH   7   6
ATOM      4  C   UNL     1      -1.125   0.070  24.402  0.00  0.00    +0.257 C 
ATOM      5  O   UNL     1      -0.588  -0.557  24.369  0.00  0.00    -0.272 OA
ATOM      6  N   UNL     1      -1.928  -0.080  24.519  0.00  0.00    -0.174 NA
BRANCH   4   3
ATOM      3  C   UNL     1      -0.858   0.846  24.318  0.00  0.00    +0.145 C 
BRANCH   3   2
ATOM      1  C   UNL     1       0.312   1.665  24.368  0.00  0.00    +0.070 C 
ATOM      2  S   UNL     1      -0.077   0.991  24.094  0.00  0.00    -0.130 S 
ENDBRANCH   3   2
ENDBRANCH   4   3
ENDBRANCH   7   6
BRANCH  15  17
ATOM     17  S   UNL     1      -4.353  -0.000  24.878  0.00  0.00    +0.069 S 
ATOM     18  O   UNL     1      -4.461  -0.054  24.061  0.00  0.00    -0.152 OA
ATOM     19  O   UNL     1      -4.244   0.054  25.694  0.00  0.00    -0.152 OA
BRANCH  17  20
ATOM     20  C   UNL     1      -3.963  -0.728  24.874  0.00  0.00    +0.152 A 
ATOM     21  C   UNL     1      -3.596  -1.085  25.521  0.00  0.00    +0.027 A 
ATOM     22  C   UNL     1      -3.278  -1.803  25.270  0.00  0.00    +0.009 A 
ATOM     23  C   UNL     1      -3.448  -1.890  24.467  0.00  0.00    +0.037 A 
ATOM     24  S   UNL     1      -3.871  -1.225  24.222  0.00  0.00    -0.067 S 
ENDBRANCH  17  20
ENDBRANCH  15  17
TORSDOF 5
ENDMDL
MODEL 4
REMARK VINA RESULT:     -11.2      2.222      4.052
REMARK  Name = 
REMARK  5 active torsions:
REMARK  status: ('A' for Active; 'I' for Inactive)
REMARK    1  A    between atoms: S_2  and  C_3
REMARK    2  A    between atoms: C_3  and  C_4
REMARK    3  A    between atoms: N_6  and  C_7
REMARK    4  A    between atoms: N_15  and  S_17
REMARK    5  A    between atoms: S_17  and  C_20
REMARK                            x       y       z     vdW  Elec       q    Type
REMARK                         _______ _______ _______ _____ _____    ______ ____
ROOT
ATOM      7  C   UNL     1      -2.891   2.336  24.896  0.00  0.00    +0.129 A 
ATOM      8  C   UNL     1      -3.423   2.964  24.958  0.00  0.00    +0.023 A 
ATOM      9  C   UNL     1      -3.144   3.736  25.041  0.00  0.00    +0.014 A 
ATOM     10  C   UNL     1      -2.332   3.880  25.061  0.00  0.00    +0.041 A 
ATOM     11  C   UNL     1      -1.732   4.572  25.137  0.00  0.00    +0.056 C 
ATOM     12  C   UNL     1      -1.702   5.269  25.211  0.00  0.00    +0.011 C 
ATOM     13  C   UNL     1      -1.180   4.648  25.148  0.00  0.00    +0.041 C 
ATOM     14  C   UNL     1      -0.402   4.041  25.089  0.00  0.00    +0.098 C 
ATOM     15  N   UNL     1      -0.800   3.311  25.010  0.00  0.00    -0.155 NA
ATOM     16  C   UNL     1      -0.970   3.999  25.081  0.00  0.00    +0.102 C 
ATOM     25  C   UNL     1      -1.799   3.918  25.068  0.00  0.00    +0.110 C 
ATOM     26  N   UNL     1      -1.800   3.253  24.998  0.00  0.00    -0.298 N 
ATOM     27  C   UNL     1      -2.079   2.481  24.916  0.00  0.00    +0.276 A 
ATOM     28  O   UNL     1      -1.547   1.854  24.853  0.00  0.00    -0.266 OA
ENDROOT
BRANCH   7   6
ATOM      4  C   UNL     1      -3.980   1.412  24.863  0.00  0.00    +0.257 C 
ATOM      5  O   UNL     1      -4.260   0.640  24.780  0.00  0.00    -0.272 OA
ATOM      6  N   UNL     1      -3.171   1.565  24.813  0.00  0.00    -0.174 NA
BRANCH   4   3
ATOM      3  C   UNL     1      -4.510   2.031  24.996  0.00  0.00    +0.145 C 
BRANCH   3   2
ATOM      1  C   UNL     1      -5.830   2.248  25.497  0.00  0.00    +0.070 C 
ATOM      2  S   UNL     1      -5.322   1.895  24.950  0.00  0.00    -0.130 S 
ENDBRANCH   3   2
ENDBRANCH   4   3
ENDBRANCH   7   6
BRANCH  15  17
ATOM     17  S   UNL     1      -0.905   2.496  24.924  0.00  0.00    +0.069 S 
ATOM     18  O   UNL     1      -0.900   2.583  24.103  0.00  0.00    -0.152 OA
ATOM     19  O   UNL     1      -0.909   2.410  25.745  0.00  0.00    -0.152 OA
BRANCH  17  20
ATOM     20  C   UNL     1      -1.010   1.682  24.838  0.00  0.00    +0.152 A 
ATOM     21  C   UNL     1      -1.099   1.137  25.450  0.00  0.00    +0.027 A 
ATOM     22  C   UNL     1      -1.188   0.389  25.116  0.00  0.00    +0.009 A 
ATOM     23  C   UNL     1      -1.153   0.471  24.295  0.00  0.00    +0.037 A 
ATOM     24  S   UNL     1      -1.043   1.271  24.123  0.00  0.00    -0.067 S 
ENDBRANCH  17  20
ENDBRANCH  15  17
TORSDOF 5
ENDMDL
MODEL 5
REMARK VINA RESULT:     -11.2      1.968      4.788
REMARK  Name = 
REMARK  5 active torsions:
REMARK  status: ('A' for Active; 'I' for Inactive)
REMARK    1  A    between atoms: S_2  and  C_3
REMARK    2  A    between atoms: C_3  and  C_4
REMARK    3  A    between atoms: N_6  and  C_7
REMARK    4  A    between atoms: N_15  and  S_17
REMARK    5  A    between atoms: S_17  and  C_20
REMARK                            x       y       z     vdW  Elec       q    Type
REMARK                         _______ _______ _______ _____ _____    ______ ____
ROOT
ATOM      7  C   UNL     1      -2.465   1.834  24.947  0.00  0.00    +0.129 A 
ATOM      8  C   UNL     1      -1.649   1.713  24.975  0.00  0.00    +0.023 A 
ATOM      9  C   UNL     1      -1.139   2.358  25.039  0.00  0.00    +0.014 A 
ATOM     10  C   UNL     1      -1.444   3.124  25.077  0.00  0.00    +0.041 A 
ATOM     11  C   UNL     1      -1.171   3.998  25.146  0.00  0.00    +0.056 C 
ATOM     12  C   UNL     1      -0.592   4.392  25.197  0.00  0.00    +0.011 C 
ATOM     13  C   UNL     1      -1.398   4.507  25.170  0.00  0.00    +0.041 C 
ATOM     14  C   UNL     1      -2.326   4.846  25.152  0.00  0.00    +0.098 C 
ATOM     15  N   UNL     1      -2.739   4.123  25.087  0.00  0.00    -0.155 NA
ATOM     16  C   UNL     1      -2.062   4.342  25.130  0.00  0.00    +0.102 C 
ATOM     25  C   UNL     1      -1.693   3.596  25.097  0.00  0.00    +0.110 C 
ATOM     26  N   UNL     1      -2.260   3.244  25.049  0.00  0.00    -0.298 N 
ATOM     27  C   UNL     1      -2.771   2.599  24.985  0.00  0.00    +0.276 A 
ATOM     28  O   UNL     1      -3.586   2.719  24.957  0.00  0.00    -0.266 OA
ENDROOT
BRANCH   7   6
ATOM      4  C   UNL     1      -2.674   0.421  24.906  0.00  0.00    +0.257 C 
ATOM      5  O   UNL     1      -3.184  -0.225  24.841  0.00  0.00    -0.272 OA
ATOM      6  N   UNL     1      -2.975   1.189  24.883  0.00  0.00    -0.174 NA
BRANCH   4   3
ATOM      3  C   UNL     1      -1.862   0.298  24.994  0.00  0.00    +0.145 C 
BRANCH   3   2
ATOM      1  C   UNL     1      -0.855  -0.703  24.835  0.00  0.00    +0.070 C 
ATOM      2  S   UNL     1      -1.575  -0.459  25.155  0.00  0.00    -0.130 S 
ENDBRANCH   3   2
ENDBRANCH   4   3
ENDBRANCH   7   6
BRANCH  15  17
ATOM     17  S   UNL     1      -3.378   3.604  25.025  0.00  0.00    +0.069 S 
ATOM     18  O   UNL     1      -3.338   3.652  24.202  0.00  0.00    -0.152 OA
ATOM     19  O   UNL     1      -3.417   3.555  25.848  0.00  0.00    -0.152 OA
BRANCH  17  20
ATOM     20  C   UNL     1      -4.016   3.085  24.963  0.00  0.00    +0.152 A 
ATOM     21  C   UNL     1      -4.322   2.772  24.263  0.00  0.00    +0.027 A 
ATOM     22  C   UNL     1      -4.955   2.282  24.458  0.00  0.00    +0.009 A 
ATOM     23  C   UNL     1      -5.042   2.291  25.279  0.00  0.00    +0.037 A 
ATOM     24  S   UNL     1      -4.462   2.787  25.591  0.00  0.00    -0.067 S 
ENDBRANCH  17  20
ENDBRANCH  15  17
TORSDOF 5
ENDMDL
