MODEL 1
REMARK VINA RESULT:     -12.4      0.000      0.000
REMARK  Name = 
REMARK  5 active torsions:
REMARK  status: ('A' for Active; 'I' for Inactive)
REMARK    1  A    between atoms: C_5  and  C_6
REMARK    2  A    between atoms: C_6  and  N_7
REMARK    3  A    between atoms: N_11  and  S_17
REMARK    4  A    between atoms: S_17  and  C_20
REMARK    5  A    between atoms: C_20  and  C_21
REMARK                            x       y       z     vdW  Elec       q    Type
REMARK                         _______ _______ _______ _____ _____    ______ ____
ROOT
ATOM      7  N   UNL     1      -0.429   2.115  25.233  0.00  0.00    -0.258 N 
ATOM      8  C   UNL     1      -1.110   1.835  25.605  0.00  0.00    +0.117 C 
ATOM      9  C   UNL     1      -1.240   1.062  25.350  0.00  0.00    +0.114 C 
ATOM     10  C   UNL     1      -1.828   0.511  25.531  0.00  0.00    +0.117 C 
ATOM     11  N   UNL     1      -1.815  -0.236  25.182  0.00  0.00    -0.156 NA
ATOM     12  C   UNL     1      -1.215  -0.433  24.652  0.00  0.00    +0.117 C 
ATOM     13  C   UNL     1      -0.627   0.116  24.470  0.00  0.00    +0.114 C 
ATOM     14  N   UNL     1      -0.640   0.864  24.820  0.00  0.00    -0.261 N 
ATOM     15  C   UNL     1      -0.138   1.515  24.748  0.00  0.00    +0.308 C 
ATOM     16  O   UNL     1       0.535   1.558  24.273  0.00  0.00    -0.252 OA
ENDROOT
BRANCH  11  17
ATOM     17  S   UNL     1      -2.403  -0.786  25.363  0.00  0.00    +0.048 S 
ATOM     18  O   UNL     1      -2.969  -0.187  25.351  0.00  0.00    -0.157 OA
ATOM     19  O   UNL     1      -1.836  -1.386  25.375  0.00  0.00    -0.157 OA
BRANCH  17  20
ATOM     20  C   UNL     1      -2.989  -1.337  25.544  0.00  0.00    +0.195 C 
BRANCH  20  21
ATOM     21  C   UNL     1      -3.401  -1.715  24.936  0.00  0.00    +0.003 A 
ATOM     22  C   UNL     1      -3.250  -2.509  24.768  0.00  0.00    -0.003 A 
ATOM     23  C   UNL     1      -3.662  -2.887  24.161  0.00  0.00    -0.000 A 
ATOM     24  C   UNL     1      -4.223  -2.471  23.722  0.00  0.00    -0.000 A 
ATOM     25  C   UNL     1      -4.374  -1.678  23.891  0.00  0.00    -0.000 A 
ATOM     26  C   UNL     1      -3.963  -1.300  24.498  0.00  0.00    -0.003 A 
ENDBRANCH  20  21
ENDBRANCH  17  20
ENDBRANCH  11  17
BRANCH   7   6
ATOM      6  C   UNL     1      -0.097   2.864  25.330  0.00  0.00    +0.122 C 
BRANCH   6   5
ATOM      1  F   UNL     1      -1.972   5.559  24.996  0.00  0.00    -0.204 F 
ATOM      2  C   UNL     1      -1.503   4.885  25.080  0.00  0.00    +0.140 A 
ATOM      3  C   UNL     1      -1.639   4.363  25.703  0.00  0.00    +0.029 A 
ATOM      4  C   UNL     1      -1.170   3.689  25.787  0.00  0.00    -0.000 A 
ATOM      5  C   UNL     1      -0.566   3.538  25.247  0.00  0.00    -0.002 A 
ATOM     27  C   UNL     1      -0.430   4.060  24.622  0.00  0.00    -0.000 A 
ATOM     28  C   UNL     1      -0.899   4.734  24.539  0.00  0.00    +0.029 A 
ENDBRANCH   6   5
ENDBRANCH   7   6
TORSDOF 5
ENDMDL
MODEL 2
REMARK VINA RESULT:     -12.3      1.964      2.605
REMARK  Name = 
REMARK  5 active torsions:
REMARK  status: ('A' for Active; 'I' for Inactive)
REMARK    1  A    between atoms: C_5  and  C_6
REMARK    2  A    between atoms: C_6  and  N_7
REMARK    3  A    between atoms: N_11  and  S_17
REMARK    4  A    between atoms: S_17  and  C_20
REMARK    5  A    between atoms: C_20  and  C_21
REMARK                            x       y       z     vdW  Elec       q    Type
REMARK                         _______ _______ _______ _____ _____    ______ ____
ROOT
ATOM      7  N   UNL     1      -3.237   3.261  25.620  0.00  0.00    -0.258 N 
ATOM      8  C   UNL     1      -2.846   2.596  25.328  0.00  0.00    +0.117 C 
ATOM      9  C   UNL     1      -3.415   2.064  25.057  0.00  0.00    +0.114 C 
ATOM     10  C   UNL     1      -3.353   1.317  24.713  0.00  0.00    +0.117 C 
ATOM     11  N   UNL     1      -4.034   0.906  24.493  0.00  0.00    -0.156 NA
ATOM     12  C   UNL     1      -4.777   1.243  24.617  0.00  0.00    +0.117 C 
ATOM     13  C   UNL     1      -4.839   1.990  24.961  0.00  0.00    +0.114 C 
ATOM     14  N   UNL     1      -4.158   2.401  25.181  0.00  0.00    -0.261 N 
ATOM     15  C   UNL     1      -4.048   3.140  25.529  0.00  0.00    +0.308 C 
ATOM     16  O   UNL     1      -4.644   3.667  25.747  0.00  0.00    -0.252 OA
ENDROOT
BRANCH  11  17
ATOM     17  S   UNL     1      -3.972   0.159  24.149  0.00  0.00    +0.048 S 
ATOM     18  O   UNL     1      -4.582  -0.114  24.631  0.00  0.00    -0.157 OA
ATOM     19  O   UNL     1      -3.361   0.432  23.665  0.00  0.00    -0.157 OA
BRANCH  17  20
ATOM     20  C   UNL     1      -3.910  -0.588  23.804  0.00  0.00    +0.195 C 
BRANCH  20  21
ATOM     21  C   UNL     1      -3.527  -1.198  24.208  0.00  0.00    +0.003 A 
ATOM     22  C   UNL     1      -3.969  -1.760  24.619  0.00  0.00    -0.003 A 
ATOM     23  C   UNL     1      -3.587  -2.370  25.023  0.00  0.00    -0.000 A 
ATOM     24  C   UNL     1      -2.763  -2.417  25.016  0.00  0.00    -0.000 A 
ATOM     25  C   UNL     1      -2.322  -1.854  24.604  0.00  0.00    -0.000 A 
ATOM     26  C   UNL     1      -2.704  -1.245  24.200  0.00  0.00    -0.003 A 
ENDBRANCH  20  21
ENDBRANCH  17  20
ENDBRANCH  11  17
BRANCH   7   6
ATOM      6  C   UNL     1      -2.880   3.930  25.945  0.00  0.00    +0.122 C 
BRANCH   6   5
ATOM      1  F   UNL     1      -0.187   5.216  24.537  0.00  0.00    -0.204 F 
ATOM      2  C   UNL     1      -0.860   4.894  24.889  0.00  0.00    +0.140 A 
ATOM      3  C   UNL     1      -0.806   4.190  25.315  0.00  0.00    +0.029 A 
ATOM      4  C   UNL     1      -1.479   3.868  25.668  0.00  0.00    -0.000 A 
ATOM      5  C   UNL     1      -2.206   4.251  25.593  0.00  0.00    -0.002 A 
ATOM     27  C   UNL     1      -2.260   4.956  25.167  0.00  0.00    -0.000 A 
ATOM     28  C   UNL     1      -1.587   5.277  24.815  0.00  0.00    +0.029 A 
ENDBRANCH   6   5
ENDBRANCH   7   6
TORSDOF 5
ENDMDL
MODEL 3
REMARK VINA RESULT:     -12.0      2.827      5.778
REMARK  Name = 
REMARK  5 active torsions:
REMARK  status: ('A' for Active; 'I' for Inactive)
REMARK    1  A    between atoms: C_5  and  C_6
REMARK    2  A    between atoms: C_6  and  N_7
REMARK    3  A    between atoms: N_11  and  S_17
REMARK    4  A    between atoms: S_17  and  C_20
REMARK    5  A    between atoms: C_20  and  C_21
REMARK                            x       y       z     vdW  Elec       q    Type
REMARK                         _______ _______ _______ _____ _____    ______ ____
ROOT
ATOM      7  N   UNL     1      -4.610   0.852  24.759  0.00  0.00    -0.258 N 
ATOM      8  C   UNL     1      -3.858   1.184  24.834  0.00  0.00    +0.117 C 
ATOM      9  C   UNL     1      -3.949   1.971  25.061  0.00  0.00    +0.114 C 
ATOM     10  C   UNL     1      -3.400   2.568  25.217  0.00  0.00    +0.117 C 
ATOM     11  N   UNL     1      -3.659   3.319  25.438  0.00  0.00    -0.156 NA
ATOM     12  C   UNL     1      -4.467   3.474  25.504  0.00  0.00    +0.117 C 
ATOM     13  C   UNL     1      -5.016   2.878  25.349  0.00  0.00    +0.114 C 
ATOM     14  N   UNL     1      -4.756   2.126  25.127  0.00  0.00    -0.261 N 
ATOM     15  C   UNL     1      -5.165   1.435  24.941  0.00  0.00    +0.308 C 
ATOM     16  O   UNL     1      -5.985   1.342  24.937  0.00  0.00    -0.252 OA
ENDROOT
BRANCH  11  17
ATOM     17  S   UNL     1      -3.111   3.916  25.594  0.00  0.00    +0.048 S 
ATOM     18  O   UNL     1      -3.197   4.196  24.823  0.00  0.00    -0.157 OA
ATOM     19  O   UNL     1      -3.025   3.635  26.365  0.00  0.00    -0.157 OA
BRANCH  17  20
ATOM     20  C   UNL     1      -2.563   4.512  25.750  0.00  0.00    +0.195 C 
BRANCH  20  21
ATOM     21  C   UNL     1      -1.803   4.467  25.431  0.00  0.00    +0.003 A 
ATOM     22  C   UNL     1      -1.529   5.067  24.935  0.00  0.00    -0.003 A 
ATOM     23  C   UNL     1      -0.769   5.023  24.616  0.00  0.00    -0.000 A 
ATOM     24  C   UNL     1      -0.284   4.379  24.792  0.00  0.00    -0.000 A 
ATOM     25  C   UNL     1      -0.559   3.779  25.288  0.00  0.00    -0.000 A 
ATOM     26  C   UNL     1      -1.318   3.823  25.607  0.00  0.00    -0.003 A 
ENDBRANCH  20  21
ENDBRANCH  17  20
ENDBRANCH  11  17
BRANCH   7   6
ATOM      6  C   UNL     1      -4.777   0.074  24.542  0.00  0.00    +0.122 C 
BRANCH   6   5
ATOM      1  F   UNL     1      -2.543  -2.301  25.049  0.00  0.00    -0.204 F 
ATOM      2  C   UNL     1      -3.102  -1.707  24.923  0.00  0.00    +0.140 A 
ATOM      3  C   UNL     1      -3.486  -1.359  25.564  0.00  0.00    +0.029 A 
ATOM      4  C   UNL     1      -4.044  -0.765  25.437  0.00  0.00    -0.000 A 
ATOM      5  C   UNL     1      -4.219  -0.520  24.669  0.00  0.00    -0.002 A 
ATOM     27  C   UNL     1      -3.834  -0.868  24.027  0.00  0.00    -0.000 A 
ATOM     28  C   UNL     1      -3.276  -1.462  24.155  0.00  0.00    +0.029 A 
ENDBRANCH   6   5
ENDBRANCH   7   6
TORSDOF 5
ENDMDL
MODEL 4
REMARK VINA RESULT:     -11.8      2.206      5.072
REMARK  Name = 
REMARK  5 active torsions:
REMARK  status: ('A' for Active; 'I' for Inactive)
REMARK    1  A    between atoms: C_5  and  C_6
REMARK    2  A    between atoms: C_6  and  N_7
REMARK    3  A    between atoms: N_11  and  S_17
REMARK    4  A    between atoms: S_17  and  C_20
REMARK    5  A    between atoms: C_20  and  C_21
REMARK                            x       y       z     vdW  Elec       q    Type
REMARK                         _______ _______ _______ _____ _____    ______ ____
ROOT
ATOM      7  N   UNL     1      -1.266  -0.842  24.997  0.00  0.00    -0.258 N 
ATOM      8  C   UNL     1      -1.757  -0.205  25.183  0.00  0.00    +0.117 C 
ATOM      9  C   UNL     1      -1.386   0.486  24.929  0.00  0.00    +0.114 C 
ATOM     10  C   UNL     1      -1.610   1.279  24.965  0.00  0.00    +0.117 C 
ATOM     11  N   UNL     1      -1.115   1.862  24.659  0.00  0.00    -0.156 NA
ATOM     12  C   UNL     1      -0.394   1.653  24.317  0.00  0.00    +0.117 C 
ATOM     13  C   UNL     1      -0.168   0.861  24.280  0.00  0.00    +0.114 C 
ATOM     14  N   UNL     1      -0.665   0.277  24.587  0.00  0.00    -0.261 N 
ATOM     15  C   UNL     1      -0.591  -0.544  24.629  0.00  0.00    +0.308 C 
ATOM     16  O   UNL     1       0.046  -0.988  24.351  0.00  0.00    -0.252 OA
ENDROOT
BRANCH  11  17
ATOM     17  S   UNL     1      -1.339   2.656  24.696  0.00  0.00    +0.048 S 
ATOM     18  O   UNL     1      -0.961   2.730  25.425  0.00  0.00    -0.157 OA
ATOM     19  O   UNL     1      -1.717   2.581  23.965  0.00  0.00    -0.157 OA
BRANCH  17  20
ATOM     20  C   UNL     1      -1.564   3.449  24.730  0.00  0.00    +0.195 C 
BRANCH  20  21
ATOM     21  C   UNL     1      -2.270   3.661  25.102  0.00  0.00    +0.003 A 
ATOM     22  C   UNL     1      -2.263   3.915  25.886  0.00  0.00    -0.003 A 
ATOM     23  C   UNL     1      -2.969   4.128  26.257  0.00  0.00    -0.000 A 
ATOM     24  C   UNL     1      -3.682   4.085  25.843  0.00  0.00    -0.000 A 
ATOM     25  C   UNL     1      -3.688   3.830  25.059  0.00  0.00    -0.000 A 
ATOM     26  C   UNL     1      -2.983   3.618  24.688  0.00  0.00    -0.003 A 
ENDBRANCH  20  21
ENDBRANCH  17  20
ENDBRANCH  11  17
BRANCH   7   6
ATOM      6  C   UNL     1      -1.422  -1.637  25.153  0.00  0.00    +0.122 C 
BRANCH   6   5
ATOM      1  F   UNL     1      -4.329  -2.946  24.301  0.00  0.00    -0.204 F 
ATOM      2  C   UNL     1      -3.603  -2.618  24.514  0.00  0.00    +0.140 A 
ATOM      3  C   UNL     1      -3.531  -2.197  25.220  0.00  0.00    +0.029 A 
ATOM      4  C   UNL     1      -2.804  -1.870  25.433  0.00  0.00    -0.000 A 
ATOM      5  C   UNL     1      -2.149  -1.964  24.940  0.00  0.00    -0.002 A 
ATOM     27  C   UNL     1      -2.221  -2.385  24.234  0.00  0.00    -0.000 A 
ATOM     28  C   UNL     1      -2.948  -2.712  24.022  0.00  0.00    +0.029 A 
ENDBRANCH   6   5
ENDBRANCH   7   6
TORSDOF 5
ENDMDL
