MODEL 1
REMARK VINA RESULT:      -8.0      0.000      0.000
REMARK  Name = 
REMARK  2 active torsions:
REMARK  status: ('A' for Active; 'I' for Inactive)
REMARK    1  A    between atoms: C_3  and  C_4
REMARK    2  A    between atoms: C_4  and  N_5
REMARK                            x       y       z     vdW  Elec       q    Type
REMARK                         _______ _______ _______ _____ _____    ______ ____
ROOT
ATOM      4  C   UNL     1      -3.044  -1.170  25.377  0.00  0.00    +0.103 C 
ENDROOT
BRANCH   4   5
ATOM      5  N   UNL     1      -2.270  -0.953  25.190  0.00  0.00    -0.264 NA
ATOM      6  C   UNL     1      -1.811  -1.538  24.832  0.00  0.00    +0.105 C 
ATOM      7  C   UNL     1      -1.026  -1.494  24.582  0.00  0.00    +0.160 C 
ATOM      8  O   UNL     1      -0.506  -0.855  24.628  0.00  0.00    -0.350 OA
ATOM      9  C   UNL     1      -0.643  -0.102  24.935  0.00  0.00    +0.176 C 
ATOM     10  C   UNL     1      -1.334   0.199  25.273  0.00  0.00    +0.197 C 
ATOM     11  O   UNL     1      -1.294   0.981  25.532  0.00  0.00    -0.219 OA
ATOM     12  C   UNL     1      -2.058  -0.180  25.387  0.00  0.00    +0.108 C 
ENDBRANCH   4   5
BRANCH   4   3
ATOM      1  C   UNL     1      -4.076  -0.059  24.417  0.00  0.00    +0.075 C 
ATOM      2  C   UNL     1      -4.041  -0.879  24.337  0.00  0.00    +0.152 A 
ATOM      3  C   UNL     1      -3.567  -1.390  24.777  0.00  0.00    +0.043 A 
ATOM     13  C   UNL     1      -3.707  -2.160  24.514  0.00  0.00    +0.098 A 
ATOM     14  C   UNL     1      -3.348  -2.844  24.804  0.00  0.00    +0.055 C 
ATOM     15  N   UNL     1      -4.268  -2.125  23.910  0.00  0.00    -0.082 NA
ATOM     16  O   UNL     1      -4.474  -1.333  23.800  0.00  0.00    -0.358 OA
ENDBRANCH   4   3
TORSDOF 2
ENDMDL
MODEL 2
REMARK VINA RESULT:      -7.6      3.010      3.976
REMARK  Name = 
REMARK  2 active torsions:
REMARK  status: ('A' for Active; 'I' for Inactive)
REMARK    1  A    between atoms: C_3  and  C_4
REMARK    2  A    between atoms: C_4  and  N_5
REMARK                            x       y       z     vdW  Elec       q    Type
REMARK                         _______ _______ _______ _____ _____    ______ ____
ROOT
ATOM      4  C   UNL     1      -4.513   2.459  24.254  0.00  0.00    +0.103 C 
ENDROOT
BRANCH   4   5
ATOM      5  N   UNL     1      -3.934   1.873  24.229  0.00  0.00    -0.264 NA
ATOM      6  C   UNL     1      -4.106   1.182  24.646  0.00  0.00    +0.105 C 
ATOM      7  C   UNL     1      -3.645   0.502  24.727  0.00  0.00    +0.160 C 
ATOM      8  O   UNL     1      -2.898   0.346  24.412  0.00  0.00    -0.350 OA
ATOM      9  C   UNL     1      -2.428   0.831  23.938  0.00  0.00    +0.176 C 
ATOM     10  C   UNL     1      -2.588   1.592  23.661  0.00  0.00    +0.197 C 
ATOM     11  O   UNL     1      -2.001   1.934  23.194  0.00  0.00    -0.219 OA
ATOM     12  C   UNL     1      -3.259   2.056  23.791  0.00  0.00    +0.108 C 
ENDBRANCH   4   5
BRANCH   4   3
ATOM      1  C   UNL     1      -3.751   3.720  25.280  0.00  0.00    +0.075 C 
ATOM      2  C   UNL     1      -4.446   3.309  25.452  0.00  0.00    +0.152 A 
ATOM      3  C   UNL     1      -4.796   2.730  24.981  0.00  0.00    +0.043 A 
ATOM     13  C   UNL     1      -5.478   2.468  25.364  0.00  0.00    +0.098 A 
ATOM     14  C   UNL     1      -5.998   1.890  25.087  0.00  0.00    +0.055 C 
ATOM     15  N   UNL     1      -5.550   2.885  26.072  0.00  0.00    -0.082 NA
ATOM     16  O   UNL     1      -4.912   3.406  26.127  0.00  0.00    -0.358 OA
ENDBRANCH   4   3
TORSDOF 2
ENDMDL
MODEL 3
REMARK VINA RESULT:      -7.5      3.240      4.140
REMARK  Name = 
REMARK  2 active torsions:
REMARK  status: ('A' for Active; 'I' for Inactive)
REMARK    1  A    between atoms: C_3  and  C_4
REMARK    2  A    between atoms: C_4  and  N_5
REMARK                            x       y       z     vdW  Elec       q    Type
REMARK                         _______ _______ _______ _____ _____    ______ ____
ROOT
ATOM      4  C   UNL     1      -4.103   2.909  24.462  0.00  0.00    +0.103 C 
ENDROOT
BRANCH   4   5
ATOM      5  N   UNL     1      -3.414   3.195  24.816  0.00  0.00    -0.264 NA
ATOM      6  C   UNL     1      -3.522   3.627  25.510  0.00  0.00    +0.105 C 
ATOM      7  C   UNL     1      -2.951   3.982  25.988  0.00  0.00    +0.160 C 
ATOM      8  O   UNL     1      -2.131   3.993  25.890  0.00  0.00    -0.350 OA
ATOM      9  C   UNL     1      -1.681   3.650  25.290  0.00  0.00    +0.176 C 
ATOM     10  C   UNL     1      -1.938   3.213  24.639  0.00  0.00    +0.197 C 
ATOM     11  O   UNL     1      -1.345   2.943  24.133  0.00  0.00    -0.219 OA
ATOM     12  C   UNL     1      -2.710   3.010  24.428  0.00  0.00    +0.108 C 
ENDBRANCH   4   5
BRANCH   4   3
ATOM      1  C   UNL     1      -5.485   3.253  25.553  0.00  0.00    +0.075 C 
ATOM      2  C   UNL     1      -5.199   2.505  25.354  0.00  0.00    +0.152 A 
ATOM      3  C   UNL     1      -4.564   2.347  24.852  0.00  0.00    +0.043 A 
ATOM     13  C   UNL     1      -4.471   1.528  24.809  0.00  0.00    +0.098 A 
ATOM     14  C   UNL     1      -3.900   1.128  24.369  0.00  0.00    +0.055 C 
ATOM     15  N   UNL     1      -5.048   1.180  25.284  0.00  0.00    -0.082 NA
ATOM     16  O   UNL     1      -5.499   1.784  25.621  0.00  0.00    -0.358 OA
ENDBRANCH   4   3
TORSDOF 2
ENDMDL
MODEL 4
REMARK VINA RESULT:      -7.4      3.511      5.112
REMARK  Name = 
REMARK  2 active torsions:
REMARK  status: ('A' for Active; 'I' for Inactive)
REMARK    1  A    between atoms: C_3  and  C_4
REMARK    2  A    between atoms: C_4  and  N_5
REMARK                            x       y       z     vdW  Elec       q    Type
REMARK                         _______ _______ _______ _____ _____    ______ ____
ROOT
ATOM      4  C   UNL     1      -3.365   3.428  24.570  0.00  0.00    +0.103 C 
ENDROOT
BRANCH   4   5
ATOM      5  N   UNL     1      -4.012   2.972  24.802  0.00  0.00    -0.264 NA
ATOM      6  C   UNL     1      -3.965   2.168  24.625  0.00  0.00    +0.105 C 
ATOM      7  C   UNL     1      -4.515   1.573  24.783  0.00  0.00    +0.160 C 
ATOM      8  O   UNL     1      -5.247   1.637  25.157  0.00  0.00    -0.350 OA
ATOM      9  C   UNL     1      -5.611   2.310  25.466  0.00  0.00    +0.176 C 
ATOM     10  C   UNL     1      -5.332   3.087  25.476  0.00  0.00    +0.197 C 
ATOM     11  O   UNL     1      -5.831   3.641  25.829  0.00  0.00    -0.219 OA
ATOM     12  C   UNL     1      -4.620   3.381  25.181  0.00  0.00    +0.108 C 
ENDBRANCH   4   5
BRANCH   4   3
ATOM      1  C   UNL     1      -2.092   2.361  23.891  0.00  0.00    +0.075 C 
ATOM      2  C   UNL     1      -2.037   2.798  24.588  0.00  0.00    +0.152 A 
ATOM      3  C   UNL     1      -2.621   3.288  24.901  0.00  0.00    +0.043 A 
ATOM     13  C   UNL     1      -2.333   3.615  25.601  0.00  0.00    +0.098 A 
ATOM     14  C   UNL     1      -2.737   4.139  26.094  0.00  0.00    +0.055 C 
ATOM     15  N   UNL     1      -1.570   3.327  25.722  0.00  0.00    -0.082 NA
ATOM     16  O   UNL     1      -1.386   2.821  25.096  0.00  0.00    -0.358 OA
ENDBRANCH   4   3
TORSDOF 2
ENDMDL
MODEL 5
REMARK VINA RESULT:      -7.4      2.146      3.449
REMARK  Name = 
REMARK  2 active torsions:
REMARK  status: ('A' for Active; 'I' for Inactive)
REMARK    1  A    between atoms: C_3  and  C_4
REMARK    2  A    between atoms: C_4  and  N_5
REMARK                            x       y       z     vdW  Elec       q    Type
REMARK                         _______ _______ _______ _____ _____    ______ ____
ROOT
ATOM      4  C   UNL     1      -3.533   0.659  23.999  0.00  0.00    +0.103 C 
ENDROOT
BRANCH   4   5
ATOM      5  N   UNL     1      -4.003   1.254  24.324  0.00  0.00    -0.264 NA
ATOM      6  C   UNL     1      -4.624   0.999  24.803  0.00  0.00    +0.105 C 
ATOM      7  C   UNL     1      -5.185   1.453  25.203  0.00  0.00    +0.160 C 
ATOM      8  O   UNL     1      -5.263   2.274  25.223  0.00  0.00    -0.350 OA
ATOM      9  C   UNL     1      -4.799   2.844  24.848  0.00  0.00    +0.176 C 
ATOM     10  C   UNL     1      -4.142   2.734  24.360  0.00  0.00    +0.197 C 
ATOM     11  O   UNL     1      -3.795   3.423  24.067  0.00  0.00    -0.219 OA
ATOM     12  C   UNL     1      -3.788   2.026  24.127  0.00  0.00    +0.108 C 
ENDBRANCH   4   5
BRANCH   4   3
ATOM      1  C   UNL     1      -4.214  -0.974  24.305  0.00  0.00    +0.075 C 
ATOM      2  C   UNL     1      -3.518  -0.670  24.628  0.00  0.00    +0.152 A 
ATOM      3  C   UNL     1      -3.205   0.080  24.487  0.00  0.00    +0.043 A 
ATOM     13  C   UNL     1      -2.506   0.150  24.921  0.00  0.00    +0.098 A 
ATOM     14  C   UNL     1      -2.013   0.811  24.941  0.00  0.00    +0.055 C 
ATOM     15  N   UNL     1      -2.387  -0.557  25.329  0.00  0.00    -0.082 NA
ATOM     16  O   UNL     1      -3.012  -1.064  25.148  0.00  0.00    -0.358 OA
ENDBRANCH   4   3
TORSDOF 2
ENDMDL
MODEL 6
REMARK VINA RESULT:      -7.3      2.874      4.066
REMARK  Name = 
REMARK  2 active torsions:
REMARK  status: ('A' for Active; 'I' for Inactive)
REMARK    1  A    between atoms: C_3  and  C_4
REMARK    2  A    between atoms: C_4  and  N_5
REMARK                            x       y       z     vdW  Elec       q    Type
REMARK                         _______ _______ _______ _____ _____    ______ ____
ROOT
ATOM      4  C   UNL     1      -3.951   1.764  23.874  0.00  0.00    +0.103 C 
ENDROOT
BRANCH   4   5
ATOM      5  N   UNL     1      -4.088   2.354  24.433  0.00  0.00    -0.264 NA
ATOM      6  C   UNL     1      -3.487   2.913  24.517  0.00  0.00    +0.105 C 
ATOM      7  C   UNL     1      -3.457   3.564  25.024  0.00  0.00    +0.160 C 
ATOM      8  O   UNL     1      -4.020   3.816  25.572  0.00  0.00    -0.350 OA
ATOM      9  C   UNL     1      -4.753   3.479  25.748  0.00  0.00    +0.176 C 
ATOM     10  C   UNL     1      -5.103   2.808  25.420  0.00  0.00    +0.197 C 
ATOM     11  O   UNL     1      -5.848   2.612  25.717  0.00  0.00    -0.219 OA
ATOM     12  C   UNL     1      -4.807   2.307  24.835  0.00  0.00    +0.108 C 
ENDBRANCH   4   5
BRANCH   4   3
ATOM      1  C   UNL     1      -2.314   1.969  23.166  0.00  0.00    +0.075 C 
ATOM      2  C   UNL     1      -2.563   1.341  23.641  0.00  0.00    +0.152 A 
ATOM      3  C   UNL     1      -3.315   1.247  23.966  0.00  0.00    +0.043 A 
ATOM     13  C   UNL     1      -3.319   0.544  24.400  0.00  0.00    +0.098 A 
ATOM     14  C   UNL     1      -3.960   0.237  24.817  0.00  0.00    +0.055 C 
ATOM     15  N   UNL     1      -2.569   0.205  24.343  0.00  0.00    -0.082 NA
ATOM     16  O   UNL     1      -2.101   0.697  23.873  0.00  0.00    -0.358 OA
ENDBRANCH   4   3
TORSDOF 2
ENDMDL
