MODEL 1
REMARK VINA RESULT:     -11.0      0.000      0.000
REMARK  Name = 
REMARK  8 active torsions:
REMARK  status: ('A' for Active; 'I' for Inactive)
REMARK    1  A    between atoms: C_2  and  C_3
REMARK    2  A    between atoms: C_3  and  C_4
REMARK    3  A    between atoms: C_3  and  C_6
REMARK    4  A    between atoms: C_11  and  C_12
REMARK    5  A    between atoms: C_12  and  C_13
REMARK    6  A    between atoms: C_16  and  C_17
REMARK    7  A    between atoms: C_17  and  C_18
REMARK    8  A    between atoms: C_26  and  O_27
REMARK                            x       y       z     vdW  Elec       q    Type
REMARK                         _______ _______ _______ _____ _____    ______ ____
ROOT
ATOM      6  C   UNL     1      -3.292  -0.769  24.729  0.00  0.00    +0.225 C 
ATOM      7  O   UNL     1      -2.473  -0.696  24.665  0.00  0.00    -0.275 OA
ATOM      8  N   UNL     1      -3.762  -0.093  24.802  0.00  0.00    -0.280 N 
ATOM      9  C   UNL     1      -4.580  -0.165  24.866  0.00  0.00    +0.093 C 
ATOM     10  C   UNL     1      -5.050   0.509  24.939  0.00  0.00    +0.022 C 
ATOM     11  C   UNL     1      -4.699   1.255  24.947  0.00  0.00    +0.015 C 
ATOM     16  C   UNL     1      -3.881   1.327  24.883  0.00  0.00    +0.026 C 
ATOM     30  C   UNL     1      -3.411   0.653  24.810  0.00  0.00    +0.094 C 
ENDROOT
BRANCH   6   3
ATOM      3  C   UNL     1      -3.643  -1.515  24.721  0.00  0.00    +0.077 C 
BRANCH   3   2
ATOM      1  C   UNL     1      -3.993  -2.617  23.882  0.00  0.00    +0.001 C 
ATOM      2  C   UNL     1      -3.979  -1.805  24.025  0.00  0.00    +0.009 C 
ENDBRANCH   3   2
BRANCH   3   4
ATOM      4  C   UNL     1      -3.659  -1.971  25.407  0.00  0.00    +0.009 C 
ATOM      5  C   UNL     1      -3.284  -2.706  25.424  0.00  0.00    +0.001 C 
ENDBRANCH   3   4
ENDBRANCH   6   3
BRANCH  11  12
ATOM     12  C   UNL     1      -5.168   1.931  25.020  0.00  0.00    +0.114 C 
BRANCH  12  13
ATOM     13  C   UNL     1      -5.948   1.865  25.282  0.00  0.00    +0.365 C 
ATOM     14  O   UNL     1      -6.558   1.760  24.737  0.00  0.00    -0.246 OA
ATOM     15  O   UNL     1      -6.116   1.905  26.089  0.00  0.00    -0.246 OA
ENDBRANCH  12  13
ENDBRANCH  11  12
BRANCH  16  17
ATOM     17  C   UNL     1      -3.530   2.075  24.891  0.00  0.00    +0.047 C 
BRANCH  17  18
ATOM     18  C   UNL     1      -2.946   2.263  24.339  0.00  0.00    +0.053 C 
ATOM     19  N   UNL     1      -2.968   1.927  23.586  0.00  0.00    -0.274 NA
ATOM     20  C   UNL     1      -2.384   2.116  23.033  0.00  0.00    +0.130 C 
ATOM     21  C   UNL     1      -1.780   2.640  23.235  0.00  0.00    +0.053 C 
ATOM     22  C   UNL     1      -1.758   2.976  23.988  0.00  0.00    -0.016 A 
ATOM     23  C   UNL     1      -2.342   2.787  24.541  0.00  0.00    +0.009 A 
ATOM     24  C   UNL     1      -2.320   3.123  25.294  0.00  0.00    +0.004 A 
ATOM     25  C   UNL     1      -1.716   3.646  25.495  0.00  0.00    +0.037 A 
ATOM     26  C   UNL     1      -1.132   3.835  24.942  0.00  0.00    +0.138 A 
ATOM     29  C   UNL     1      -1.154   3.499  24.190  0.00  0.00    +0.033 A 
BRANCH  26  27
ATOM     27  O   UNL     1      -0.528   4.359  25.144  0.00  0.00    -0.471 OA
ATOM     28  C   UNL     1      -0.593   5.158  24.953  0.00  0.00    +0.252 C 
ENDBRANCH  26  27
ENDBRANCH  17  18
ENDBRANCH  16  17
TORSDOF 8
ENDMDL
MODEL 2
REMARK VINA RESULT:     -10.3      1.167      4.657
REMARK  Name = 
REMARK  8 active torsions:
REMARK  status: ('A' for Active; 'I' for Inactive)
REMARK    1  A    between atoms: C_2  and  C_3
REMARK    2  A    between atoms: C_3  and  C_4
REMARK    3  A    between atoms: C_3  and  C_6
REMARK    4  A    between atoms: C_11  and  C_12
REMARK    5  A    between atoms: C_12  and  C_13
REMARK    6  A    between atoms: C_16  and  C_17
REMARK    7  A    between atoms: C_17  and  C_18
REMARK    8  A    between atoms: C_26  and  O_27
REMARK                            x       y       z     vdW  Elec       q    Type
REMARK                         _______ _______ _______ _____ _____    ______ ____
ROOT
ATOM      6  C   UNL     1      -1.591   2.184  24.889  0.00  0.00    +0.225 C 
ATOM      7  O   UNL     1      -1.146   1.530  24.656  0.00  0.00    -0.275 OA
ATOM      8  N   UNL     1      -2.412   2.122  24.954  0.00  0.00    -0.280 N 
ATOM      9  C   UNL     1      -2.858   2.775  25.186  0.00  0.00    +0.093 C 
ATOM     10  C   UNL     1      -3.678   2.714  25.251  0.00  0.00    +0.022 C 
ATOM     11  C   UNL     1      -4.051   1.998  25.083  0.00  0.00    +0.015 C 
ATOM     16  C   UNL     1      -3.606   1.345  24.851  0.00  0.00    +0.026 C 
ATOM     30  C   UNL     1      -2.786   1.406  24.786  0.00  0.00    +0.094 C 
ENDROOT
BRANCH   6   3
ATOM      3  C   UNL     1      -1.218   2.900  25.057  0.00  0.00    +0.077 C 
BRANCH   3   2
ATOM      1  C   UNL     1      -0.682   4.147  24.610  0.00  0.00    +0.001 C 
ATOM      2  C   UNL     1      -1.117   3.462  24.461  0.00  0.00    +0.009 C 
ENDBRANCH   3   2
BRANCH   3   4
ATOM      4  C   UNL     1      -0.946   3.054  25.819  0.00  0.00    +0.009 C 
ATOM      5  C   UNL     1      -0.167   2.874  26.024  0.00  0.00    +0.001 C 
ENDBRANCH   3   4
ENDBRANCH   6   3
BRANCH  11  12
ATOM     12  C   UNL     1      -4.872   1.936  25.148  0.00  0.00    +0.114 C 
BRANCH  12  13
ATOM     13  C   UNL     1      -5.317   2.588  25.389  0.00  0.00    +0.365 C 
ATOM     14  O   UNL     1      -5.536   2.667  26.180  0.00  0.00    -0.246 OA
ATOM     15  O   UNL     1      -5.543   3.159  24.838  0.00  0.00    -0.246 OA
ENDBRANCH  12  13
ENDBRANCH  11  12
BRANCH  16  17
ATOM     17  C   UNL     1      -3.980   0.628  24.683  0.00  0.00    +0.047 C 
BRANCH  17  18
ATOM     18  C   UNL     1      -3.748  -0.060  25.073  0.00  0.00    +0.053 C 
ATOM     19  N   UNL     1      -3.435  -0.016  25.835  0.00  0.00    -0.274 NA
ATOM     20  C   UNL     1      -3.202  -0.706  26.226  0.00  0.00    +0.130 C 
ATOM     21  C   UNL     1      -3.283  -1.437  25.854  0.00  0.00    +0.053 C 
ATOM     22  C   UNL     1      -3.596  -1.482  25.091  0.00  0.00    -0.016 A 
ATOM     23  C   UNL     1      -3.829  -0.792  24.701  0.00  0.00    +0.009 A 
ATOM     24  C   UNL     1      -4.141  -0.836  23.939  0.00  0.00    +0.004 A 
ATOM     25  C   UNL     1      -4.222  -1.567  23.567  0.00  0.00    +0.037 A 
ATOM     26  C   UNL     1      -3.989  -2.257  23.958  0.00  0.00    +0.138 A 
ATOM     29  C   UNL     1      -3.677  -2.213  24.720  0.00  0.00    +0.033 A 
BRANCH  26  27
ATOM     27  O   UNL     1      -4.070  -2.989  23.586  0.00  0.00    -0.471 OA
ATOM     28  C   UNL     1      -3.792  -3.672  23.954  0.00  0.00    +0.252 C 
ENDBRANCH  26  27
ENDBRANCH  17  18
ENDBRANCH  16  17
TORSDOF 8
ENDMDL
MODEL 3
REMARK VINA RESULT:     -10.0      1.775      3.035
REMARK  Name = 
REMARK  8 active torsions:
REMARK  status: ('A' for Active; 'I' for Inactive)
REMARK    1  A    between atoms: C_2  and  C_3
REMARK    2  A    between atoms: C_3  and  C_4
REMARK    3  A    between atoms: C_3  and  C_6
REMARK    4  A    between atoms: C_11  and  C_12
REMARK    5  A    between atoms: C_12  and  C_13
REMARK    6  A    between atoms: C_16  and  C_17
REMARK    7  A    between atoms: C_17  and  C_18
REMARK    8  A    between atoms: C_26  and  O_27
REMARK                            x       y       z     vdW  Elec       q    Type
REMARK                         _______ _______ _______ _____ _____    ______ ____
ROOT
ATOM      6  C   UNL     1      -3.567  -0.862  24.734  0.00  0.00    +0.225 C 
ATOM      7  O   UNL     1      -4.290  -0.506  24.910  0.00  0.00    -0.275 OA
ATOM      8  N   UNL     1      -2.895  -0.397  24.615  0.00  0.00    -0.280 N 
ATOM      9  C   UNL     1      -2.173  -0.753  24.439  0.00  0.00    +0.093 C 
ATOM     10  C   UNL     1      -1.502  -0.288  24.320  0.00  0.00    +0.022 C 
ATOM     11  C   UNL     1      -1.555   0.533  24.377  0.00  0.00    +0.015 C 
ATOM     16  C   UNL     1      -2.277   0.889  24.553  0.00  0.00    +0.026 C 
ATOM     30  C   UNL     1      -2.948   0.424  24.672  0.00  0.00    +0.094 C 
ENDROOT
BRANCH   6   3
ATOM      3  C   UNL     1      -3.514  -1.683  24.677  0.00  0.00    +0.077 C 
BRANCH   3   2
ATOM      1  C   UNL     1      -4.352  -2.444  23.805  0.00  0.00    +0.001 C 
ATOM      2  C   UNL     1      -3.640  -2.055  23.951  0.00  0.00    +0.009 C 
ENDBRANCH   3   2
BRANCH   3   4
ATOM      4  C   UNL     1      -3.337  -2.133  25.345  0.00  0.00    +0.009 C 
ATOM      5  C   UNL     1      -3.359  -2.956  25.306  0.00  0.00    +0.001 C 
ENDBRANCH   3   4
ENDBRANCH   6   3
BRANCH  11  12
ATOM     12  C   UNL     1      -0.883   0.998  24.258  0.00  0.00    +0.114 C 
BRANCH  12  13
ATOM     13  C   UNL     1      -0.146   0.641  24.158  0.00  0.00    +0.365 C 
ATOM     14  O   UNL     1       0.120   0.451  23.401  0.00  0.00    -0.246 OA
ATOM     15  O   UNL     1       0.323   0.475  24.816  0.00  0.00    -0.246 OA
ENDBRANCH  12  13
ENDBRANCH  11  12
BRANCH  16  17
ATOM     17  C   UNL     1      -2.329   1.711  24.610  0.00  0.00    +0.047 C 
BRANCH  17  18
ATOM     18  C   UNL     1      -2.853   2.126  24.125  0.00  0.00    +0.053 C 
ATOM     19  N   UNL     1      -2.854   1.993  23.311  0.00  0.00    -0.274 NA
ATOM     20  C   UNL     1      -3.378   2.408  22.826  0.00  0.00    +0.130 C 
ATOM     21  C   UNL     1      -3.899   2.955  23.157  0.00  0.00    +0.053 C 
ATOM     22  C   UNL     1      -3.898   3.089  23.971  0.00  0.00    -0.016 A 
ATOM     23  C   UNL     1      -3.374   2.673  24.456  0.00  0.00    +0.009 A 
ATOM     24  C   UNL     1      -3.373   2.806  25.270  0.00  0.00    +0.004 A 
ATOM     25  C   UNL     1      -3.894   3.353  25.599  0.00  0.00    +0.037 A 
ATOM     26  C   UNL     1      -4.418   3.768  25.114  0.00  0.00    +0.138 A 
ATOM     29  C   UNL     1      -4.419   3.635  24.301  0.00  0.00    +0.033 A 
BRANCH  26  27
ATOM     27  O   UNL     1      -4.939   4.316  25.445  0.00  0.00    -0.471 OA
ATOM     28  C   UNL     1      -5.683   4.073  25.704  0.00  0.00    +0.252 C 
ENDBRANCH  26  27
ENDBRANCH  17  18
ENDBRANCH  16  17
TORSDOF 8
ENDMDL
MODEL 4
REMARK VINA RESULT:      -9.8      1.914      3.413
REMARK  Name = 
REMARK  8 active torsions:
REMARK  status: ('A' for Active; 'I' for Inactive)
REMARK    1  A    between atoms: C_2  and  C_3
REMARK    2  A    between atoms: C_3  and  C_4
REMARK    3  A    between atoms: C_3  and  C_6
REMARK    4  A    between atoms: C_11  and  C_12
REMARK    5  A    between atoms: C_12  and  C_13
REMARK    6  A    between atoms: C_16  and  C_17
REMARK    7  A    between atoms: C_17  and  C_18
REMARK    8  A    between atoms: C_26  and  O_27
REMARK                            x       y       z     vdW  Elec       q    Type
REMARK                         _______ _______ _______ _____ _____    ______ ____
ROOT
ATOM      6  C   UNL     1      -1.238  -0.468  24.931  0.00  0.00    +0.225 C 
ATOM      7  O   UNL     1      -1.121   0.305  25.195  0.00  0.00    -0.275 OA
ATOM      8  N   UNL     1      -1.995  -0.723  24.723  0.00  0.00    -0.280 N 
ATOM      9  C   UNL     1      -2.112  -1.495  24.458  0.00  0.00    +0.093 C 
ATOM     10  C   UNL     1      -2.868  -1.750  24.250  0.00  0.00    +0.022 C 
ATOM     11  C   UNL     1      -3.507  -1.232  24.308  0.00  0.00    +0.015 C 
ATOM     16  C   UNL     1      -3.391  -0.461  24.572  0.00  0.00    +0.026 C 
ATOM     30  C   UNL     1      -2.635  -0.205  24.780  0.00  0.00    +0.094 C 
ENDROOT
BRANCH   6   3
ATOM      3  C   UNL     1      -0.599  -0.986  24.874  0.00  0.00    +0.077 C 
BRANCH   3   2
ATOM      1  C   UNL     1       0.480  -0.543  24.047  0.00  0.00    +0.001 C 
ATOM      2  C   UNL     1      -0.170  -1.036  24.169  0.00  0.00    +0.009 C 
ENDBRANCH   3   2
BRANCH   3   4
ATOM      4  C   UNL     1      -0.387  -1.453  25.519  0.00  0.00    +0.009 C 
ATOM      5  C   UNL     1       0.142  -2.078  25.420  0.00  0.00    +0.001 C 
ENDBRANCH   3   4
ENDBRANCH   6   3
BRANCH  11  12
ATOM     12  C   UNL     1      -4.264  -1.488  24.100  0.00  0.00    +0.114 C 
BRANCH  12  13
ATOM     13  C   UNL     1      -4.384  -2.266  23.853  0.00  0.00    +0.365 C 
ATOM     14  O   UNL     1      -4.347  -2.882  24.401  0.00  0.00    -0.246 OA
ATOM     15  O   UNL     1      -4.541  -2.428  23.059  0.00  0.00    -0.246 OA
ENDBRANCH  12  13
ENDBRANCH  11  12
BRANCH  16  17
ATOM     17  C   UNL     1      -4.031   0.057  24.629  0.00  0.00    +0.047 C 
BRANCH  17  18
ATOM     18  C   UNL     1      -3.981   0.813  24.302  0.00  0.00    +0.053 C 
ATOM     19  N   UNL     1      -3.477   0.953  23.663  0.00  0.00    -0.274 NA
ATOM     20  C   UNL     1      -3.427   1.710  23.336  0.00  0.00    +0.130 C 
ATOM     21  C   UNL     1      -3.880   2.325  23.648  0.00  0.00    +0.053 C 
ATOM     22  C   UNL     1      -4.383   2.185  24.287  0.00  0.00    -0.016 A 
ATOM     23  C   UNL     1      -4.434   1.428  24.614  0.00  0.00    +0.009 A 
ATOM     24  C   UNL     1      -4.936   1.288  25.252  0.00  0.00    +0.004 A 
ATOM     25  C   UNL     1      -5.389   1.903  25.564  0.00  0.00    +0.037 A 
ATOM     26  C   UNL     1      -5.338   2.659  25.236  0.00  0.00    +0.138 A 
ATOM     29  C   UNL     1      -4.836   2.800  24.598  0.00  0.00    +0.033 A 
BRANCH  26  27
ATOM     27  O   UNL     1      -5.791   3.274  25.549  0.00  0.00    -0.471 OA
ATOM     28  C   UNL     1      -5.439   3.999  25.724  0.00  0.00    +0.252 C 
ENDBRANCH  26  27
ENDBRANCH  17  18
ENDBRANCH  16  17
TORSDOF 8
ENDMDL
MODEL 5
REMARK VINA RESULT:      -9.8      1.992      3.489
REMARK  Name = 
REMARK  8 active torsions:
REMARK  status: ('A' for Active; 'I' for Inactive)
REMARK    1  A    between atoms: C_2  and  C_3
REMARK    2  A    between atoms: C_3  and  C_4
REMARK    3  A    between atoms: C_3  and  C_6
REMARK    4  A    between atoms: C_11  and  C_12
REMARK    5  A    between atoms: C_12  and  C_13
REMARK    6  A    between atoms: C_16  and  C_17
REMARK    7  A    between atoms: C_17  and  C_18
REMARK    8  A    between atoms: C_26  and  O_27
REMARK                            x       y       z     vdW  Elec       q    Type
REMARK                         _______ _______ _______ _____ _____    ______ ____
ROOT
ATOM      6  C   UNL     1      -2.792  -0.211  24.798  0.00  0.00    +0.225 C 
ATOM      7  O   UNL     1      -3.245   0.419  25.079  0.00  0.00    -0.275 OA
ATOM      8  N   UNL     1      -2.026  -0.078  24.522  0.00  0.00    -0.280 N 
ATOM      9  C   UNL     1      -1.574  -0.707  24.242  0.00  0.00    +0.093 C 
ATOM     10  C   UNL     1      -0.808  -0.575  23.965  0.00  0.00    +0.022 C 
ATOM     11  C   UNL     1      -0.495   0.188  23.969  0.00  0.00    +0.015 C 
ATOM     16  C   UNL     1      -0.947   0.818  24.249  0.00  0.00    +0.026 C 
ATOM     30  C   UNL     1      -1.713   0.685  24.526  0.00  0.00    +0.094 C 
ENDROOT
BRANCH   6   3
ATOM      3  C   UNL     1      -3.105  -0.974  24.794  0.00  0.00    +0.077 C 
BRANCH   3   2
ATOM      1  C   UNL     1      -3.398  -2.194  25.478  0.00  0.00    +0.001 C 
ATOM      2  C   UNL     1      -3.061  -1.441  25.474  0.00  0.00    +0.009 C 
ENDBRANCH   3   2
BRANCH   3   4
ATOM      4  C   UNL     1      -3.460  -1.271  24.112  0.00  0.00    +0.009 C 
ATOM      5  C   UNL     1      -4.278  -1.377  24.086  0.00  0.00    +0.001 C 
ENDBRANCH   3   4
ENDBRANCH   6   3
BRANCH  11  12
ATOM     12  C   UNL     1       0.271   0.321  23.693  0.00  0.00    +0.114 C 
BRANCH  12  13
ATOM     13  C   UNL     1       0.660  -0.262  23.258  0.00  0.00    +0.365 C 
ATOM     14  O   UNL     1       0.635  -0.247  22.433  0.00  0.00    -0.246 OA
ATOM     15  O   UNL     1       1.073  -0.860  23.649  0.00  0.00    -0.246 OA
ENDBRANCH  12  13
ENDBRANCH  11  12
BRANCH  16  17
ATOM     17  C   UNL     1      -0.634   1.582  24.253  0.00  0.00    +0.047 C 
BRANCH  17  18
ATOM     18  C   UNL     1      -0.570   1.998  24.963  0.00  0.00    +0.053 C 
ATOM     19  N   UNL     1      -0.372   1.599  25.658  0.00  0.00    -0.274 NA
ATOM     20  C   UNL     1      -0.308   2.016  26.368  0.00  0.00    +0.130 C 
ATOM     21  C   UNL     1      -0.442   2.830  26.382  0.00  0.00    +0.053 C 
ATOM     22  C   UNL     1      -0.639   3.228  25.687  0.00  0.00    -0.016 A 
ATOM     23  C   UNL     1      -0.704   2.812  24.976  0.00  0.00    +0.009 A 
ATOM     24  C   UNL     1      -0.901   3.210  24.282  0.00  0.00    +0.004 A 
ATOM     25  C   UNL     1      -1.035   4.023  24.296  0.00  0.00    +0.037 A 
ATOM     26  C   UNL     1      -0.970   4.440  25.006  0.00  0.00    +0.138 A 
ATOM     29  C   UNL     1      -0.773   4.042  25.701  0.00  0.00    +0.033 A 
BRANCH  26  27
ATOM     27  O   UNL     1      -1.104   5.254  25.020  0.00  0.00    -0.471 OA
ATOM     28  C   UNL     1      -1.869   5.545  25.113  0.00  0.00    +0.252 C 
ENDBRANCH  26  27
ENDBRANCH  17  18
ENDBRANCH  16  17
TORSDOF 8
ENDMDL
MODEL 6
REMARK VINA RESULT:      -9.7      2.120      3.663
REMARK  Name = 
REMARK  8 active torsions:
REMARK  status: ('A' for Active; 'I' for Inactive)
REMARK    1  A    between atoms: C_2  and  C_3
REMARK    2  A    between atoms: C_3  and  C_4
REMARK    3  A    between atoms: C_3  and  C_6
REMARK    4  A    between atoms: C_11  and  C_12
REMARK    5  A    between atoms: C_12  and  C_13
REMARK    6  A    between atoms: C_16  and  C_17
REMARK    7  A    between atoms: C_17  and  C_18
REMARK    8  A    between atoms: C_26  and  O_27
REMARK                            x       y       z     vdW  Elec       q    Type
REMARK                         _______ _______ _______ _____ _____    ______ ____
ROOT
ATOM      6  C   UNL     1      -4.303   1.815  24.774  0.00  0.00    +0.225 C 
ATOM      7  O   UNL     1      -3.876   2.426  24.421  0.00  0.00    -0.275 OA
ATOM      8  N   UNL     1      -3.956   1.072  24.873  0.00  0.00    -0.280 N 
ATOM      9  C   UNL     1      -4.383   0.462  25.225  0.00  0.00    +0.093 C 
ATOM     10  C   UNL     1      -4.037  -0.281  25.324  0.00  0.00    +0.022 C 
ATOM     11  C   UNL     1      -3.263  -0.411  25.071  0.00  0.00    +0.015 C 
ATOM     16  C   UNL     1      -2.836   0.200  24.719  0.00  0.00    +0.026 C 
ATOM     30  C   UNL     1      -3.182   0.942  24.620  0.00  0.00    +0.094 C 
ENDROOT
BRANCH   6   3
ATOM      3  C   UNL     1      -5.077   1.945  25.027  0.00  0.00    +0.077 C 
BRANCH   3   2
ATOM      1  C   UNL     1      -5.426   3.119  25.764  0.00  0.00    +0.001 C 
ATOM      2  C   UNL     1      -5.217   2.321  25.749  0.00  0.00    +0.009 C 
ENDBRANCH   3   2
BRANCH   3   4
ATOM      4  C   UNL     1      -5.711   1.700  24.561  0.00  0.00    +0.009 C 
ATOM      5  C   UNL     1      -6.482   1.905  24.771  0.00  0.00    +0.001 C 
ENDBRANCH   3   4
ENDBRANCH   6   3
BRANCH  11  12
ATOM     12  C   UNL     1      -2.916  -1.153  25.170  0.00  0.00    +0.114 C 
BRANCH  12  13
ATOM     13  C   UNL     1      -3.389  -1.813  25.320  0.00  0.00    +0.365 C 
ATOM     14  O   UNL     1      -3.705  -2.244  24.692  0.00  0.00    -0.246 OA
ATOM     15  O   UNL     1      -3.544  -2.040  26.098  0.00  0.00    -0.246 OA
ENDBRANCH  12  13
ENDBRANCH  11  12
BRANCH  16  17
ATOM     17  C   UNL     1      -2.061   0.069  24.466  0.00  0.00    +0.047 C 
BRANCH  17  18
ATOM     18  C   UNL     1      -1.453   0.561  24.727  0.00  0.00    +0.053 C 
ATOM     19  N   UNL     1      -1.558   1.022  25.404  0.00  0.00    -0.274 NA
ATOM     20  C   UNL     1      -0.949   1.515  25.666  0.00  0.00    +0.130 C 
ATOM     21  C   UNL     1      -0.236   1.545  25.251  0.00  0.00    +0.053 C 
ATOM     22  C   UNL     1      -0.131   1.084  24.575  0.00  0.00    -0.016 A 
ATOM     23  C   UNL     1      -0.740   0.592  24.312  0.00  0.00    +0.009 A 
ATOM     24  C   UNL     1      -0.636   0.131  23.637  0.00  0.00    +0.004 A 
ATOM     25  C   UNL     1       0.076   0.162  23.223  0.00  0.00    +0.037 A 
ATOM     26  C   UNL     1       0.685   0.655  23.485  0.00  0.00    +0.138 A 
ATOM     29  C   UNL     1       0.581   1.115  24.160  0.00  0.00    +0.033 A 
BRANCH  26  27
ATOM     27  O   UNL     1       1.398   0.685  23.070  0.00  0.00    -0.471 OA
ATOM     28  C   UNL     1       1.682   0.012  22.688  0.00  0.00    +0.252 C 
ENDBRANCH  26  27
ENDBRANCH  17  18
ENDBRANCH  16  17
TORSDOF 8
ENDMDL
MODEL 7
REMARK VINA RESULT:      -9.5      1.712      4.959
REMARK  Name = 
REMARK  8 active torsions:
REMARK  status: ('A' for Active; 'I' for Inactive)
REMARK    1  A    between atoms: C_2  and  C_3
REMARK    2  A    between atoms: C_3  and  C_4
REMARK    3  A    between atoms: C_3  and  C_6
REMARK    4  A    between atoms: C_11  and  C_12
REMARK    5  A    between atoms: C_12  and  C_13
REMARK    6  A    between atoms: C_16  and  C_17
REMARK    7  A    between atoms: C_17  and  C_18
REMARK    8  A    between atoms: C_26  and  O_27
REMARK                            x       y       z     vdW  Elec       q    Type
REMARK                         _______ _______ _______ _____ _____    ______ ____
ROOT
ATOM      6  C   UNL     1      -4.622   2.538  25.329  0.00  0.00    +0.225 C 
ATOM      7  O   UNL     1      -4.968   1.989  25.838  0.00  0.00    -0.275 OA
ATOM      8  N   UNL     1      -4.156   2.280  24.698  0.00  0.00    -0.280 N 
ATOM      9  C   UNL     1      -3.810   2.828  24.190  0.00  0.00    +0.093 C 
ATOM     10  C   UNL     1      -3.344   2.570  23.559  0.00  0.00    +0.022 C 
ATOM     11  C   UNL     1      -3.225   1.763  23.439  0.00  0.00    +0.015 C 
ATOM     16  C   UNL     1      -3.571   1.215  23.948  0.00  0.00    +0.026 C 
ATOM     30  C   UNL     1      -4.036   1.472  24.578  0.00  0.00    +0.094 C 
ENDROOT
BRANCH   6   3
ATOM      3  C   UNL     1      -4.741   3.345  25.449  0.00  0.00    +0.077 C 
BRANCH   3   2
ATOM      1  C   UNL     1      -4.117   4.061  26.517  0.00  0.00    +0.001 C 
ATOM      2  C   UNL     1      -4.124   3.816  25.729  0.00  0.00    +0.009 C 
ENDBRANCH   3   2
BRANCH   3   4
ATOM      4  C   UNL     1      -5.476   3.682  25.290  0.00  0.00    +0.009 C 
ATOM      5  C   UNL     1      -5.645   4.447  25.547  0.00  0.00    +0.001 C 
ENDBRANCH   3   4
ENDBRANCH   6   3
BRANCH  11  12
ATOM     12  C   UNL     1      -2.759   1.505  22.809  0.00  0.00    +0.114 C 
BRANCH  12  13
ATOM     13  C   UNL     1      -2.375   2.054  22.327  0.00  0.00    +0.365 C 
ATOM     14  O   UNL     1      -2.728   2.302  21.624  0.00  0.00    -0.246 OA
ATOM     15  O   UNL     1      -1.639   2.354  22.549  0.00  0.00    -0.246 OA
ENDBRANCH  12  13
ENDBRANCH  11  12
BRANCH  16  17
ATOM     17  C   UNL     1      -3.451   0.407  23.828  0.00  0.00    +0.047 C 
BRANCH  17  18
ATOM     18  C   UNL     1      -3.114  -0.054  24.424  0.00  0.00    +0.053 C 
ATOM     19  N   UNL     1      -2.589   0.287  24.961  0.00  0.00    -0.274 NA
ATOM     20  C   UNL     1      -2.252  -0.174  25.558  0.00  0.00    +0.130 C 
ATOM     21  C   UNL     1      -2.441  -0.975  25.616  0.00  0.00    +0.053 C 
ATOM     22  C   UNL     1      -2.967  -1.316  25.078  0.00  0.00    -0.016 A 
ATOM     23  C   UNL     1      -3.303  -0.855  24.481  0.00  0.00    +0.009 A 
ATOM     24  C   UNL     1      -3.828  -1.195  23.944  0.00  0.00    +0.004 A 
ATOM     25  C   UNL     1      -4.017  -1.996  24.002  0.00  0.00    +0.037 A 
ATOM     26  C   UNL     1      -3.680  -2.457  24.599  0.00  0.00    +0.138 A 
ATOM     29  C   UNL     1      -3.155  -2.117  25.136  0.00  0.00    +0.033 A 
BRANCH  26  27
ATOM     27  O   UNL     1      -3.869  -3.258  24.657  0.00  0.00    -0.471 OA
ATOM     28  C   UNL     1      -3.878  -3.730  23.981  0.00  0.00    +0.252 C 
ENDBRANCH  26  27
ENDBRANCH  17  18
ENDBRANCH  16  17
TORSDOF 8
ENDMDL
MODEL 8
REMARK VINA RESULT:      -9.0      1.996      3.813
REMARK  Name = 
REMARK  8 active torsions:
REMARK  status: ('A' for Active; 'I' for Inactive)
REMARK    1  A    between atoms: C_2  and  C_3
REMARK    2  A    between atoms: C_3  and  C_4
REMARK    3  A    between atoms: C_3  and  C_6
REMARK    4  A    between atoms: C_11  and  C_12
REMARK    5  A    between atoms: C_12  and  C_13
REMARK    6  A    between atoms: C_16  and  C_17
REMARK    7  A    between atoms: C_17  and  C_18
REMARK    8  A    between atoms: C_26  and  O_27
REMARK                            x       y       z     vdW  Elec       q    Type
REMARK                         _______ _______ _______ _____ _____    ______ ____
ROOT
ATOM      6  C   UNL     1      -4.483   1.568  24.926  0.00  0.00    +0.225 C 
ATOM      7  O   UNL     1      -4.414   0.807  24.614  0.00  0.00    -0.275 OA
ATOM      8  N   UNL     1      -3.814   2.047  24.999  0.00  0.00    -0.280 N 
ATOM      9  C   UNL     1      -3.883   2.807  25.310  0.00  0.00    +0.093 C 
ATOM     10  C   UNL     1      -3.215   3.285  25.383  0.00  0.00    +0.022 C 
ATOM     11  C   UNL     1      -2.478   3.002  25.145  0.00  0.00    +0.015 C 
ATOM     16  C   UNL     1      -2.409   2.241  24.834  0.00  0.00    +0.026 C 
ATOM     30  C   UNL     1      -3.077   1.763  24.761  0.00  0.00    +0.094 C 
ENDROOT
BRANCH   6   3
ATOM      3  C   UNL     1      -5.220   1.852  25.164  0.00  0.00    +0.077 C 
BRANCH   3   2
ATOM      1  C   UNL     1      -6.524   1.870  24.579  0.00  0.00    +0.001 C 
ATOM      2  C   UNL     1      -5.748   2.149  24.603  0.00  0.00    +0.009 C 
ENDBRANCH   3   2
BRANCH   3   4
ATOM      4  C   UNL     1      -5.429   1.839  25.961  0.00  0.00    +0.009 C 
ATOM      5  C   UNL     1      -6.200   1.646  26.182  0.00  0.00    +0.001 C 
ENDBRANCH   3   4
ENDBRANCH   6   3
BRANCH  11  12
ATOM     12  C   UNL     1      -1.809   3.480  25.218  0.00  0.00    +0.114 C 
BRANCH  12  13
ATOM     13  C   UNL     1      -1.892   4.282  25.390  0.00  0.00    +0.365 C 
ATOM     14  O   UNL     1      -2.090   4.521  26.155  0.00  0.00    -0.246 OA
ATOM     15  O   UNL     1      -1.778   4.845  24.797  0.00  0.00    -0.246 OA
ENDBRANCH  12  13
ENDBRANCH  11  12
BRANCH  16  17
ATOM     17  C   UNL     1      -1.671   1.958  24.596  0.00  0.00    +0.047 C 
BRANCH  17  18
ATOM     18  C   UNL     1      -1.410   1.219  24.853  0.00  0.00    +0.053 C 
ATOM     19  N   UNL     1      -1.690   0.908  25.564  0.00  0.00    -0.274 NA
ATOM     20  C   UNL     1      -1.429   0.168  25.822  0.00  0.00    +0.130 C 
ATOM     21  C   UNL     1      -0.889  -0.260  25.367  0.00  0.00    +0.053 C 
ATOM     22  C   UNL     1      -0.609   0.051  24.656  0.00  0.00    -0.016 A 
ATOM     23  C   UNL     1      -0.870   0.792  24.399  0.00  0.00    +0.009 A 
ATOM     24  C   UNL     1      -0.590   1.103  23.688  0.00  0.00    +0.004 A 
ATOM     25  C   UNL     1      -0.050   0.676  23.235  0.00  0.00    +0.037 A 
ATOM     26  C   UNL     1       0.211  -0.065  23.492  0.00  0.00    +0.138 A 
ATOM     29  C   UNL     1      -0.069  -0.376  24.203  0.00  0.00    +0.033 A 
BRANCH  26  27
ATOM     27  O   UNL     1       0.751  -0.492  23.038  0.00  0.00    -0.471 OA
ATOM     28  C   UNL     1       1.412  -0.115  22.719  0.00  0.00    +0.252 C 
ENDBRANCH  26  27
ENDBRANCH  17  18
ENDBRANCH  16  17
TORSDOF 8
ENDMDL
