MODEL 1
REMARK VINA RESULT:     -12.1      0.000      0.000
REMARK  Name = 
REMARK  5 active torsions:
REMARK  status: ('A' for Active; 'I' for Inactive)
REMARK    1  A    between atoms: C_3  and  C_4
REMARK    2  A    between atoms: C_4  and  N_5
REMARK    3  A    between atoms: C_6  and  C_8
REMARK    4  A    between atoms: C_17  and  N_18
REMARK    5  A    between atoms: N_18  and  C_19
REMARK                            x       y       z     vdW  Elec       q    Type
REMARK                         _______ _______ _______ _____ _____    ______ ____
ROOT
ATOM      1  O   UNL     1      -4.979   1.131  25.442  0.00  0.00    -0.219 OA
ATOM      2  C   UNL     1      -4.317   1.007  24.966  0.00  0.00    +0.199 C 
ATOM      3  C   UNL     1      -3.728   1.560  24.799  0.00  0.00    +0.169 C 
ATOM     15  O   UNL     1      -3.174   1.203  24.303  0.00  0.00    -0.350 OA
ATOM     16  C   UNL     1      -3.420   0.428  24.163  0.00  0.00    +0.162 C 
ATOM     17  C   UNL     1      -4.127   0.307  24.572  0.00  0.00    +0.135 C 
ENDROOT
BRANCH   3   4
ATOM      4  C   UNL     1      -3.698   2.336  25.080  0.00  0.00    +0.148 C 
BRANCH   4   5
ATOM      5  N   UNL     1      -3.019   2.790  24.967  0.00  0.00    -0.199 NA
ATOM      6  C   UNL     1      -2.937   3.513  25.355  0.00  0.00    +0.265 C 
ATOM      7  O   UNL     1      -3.535   3.783  25.855  0.00  0.00    -0.268 OA
BRANCH   6   8
ATOM      8  C   UNL     1      -2.257   3.967  25.243  0.00  0.00    +0.055 A 
ATOM      9  C   UNL     1      -1.519   3.602  25.203  0.00  0.00    +0.007 A 
ATOM     10  C   UNL     1      -0.840   4.057  25.091  0.00  0.00    +0.030 A 
ATOM     11  C   UNL     1      -0.899   4.877  25.019  0.00  0.00    +0.140 A 
ATOM     12  F   UNL     1      -0.220   5.331  24.907  0.00  0.00    -0.204 F 
ATOM     13  C   UNL     1      -1.638   5.242  25.059  0.00  0.00    +0.030 A 
ATOM     14  C   UNL     1      -2.317   4.787  25.171  0.00  0.00    +0.007 A 
ENDBRANCH   6   8
ENDBRANCH   4   5
ENDBRANCH   3   4
BRANCH  17  18
ATOM     18  N   UNL     1      -4.565  -0.391  24.586  0.00  0.00    -0.216 NA
BRANCH  18  19
ATOM     19  C   UNL     1      -4.181  -1.121  24.589  0.00  0.00    +0.073 C 
ATOM     20  C   UNL     1      -3.781  -1.375  25.263  0.00  0.00    +0.017 C 
ATOM     21  C   UNL     1      -3.396  -2.105  25.266  0.00  0.00    +0.001 C 
ATOM     22  C   UNL     1      -3.412  -2.581  24.592  0.00  0.00    +0.000 C 
ATOM     23  C   UNL     1      -3.812  -2.327  23.916  0.00  0.00    +0.001 C 
ATOM     24  C   UNL     1      -4.196  -1.597  23.915  0.00  0.00    +0.017 C 
ENDBRANCH  18  19
ENDBRANCH  17  18
TORSDOF 5
ENDMDL
MODEL 2
REMARK VINA RESULT:     -11.4      1.731      2.059
REMARK  Name = 
REMARK  5 active torsions:
REMARK  status: ('A' for Active; 'I' for Inactive)
REMARK    1  A    between atoms: C_3  and  C_4
REMARK    2  A    between atoms: C_4  and  N_5
REMARK    3  A    between atoms: C_6  and  C_8
REMARK    4  A    between atoms: C_17  and  N_18
REMARK    5  A    between atoms: N_18  and  C_19
REMARK                            x       y       z     vdW  Elec       q    Type
REMARK                         _______ _______ _______ _____ _____    ______ ____
ROOT
ATOM      1  O   UNL     1      -1.345  -0.332  26.369  0.00  0.00    -0.219 OA
ATOM      2  C   UNL     1      -1.530  -0.162  25.583  0.00  0.00    +0.199 C 
ATOM      3  C   UNL     1      -1.326   0.526  25.175  0.00  0.00    +0.169 C 
ATOM     15  O   UNL     1      -1.622   0.464  24.407  0.00  0.00    -0.350 OA
ATOM     16  C   UNL     1      -2.008  -0.262  24.341  0.00  0.00    +0.162 C 
ATOM     17  C   UNL     1      -1.951  -0.649  25.067  0.00  0.00    +0.135 C 
ENDROOT
BRANCH   3   4
ATOM      4  C   UNL     1      -0.901   1.163  25.482  0.00  0.00    +0.148 C 
BRANCH   4   5
ATOM      5  N   UNL     1      -1.141   1.936  25.318  0.00  0.00    -0.199 NA
ATOM      6  C   UNL     1      -0.739   2.572  25.655  0.00  0.00    +0.265 C 
ATOM      7  O   UNL     1      -0.097   2.437  26.156  0.00  0.00    -0.268 OA
BRANCH   6   8
ATOM      8  C   UNL     1      -0.979   3.345  25.492  0.00  0.00    +0.055 A 
ATOM      9  C   UNL     1      -0.505   3.835  25.030  0.00  0.00    +0.007 A 
ATOM     10  C   UNL     1      -0.745   4.607  24.867  0.00  0.00    +0.030 A 
ATOM     11  C   UNL     1      -1.460   4.889  25.167  0.00  0.00    +0.140 A 
ATOM     12  F   UNL     1      -1.700   5.662  25.005  0.00  0.00    -0.204 F 
ATOM     13  C   UNL     1      -1.935   4.398  25.630  0.00  0.00    +0.030 A 
ATOM     14  C   UNL     1      -1.694   3.626  25.793  0.00  0.00    +0.007 A 
ENDBRANCH   6   8
ENDBRANCH   4   5
ENDBRANCH   3   4
BRANCH  17  18
ATOM     18  N   UNL     1      -2.262  -1.391  25.247  0.00  0.00    -0.216 NA
BRANCH  18  19
ATOM     19  C   UNL     1      -2.905  -1.684  24.821  0.00  0.00    +0.073 C 
ATOM     20  C   UNL     1      -3.610  -1.259  24.795  0.00  0.00    +0.017 C 
ATOM     21  C   UNL     1      -4.254  -1.552  24.369  0.00  0.00    +0.001 C 
ATOM     22  C   UNL     1      -4.191  -2.271  23.970  0.00  0.00    +0.000 C 
ATOM     23  C   UNL     1      -3.484  -2.697  23.996  0.00  0.00    +0.001 C 
ATOM     24  C   UNL     1      -2.842  -2.404  24.422  0.00  0.00    +0.017 C 
ENDBRANCH  18  19
ENDBRANCH  17  18
TORSDOF 5
ENDMDL
MODEL 3
REMARK VINA RESULT:     -11.3      1.968      5.471
REMARK  Name = 
REMARK  5 active torsions:
REMARK  status: ('A' for Active; 'I' for Inactive)
REMARK    1  A    between atoms: C_3  and  C_4
REMARK    2  A    between atoms: C_4  and  N_5
REMARK    3  A    between atoms: C_6  and  C_8
REMARK    4  A    between atoms: C_17  and  N_18
REMARK    5  A    between atoms: N_18  and  C_19
REMARK                            x       y       z     vdW  Elec       q    Type
REMARK                         _______ _______ _______ _____ _____    ______ ____
ROOT
ATOM      1  O   UNL     1      -4.175   2.718  25.760  0.00  0.00    -0.219 OA
ATOM      2  C   UNL     1      -3.598   2.586  25.186  0.00  0.00    +0.199 C 
ATOM      3  C   UNL     1      -3.565   1.944  24.670  0.00  0.00    +0.169 C 
ATOM     15  O   UNL     1      -2.898   2.035  24.192  0.00  0.00    -0.350 OA
ATOM     16  C   UNL     1      -2.518   2.733  24.414  0.00  0.00    +0.162 C 
ATOM     17  C   UNL     1      -2.951   3.074  25.028  0.00  0.00    +0.135 C 
ENDROOT
BRANCH   3   4
ATOM      4  C   UNL     1      -4.104   1.320  24.636  0.00  0.00    +0.148 C 
BRANCH   4   5
ATOM      5  N   UNL     1      -3.834   0.541  24.637  0.00  0.00    -0.199 NA
ATOM      6  C   UNL     1      -4.373  -0.082  24.616  0.00  0.00    +0.265 C 
ATOM      7  O   UNL     1      -5.183   0.073  24.595  0.00  0.00    -0.268 OA
BRANCH   6   8
ATOM      8  C   UNL     1      -4.103  -0.863  24.617  0.00  0.00    +0.055 A 
ATOM      9  C   UNL     1      -3.716  -1.165  25.279  0.00  0.00    +0.007 A 
ATOM     10  C   UNL     1      -3.446  -1.944  25.279  0.00  0.00    +0.030 A 
ATOM     11  C   UNL     1      -3.565  -2.422  24.617  0.00  0.00    +0.140 A 
ATOM     12  F   UNL     1      -3.295  -3.202  24.617  0.00  0.00    -0.204 F 
ATOM     13  C   UNL     1      -3.953  -2.120  23.955  0.00  0.00    +0.030 A 
ATOM     14  C   UNL     1      -4.222  -1.340  23.955  0.00  0.00    +0.007 A 
ENDBRANCH   6   8
ENDBRANCH   4   5
ENDBRANCH   3   4
BRANCH  17  18
ATOM     18  N   UNL     1      -2.769   3.779  25.416  0.00  0.00    -0.216 NA
BRANCH  18  19
ATOM     19  C   UNL     1      -2.050   4.157  25.271  0.00  0.00    +0.073 C 
ATOM     20  C   UNL     1      -1.341   3.777  25.451  0.00  0.00    +0.017 C 
ATOM     21  C   UNL     1      -0.622   4.155  25.305  0.00  0.00    +0.001 C 
ATOM     22  C   UNL     1      -0.613   4.913  24.980  0.00  0.00    +0.000 C 
ATOM     23  C   UNL     1      -1.323   5.293  24.800  0.00  0.00    +0.001 C 
ATOM     24  C   UNL     1      -2.042   4.915  24.946  0.00  0.00    +0.017 C 
ENDBRANCH  18  19
ENDBRANCH  17  18
TORSDOF 5
ENDMDL
MODEL 4
REMARK VINA RESULT:     -11.2      2.546      5.779
REMARK  Name = 
REMARK  5 active torsions:
REMARK  status: ('A' for Active; 'I' for Inactive)
REMARK    1  A    between atoms: C_3  and  C_4
REMARK    2  A    between atoms: C_4  and  N_5
REMARK    3  A    between atoms: C_6  and  C_8
REMARK    4  A    between atoms: C_17  and  N_18
REMARK    5  A    between atoms: N_18  and  C_19
REMARK                            x       y       z     vdW  Elec       q    Type
REMARK                         _______ _______ _______ _____ _____    ______ ____
ROOT
ATOM      1  O   UNL     1      -0.613   1.209  26.244  0.00  0.00    -0.219 OA
ATOM      2  C   UNL     1      -0.888   1.413  25.493  0.00  0.00    +0.199 C 
ATOM      3  C   UNL     1      -1.223   0.897  24.943  0.00  0.00    +0.169 C 
ATOM     15  O   UNL     1      -1.418   1.334  24.270  0.00  0.00    -0.350 OA
ATOM     16  C   UNL     1      -1.204   2.119  24.405  0.00  0.00    +0.162 C 
ATOM     17  C   UNL     1      -0.876   2.168  25.161  0.00  0.00    +0.135 C 
ENDROOT
BRANCH   3   4
ATOM      4  C   UNL     1      -1.342   0.087  25.048  0.00  0.00    +0.148 C 
BRANCH   4   5
ATOM      5  N   UNL     1      -2.021  -0.272  24.748  0.00  0.00    -0.199 NA
ATOM      6  C   UNL     1      -2.155  -1.075  24.879  0.00  0.00    +0.265 C 
ATOM      7  O   UNL     1      -1.609  -1.520  25.309  0.00  0.00    -0.268 OA
BRANCH   6   8
ATOM      8  C   UNL     1      -2.834  -1.435  24.579  0.00  0.00    +0.055 A 
ATOM      9  C   UNL     1      -3.491  -0.977  24.382  0.00  0.00    +0.007 A 
ATOM     10  C   UNL     1      -4.170  -1.337  24.082  0.00  0.00    +0.030 A 
ATOM     11  C   UNL     1      -4.192  -2.156  23.980  0.00  0.00    +0.140 A 
ATOM     12  F   UNL     1      -4.871  -2.516  23.681  0.00  0.00    -0.204 F 
ATOM     13  C   UNL     1      -3.535  -2.614  24.177  0.00  0.00    +0.030 A 
ATOM     14  C   UNL     1      -2.856  -2.253  24.477  0.00  0.00    +0.007 A 
ENDBRANCH   6   8
ENDBRANCH   4   5
ENDBRANCH   3   4
BRANCH  17  18
ATOM     18  N   UNL     1      -0.588   2.852  25.520  0.00  0.00    -0.216 NA
BRANCH  18  19
ATOM     19  C   UNL     1      -0.972   3.573  25.405  0.00  0.00    +0.073 C 
ATOM     20  C   UNL     1      -1.691   3.722  25.778  0.00  0.00    +0.017 C 
ATOM     21  C   UNL     1      -2.075   4.443  25.663  0.00  0.00    +0.001 C 
ATOM     22  C   UNL     1      -1.738   5.015  25.173  0.00  0.00    +0.000 C 
ATOM     23  C   UNL     1      -1.018   4.866  24.799  0.00  0.00    +0.001 C 
ATOM     24  C   UNL     1      -0.635   4.145  24.915  0.00  0.00    +0.017 C 
ENDBRANCH  18  19
ENDBRANCH  17  18
TORSDOF 5
ENDMDL
