MODEL 1
REMARK VINA RESULT:      -8.6      0.000      0.000
REMARK  Name = 
REMARK  8 active torsions:
REMARK  status: ('A' for Active; 'I' for Inactive)
REMARK    1  A    between atoms: N_3  and  C_4
REMARK    2  A    between atoms: C_8  and  O_12
REMARK    3  A    between atoms: O_12  and  C_13
REMARK    4  A    between atoms: N_15  and  C_16
REMARK    5  A    between atoms: C_19  and  O_20
REMARK    6  A    between atoms: O_20  and  C_21
REMARK    7  A    between atoms: N_29  and  C_30
REMARK    8  A    between atoms: C_32  and  C_36
REMARK                            x       y       z     vdW  Elec       q    Type
REMARK                         _______ _______ _______ _____ _____    ______ ____
ROOT
ATOM      4  C   UNL     1      -1.747   1.915  24.482  0.00  0.00    +0.156 C 
ATOM      5  C   UNL     1      -1.804   2.077  23.675  0.00  0.00    +0.166 C 
ATOM      6  O   UNL     1      -1.340   1.528  23.271  0.00  0.00    -0.348 OA
ATOM      7  C   UNL     1      -0.996   1.027  23.828  0.00  0.00    +0.186 C 
ATOM      8  C   UNL     1      -0.496   0.377  23.923  0.00  0.00    +0.229 C 
ATOM      9  C   UNL     1      -0.439   0.215  24.730  0.00  0.00    +0.188 C 
ATOM     10  O   UNL     1      -0.903   0.764  25.133  0.00  0.00    -0.348 OA
ATOM     11  C   UNL     1      -1.248   1.266  24.576  0.00  0.00    +0.168 C 
ENDROOT
BRANCH   4   3
ATOM      1  O   UNL     1      -3.349   2.288  24.353  0.00  0.00    -0.249 OA
ATOM      2  C   UNL     1      -2.925   2.516  25.024  0.00  0.00    +0.344 C 
ATOM      3  N   UNL     1      -2.124   2.329  25.088  0.00  0.00    -0.184 NA
ATOM     29  N   UNL     1      -3.302   2.930  25.629  0.00  0.00    -0.161 NA
BRANCH  29  30
ATOM     30  C   UNL     1      -4.103   3.117  25.566  0.00  0.00    +0.076 A 
ATOM     31  C   UNL     1      -4.675   2.557  25.762  0.00  0.00    +0.027 A 
ATOM     32  C   UNL     1      -5.476   2.744  25.698  0.00  0.00    +0.070 A 
ATOM     33  C   UNL     1      -5.705   3.492  25.438  0.00  0.00    +0.010 A 
ATOM     34  C   UNL     1      -5.133   4.054  25.241  0.00  0.00    +0.002 A 
ATOM     35  C   UNL     1      -4.332   3.866  25.305  0.00  0.00    +0.017 A 
BRANCH  32  36
ATOM     36  C   UNL     1      -6.047   2.183  25.895  0.00  0.00    +0.100 C 
ATOM     37  N   UNL     1      -6.620   1.622  26.091  0.00  0.00    -0.191 NA
ENDBRANCH  32  36
ENDBRANCH  29  30
ENDBRANCH   4   3
BRANCH   8  12
ATOM     12  O   UNL     1      -0.119  -0.037  23.317  0.00  0.00    -0.432 OA
BRANCH  12  13
ATOM     13  C   UNL     1       0.705  -0.045  23.272  0.00  0.00    +0.425 C 
ATOM     14  O   UNL     1       1.141  -0.511  23.795  0.00  0.00    -0.224 OA
ATOM     15  N   UNL     1       1.092   0.412  22.706  0.00  0.00    -0.142 NA
BRANCH  15  16
ATOM     16  C   UNL     1       1.916   0.405  22.662  0.00  0.00    +0.077 A 
ATOM     17  C   UNL     1       2.355   0.997  23.031  0.00  0.00    +0.020 A 
ATOM     18  C   UNL     1       3.178   0.989  22.986  0.00  0.00    +0.039 A 
ATOM     19  C   UNL     1       3.563   0.388  22.572  0.00  0.00    +0.145 A 
ATOM     27  C   UNL     1       3.124  -0.205  22.202  0.00  0.00    +0.039 A 
ATOM     28  C   UNL     1       2.300  -0.196  22.247  0.00  0.00    +0.020 A 
BRANCH  19  20
ATOM     20  O   UNL     1       4.386   0.379  22.527  0.00  0.00    -0.453 OA
BRANCH  20  21
ATOM     21  C   UNL     1       4.833   0.116  23.169  0.00  0.00    +0.145 A 
ATOM     22  C   UNL     1       4.857  -0.687  23.352  0.00  0.00    +0.037 A 
ATOM     23  C   UNL     1       5.304  -0.951  23.995  0.00  0.00    +0.003 A 
ATOM     24  C   UNL     1       5.726  -0.410  24.453  0.00  0.00    +0.000 A 
ATOM     25  C   UNL     1       5.701   0.394  24.268  0.00  0.00    +0.003 A 
ATOM     26  C   UNL     1       5.255   0.657  23.626  0.00  0.00    +0.037 A 
ENDBRANCH  20  21
ENDBRANCH  19  20
ENDBRANCH  15  16
ENDBRANCH  12  13
ENDBRANCH   8  12
TORSDOF 8
ENDMDL
MODEL 2
REMARK VINA RESULT:      -8.1      1.662      8.065
REMARK  Name = 
REMARK  8 active torsions:
REMARK  status: ('A' for Active; 'I' for Inactive)
REMARK    1  A    between atoms: N_3  and  C_4
REMARK    2  A    between atoms: C_8  and  O_12
REMARK    3  A    between atoms: O_12  and  C_13
REMARK    4  A    between atoms: N_15  and  C_16
REMARK    5  A    between atoms: C_19  and  O_20
REMARK    6  A    between atoms: O_20  and  C_21
REMARK    7  A    between atoms: N_29  and  C_30
REMARK    8  A    between atoms: C_32  and  C_36
REMARK                            x       y       z     vdW  Elec       q    Type
REMARK                         _______ _______ _______ _____ _____    ______ ____
ROOT
ATOM      4  C   UNL     1       1.154   0.408  23.255  0.00  0.00    +0.156 C 
ATOM      5  C   UNL     1       0.935  -0.276  22.849  0.00  0.00    +0.166 C 
ATOM      6  O   UNL     1       0.238  -0.559  23.185  0.00  0.00    -0.348 OA
ATOM      7  C   UNL     1       0.025  -0.052  23.798  0.00  0.00    +0.186 C 
ATOM      8  C   UNL     1      -0.538   0.088  24.385  0.00  0.00    +0.229 C 
ATOM      9  C   UNL     1      -0.319   0.772  24.791  0.00  0.00    +0.188 C 
ATOM     10  O   UNL     1       0.378   1.055  24.455  0.00  0.00    -0.348 OA
ATOM     11  C   UNL     1       0.591   0.547  23.841  0.00  0.00    +0.168 C 
ENDROOT
BRANCH   4   3
ATOM      1  O   UNL     1       2.648  -0.288  23.192  0.00  0.00    -0.249 OA
ATOM      2  C   UNL     1       2.567   0.524  23.069  0.00  0.00    +0.344 C 
ATOM      3  N   UNL     1       1.819   0.872  23.101  0.00  0.00    -0.184 NA
ATOM     29  N   UNL     1       3.231   0.987  22.915  0.00  0.00    -0.161 NA
BRANCH  29  30
ATOM     30  C   UNL     1       3.979   0.639  22.884  0.00  0.00    +0.076 A 
ATOM     31  C   UNL     1       4.357   0.410  23.579  0.00  0.00    +0.027 A 
ATOM     32  C   UNL     1       5.105   0.062  23.548  0.00  0.00    +0.070 A 
ATOM     33  C   UNL     1       5.474  -0.056  22.819  0.00  0.00    +0.010 A 
ATOM     34  C   UNL     1       5.095   0.174  22.123  0.00  0.00    +0.002 A 
ATOM     35  C   UNL     1       4.348   0.521  22.155  0.00  0.00    +0.017 A 
BRANCH  32  36
ATOM     36  C   UNL     1       5.483  -0.167  24.243  0.00  0.00    +0.100 C 
ATOM     37  N   UNL     1       5.862  -0.397  24.940  0.00  0.00    -0.191 NA
ENDBRANCH  32  36
ENDBRANCH  29  30
ENDBRANCH   4   3
BRANCH   8  12
ATOM     12  O   UNL     1      -1.203  -0.376  24.539  0.00  0.00    -0.432 OA
BRANCH  12  13
ATOM     13  C   UNL     1      -1.937  -0.018  24.657  0.00  0.00    +0.425 C 
ATOM     14  O   UNL     1      -2.017   0.586  25.212  0.00  0.00    -0.224 OA
ATOM     15  N   UNL     1      -2.591  -0.265  24.220  0.00  0.00    -0.142 NA
BRANCH  15  16
ATOM     16  C   UNL     1      -3.326   0.092  24.338  0.00  0.00    +0.077 A 
ATOM     17  C   UNL     1      -3.553   0.732  23.871  0.00  0.00    +0.020 A 
ATOM     18  C   UNL     1      -4.286   1.089  23.988  0.00  0.00    +0.039 A 
ATOM     19  C   UNL     1      -4.794   0.806  24.574  0.00  0.00    +0.145 A 
ATOM     27  C   UNL     1      -4.567   0.165  25.042  0.00  0.00    +0.039 A 
ATOM     28  C   UNL     1      -3.833  -0.192  24.923  0.00  0.00    +0.020 A 
BRANCH  19  20
ATOM     20  O   UNL     1      -5.528   1.162  24.692  0.00  0.00    -0.453 OA
BRANCH  20  21
ATOM     21  C   UNL     1      -5.583   1.860  25.130  0.00  0.00    +0.145 A 
ATOM     22  C   UNL     1      -5.364   2.578  24.790  0.00  0.00    +0.037 A 
ATOM     23  C   UNL     1      -5.419   3.276  25.228  0.00  0.00    +0.003 A 
ATOM     24  C   UNL     1      -5.694   3.253  26.006  0.00  0.00    +0.000 A 
ATOM     25  C   UNL     1      -5.913   2.534  26.345  0.00  0.00    +0.003 A 
ATOM     26  C   UNL     1      -5.858   1.837  25.907  0.00  0.00    +0.037 A 
ENDBRANCH  20  21
ENDBRANCH  19  20
ENDBRANCH  15  16
ENDBRANCH  12  13
ENDBRANCH   8  12
TORSDOF 8
ENDMDL
MODEL 3
REMARK VINA RESULT:      -7.4      1.531      8.150
REMARK  Name = 
REMARK  8 active torsions:
REMARK  status: ('A' for Active; 'I' for Inactive)
REMARK    1  A    between atoms: N_3  and  C_4
REMARK    2  A    between atoms: C_8  and  O_12
REMARK    3  A    between atoms: O_12  and  C_13
REMARK    4  A    between atoms: N_15  and  C_16
REMARK    5  A    between atoms: C_19  and  O_20
REMARK    6  A    between atoms: O_20  and  C_21
REMARK    7  A    between atoms: N_29  and  C_30
REMARK    8  A    between atoms: C_32  and  C_36
REMARK                            x       y       z     vdW  Elec       q    Type
REMARK                         _______ _______ _______ _____ _____    ______ ____
ROOT
ATOM      4  C   UNL     1       0.905   1.467  23.763  0.00  0.00    +0.156 C 
ATOM      5  C   UNL     1       0.915   2.227  23.444  0.00  0.00    +0.166 C 
ATOM      6  O   UNL     1       0.435   2.706  23.913  0.00  0.00    -0.348 OA
ATOM      7  C   UNL     1       0.128   2.242  24.521  0.00  0.00    +0.186 C 
ATOM      8  C   UNL     1      -0.359   2.250  25.188  0.00  0.00    +0.229 C 
ATOM      9  C   UNL     1      -0.368   1.489  25.507  0.00  0.00    +0.188 C 
ATOM     10  O   UNL     1       0.112   1.011  25.038  0.00  0.00    -0.348 OA
ATOM     11  C   UNL     1       0.419   1.476  24.429  0.00  0.00    +0.168 C 
ENDROOT
BRANCH   4   3
ATOM      1  O   UNL     1       2.537   1.544  23.530  0.00  0.00    -0.249 OA
ATOM      2  C   UNL     1       2.127   0.850  23.351  0.00  0.00    +0.344 C 
ATOM      3  N   UNL     1       1.311   0.812  23.467  0.00  0.00    -0.184 NA
ATOM     29  N   UNL     1       2.533   0.196  23.055  0.00  0.00    -0.161 NA
BRANCH  29  30
ATOM     30  C   UNL     1       3.349   0.234  22.939  0.00  0.00    +0.076 A 
ATOM     31  C   UNL     1       3.860  -0.124  23.478  0.00  0.00    +0.027 A 
ATOM     32  C   UNL     1       4.676  -0.086  23.361  0.00  0.00    +0.070 A 
ATOM     33  C   UNL     1       4.981   0.310  22.705  0.00  0.00    +0.010 A 
ATOM     34  C   UNL     1       4.469   0.669  22.166  0.00  0.00    +0.002 A 
ATOM     35  C   UNL     1       3.654   0.630  22.283  0.00  0.00    +0.017 A 
BRANCH  32  36
ATOM     36  C   UNL     1       5.187  -0.445  23.900  0.00  0.00    +0.100 C 
ATOM     37  N   UNL     1       5.698  -0.803  24.440  0.00  0.00    -0.191 NA
ENDBRANCH  32  36
ENDBRANCH  29  30
ENDBRANCH   4   3
BRANCH   8  12
ATOM     12  O   UNL     1      -0.765   2.905  25.483  0.00  0.00    -0.432 OA
BRANCH  12  13
ATOM     13  C   UNL     1      -1.590   2.908  25.497  0.00  0.00    +0.425 C 
ATOM     14  O   UNL     1      -2.000   2.234  25.737  0.00  0.00    -0.224 OA
ATOM     15  N   UNL     1      -2.004   3.584  25.271  0.00  0.00    -0.142 NA
BRANCH  15  16
ATOM     16  C   UNL     1      -2.829   3.587  25.285  0.00  0.00    +0.077 A 
ATOM     17  C   UNL     1      -3.230   3.786  25.977  0.00  0.00    +0.020 A 
ATOM     18  C   UNL     1      -4.054   3.789  25.991  0.00  0.00    +0.039 A 
ATOM     19  C   UNL     1      -4.479   3.592  25.311  0.00  0.00    +0.145 A 
ATOM     27  C   UNL     1      -4.078   3.392  24.618  0.00  0.00    +0.039 A 
ATOM     28  C   UNL     1      -3.253   3.389  24.605  0.00  0.00    +0.020 A 
BRANCH  19  20
ATOM     20  O   UNL     1      -5.302   3.594  25.324  0.00  0.00    -0.453 OA
BRANCH  20  21
ATOM     21  C   UNL     1      -5.716   2.894  25.465  0.00  0.00    +0.145 A 
ATOM     22  C   UNL     1      -5.926   2.688  26.235  0.00  0.00    +0.037 A 
ATOM     23  C   UNL     1      -6.340   1.987  26.376  0.00  0.00    +0.003 A 
ATOM     24  C   UNL     1      -6.543   1.495  25.746  0.00  0.00    +0.000 A 
ATOM     25  C   UNL     1      -6.333   1.702  24.976  0.00  0.00    +0.003 A 
ATOM     26  C   UNL     1      -5.919   2.402  24.836  0.00  0.00    +0.037 A 
ENDBRANCH  20  21
ENDBRANCH  19  20
ENDBRANCH  15  16
ENDBRANCH  12  13
ENDBRANCH   8  12
TORSDOF 8
ENDMDL
MODEL 4
REMARK VINA RESULT:      -6.2     16.117     18.512
REMARK  Name = 
REMARK  8 active torsions:
REMARK  status: ('A' for Active; 'I' for Inactive)
REMARK    1  A    between atoms: N_3  and  C_4
REMARK    2  A    between atoms: C_8  and  O_12
REMARK    3  A    between atoms: O_12  and  C_13
REMARK    4  A    between atoms: N_15  and  C_16
REMARK    5  A    between atoms: C_19  and  O_20
REMARK    6  A    between atoms: O_20  and  C_21
REMARK    7  A    between atoms: N_29  and  C_30
REMARK    8  A    between atoms: C_32  and  C_36
REMARK                            x       y       z     vdW  Elec       q    Type
REMARK                         _______ _______ _______ _____ _____    ______ ____
ROOT
ATOM      4  C   UNL     1      -5.459  -9.621  10.894  0.00  0.00    +0.156 C 
ATOM      5  C   UNL     1      -5.561  -8.825  11.082  0.00  0.00    +0.166 C 
ATOM      6  O   UNL     1      -6.336  -8.723  11.346  0.00  0.00    -0.348 OA
ATOM      7  C   UNL     1      -6.713  -9.456  11.320  0.00  0.00    +0.186 C 
ATOM      8  C   UNL     1      -7.424  -9.847  11.467  0.00  0.00    +0.229 C 
ATOM      9  C   UNL     1      -7.322 -10.643  11.278  0.00  0.00    +0.188 C 
ATOM     10  O   UNL     1      -6.547 -10.745  11.014  0.00  0.00    -0.348 OA
ATOM     11  C   UNL     1      -6.170 -10.011  11.040  0.00  0.00    +0.168 C 
ENDROOT
BRANCH   4   3
ATOM      1  O   UNL     1      -4.080  -9.573  11.798  0.00  0.00    -0.249 OA
ATOM      2  C   UNL     1      -4.076  -9.943  11.060  0.00  0.00    +0.344 C 
ATOM      3  N   UNL     1      -4.766  -9.967  10.608  0.00  0.00    -0.184 NA
ATOM     29  N   UNL     1      -3.384 -10.288  10.774  0.00  0.00    -0.161 NA
BRANCH  29  30
ATOM     30  C   UNL     1      -2.694 -10.264  11.226  0.00  0.00    +0.076 A 
ATOM     31  C   UNL     1      -2.099  -9.723  11.043  0.00  0.00    +0.027 A 
ATOM     32  C   UNL     1      -1.409  -9.699  11.494  0.00  0.00    +0.070 A 
ATOM     33  C   UNL     1      -1.314 -10.216  12.130  0.00  0.00    +0.010 A 
ATOM     34  C   UNL     1      -1.909 -10.758  12.313  0.00  0.00    +0.002 A 
ATOM     35  C   UNL     1      -2.599 -10.781  11.861  0.00  0.00    +0.017 A 
BRANCH  32  36
ATOM     36  C   UNL     1      -0.814  -9.158  11.311  0.00  0.00    +0.100 C 
ATOM     37  N   UNL     1      -0.219  -8.617  11.128  0.00  0.00    -0.191 NA
ENDBRANCH  32  36
ENDBRANCH  29  30
ENDBRANCH   4   3
BRANCH   8  12
ATOM     12  O   UNL     1      -8.117  -9.502  11.753  0.00  0.00    -0.432 OA
BRANCH  12  13
ATOM     13  C   UNL     1      -8.465  -9.785  12.445  0.00  0.00    +0.425 C 
ATOM     14  O   UNL     1      -8.698 -10.575  12.496  0.00  0.00    -0.224 OA
ATOM     15  N   UNL     1      -8.579  -9.280  13.086  0.00  0.00    -0.142 NA
BRANCH  15  16
ATOM     16  C   UNL     1      -8.927  -9.564  13.779  0.00  0.00    +0.077 A 
ATOM     17  C   UNL     1      -8.459  -9.902  14.367  0.00  0.00    +0.020 A 
ATOM     18  C   UNL     1      -8.806 -10.185  15.059  0.00  0.00    +0.039 A 
ATOM     19  C   UNL     1      -9.623 -10.130  15.163  0.00  0.00    +0.145 A 
ATOM     27  C   UNL     1     -10.092  -9.792  14.574  0.00  0.00    +0.039 A 
ATOM     28  C   UNL     1      -9.744  -9.508  13.882  0.00  0.00    +0.020 A 
BRANCH  19  20
ATOM     20  O   UNL     1      -9.971 -10.413  15.854  0.00  0.00    -0.453 OA
BRANCH  20  21
ATOM     21  C   UNL     1     -10.035  -9.924  16.516  0.00  0.00    +0.145 A 
ATOM     22  C   UNL     1     -10.653  -9.381  16.569  0.00  0.00    +0.037 A 
ATOM     23  C   UNL     1     -10.717  -8.892  17.231  0.00  0.00    +0.003 A 
ATOM     24  C   UNL     1     -10.161  -8.946  17.839  0.00  0.00    +0.000 A 
ATOM     25  C   UNL     1      -9.543  -9.489  17.784  0.00  0.00    +0.003 A 
ATOM     26  C   UNL     1      -9.480  -9.978  17.123  0.00  0.00    +0.037 A 
ENDBRANCH  20  21
ENDBRANCH  19  20
ENDBRANCH  15  16
ENDBRANCH  12  13
ENDBRANCH   8  12
TORSDOF 8
ENDMDL
MODEL 5
REMARK VINA RESULT:      -5.3     16.170     17.100
REMARK  Name = 
REMARK  8 active torsions:
REMARK  status: ('A' for Active; 'I' for Inactive)
REMARK    1  A    between atoms: N_3  and  C_4
REMARK    2  A    between atoms: C_8  and  O_12
REMARK    3  A    between atoms: O_12  and  C_13
REMARK    4  A    between atoms: N_15  and  C_16
REMARK    5  A    between atoms: C_19  and  O_20
REMARK    6  A    between atoms: O_20  and  C_21
REMARK    7  A    between atoms: N_29  and  C_30
REMARK    8  A    between atoms: C_32  and  C_36
REMARK                            x       y       z     vdW  Elec       q    Type
REMARK                         _______ _______ _______ _____ _____    ______ ____
ROOT
ATOM      4  C   UNL     1      -9.185  -9.794  13.851  0.00  0.00    +0.156 C 
ATOM      5  C   UNL     1      -8.947  -9.006  13.908  0.00  0.00    +0.166 C 
ATOM      6  O   UNL     1      -8.519  -8.820  13.228  0.00  0.00    -0.348 OA
ATOM      7  C   UNL     1      -8.491  -9.492  12.752  0.00  0.00    +0.186 C 
ATOM      8  C   UNL     1      -8.210  -9.793  12.037  0.00  0.00    +0.229 C 
ATOM      9  C   UNL     1      -8.447 -10.581  11.980  0.00  0.00    +0.188 C 
ATOM     10  O   UNL     1      -8.875 -10.767  12.660  0.00  0.00    -0.348 OA
ATOM     11  C   UNL     1      -8.903 -10.094  13.137  0.00  0.00    +0.168 C 
ENDROOT
BRANCH   4   3
ATOM      1  O   UNL     1      -9.257  -9.255  15.409  0.00  0.00    -0.249 OA
ATOM      2  C   UNL     1      -9.663  -9.940  15.190  0.00  0.00    +0.344 C 
ATOM      3  N   UNL     1      -9.626 -10.209  14.411  0.00  0.00    -0.184 NA
ATOM     29  N   UNL     1     -10.104 -10.355  15.750  0.00  0.00    -0.161 NA
BRANCH  29  30
ATOM     30  C   UNL     1     -10.141 -10.086  16.529  0.00  0.00    +0.076 A 
ATOM     31  C   UNL     1      -9.641 -10.406  17.100  0.00  0.00    +0.027 A 
ATOM     32  C   UNL     1      -9.678 -10.137  17.880  0.00  0.00    +0.070 A 
ATOM     33  C   UNL     1     -10.215  -9.547  18.087  0.00  0.00    +0.010 A 
ATOM     34  C   UNL     1     -10.716  -9.225  17.515  0.00  0.00    +0.002 A 
ATOM     35  C   UNL     1     -10.679  -9.495  16.736  0.00  0.00    +0.017 A 
BRANCH  32  36
ATOM     36  C   UNL     1      -9.178 -10.458  18.451  0.00  0.00    +0.100 C 
ATOM     37  N   UNL     1      -8.677 -10.779  19.023  0.00  0.00    -0.191 NA
ENDBRANCH  32  36
ENDBRANCH  29  30
ENDBRANCH   4   3
BRANCH   8  12
ATOM     12  O   UNL     1      -7.768  -9.378  11.477  0.00  0.00    -0.432 OA
BRANCH  12  13
ATOM     13  C   UNL     1      -7.028  -9.659  11.244  0.00  0.00    +0.425 C 
ATOM     14  O   UNL     1      -6.964 -10.395  10.876  0.00  0.00    -0.224 OA
ATOM     15  N   UNL     1      -6.353  -9.205  11.377  0.00  0.00    -0.142 NA
BRANCH  15  16
ATOM     16  C   UNL     1      -5.613  -9.486  11.144  0.00  0.00    +0.077 A 
ATOM     17  C   UNL     1      -5.293 -10.155  11.505  0.00  0.00    +0.020 A 
ATOM     18  C   UNL     1      -4.554 -10.436  11.272  0.00  0.00    +0.039 A 
ATOM     19  C   UNL     1      -4.133 -10.048  10.677  0.00  0.00    +0.145 A 
ATOM     27  C   UNL     1      -4.454  -9.378  10.315  0.00  0.00    +0.039 A 
ATOM     28  C   UNL     1      -5.193  -9.098  10.549  0.00  0.00    +0.020 A 
BRANCH  19  20
ATOM     20  O   UNL     1      -3.395 -10.328  10.443  0.00  0.00    -0.453 OA
BRANCH  20  21
ATOM     21  C   UNL     1      -2.723 -10.142  10.886  0.00  0.00    +0.145 A 
ATOM     22  C   UNL     1      -2.465 -10.654  11.478  0.00  0.00    +0.037 A 
ATOM     23  C   UNL     1      -1.794 -10.468  11.921  0.00  0.00    +0.003 A 
ATOM     24  C   UNL     1      -1.380  -9.770  11.769  0.00  0.00    +0.000 A 
ATOM     25  C   UNL     1      -1.639  -9.259  11.176  0.00  0.00    +0.003 A 
ATOM     26  C   UNL     1      -2.310  -9.445  10.734  0.00  0.00    +0.037 A 
ENDBRANCH  20  21
ENDBRANCH  19  20
ENDBRANCH  15  16
ENDBRANCH  12  13
ENDBRANCH   8  12
TORSDOF 8
ENDMDL
