MODEL 1
REMARK VINA RESULT:     -11.7      0.000      0.000
REMARK  Name = 
REMARK  9 active torsions:
REMARK  status: ('A' for Active; 'I' for Inactive)
REMARK    1  A    between atoms: C_2  and  C_3
REMARK    2  A    between atoms: C_3  and  C_4
REMARK    3  A    between atoms: C_9  and  C_10
REMARK    4  A    between atoms: C_10  and  C_11
REMARK    5  A    between atoms: C_14  and  C_15
REMARK    6  A    between atoms: C_15  and  O_16
REMARK    7  A    between atoms: O_16  and  C_17
REMARK    8  A    between atoms: N_24  and  C_25
REMARK    9  A    between atoms: C_25  and  C_26
REMARK                            x       y       z     vdW  Elec       q    Type
REMARK                         _______ _______ _______ _____ _____    ______ ____
ROOT
ATOM      4  C   UNL     1      -1.252   3.334  25.395  0.00  0.00    +0.012 C 
ATOM      5  C   UNL     1      -1.152   4.013  24.936  0.00  0.00    +0.019 C 
ATOM      6  C   UNL     1      -0.569   4.034  24.353  0.00  0.00    +0.089 C 
ATOM      7  N   UNL     1      -0.085   3.377  24.230  0.00  0.00    -0.218 NA
ATOM      8  C   UNL     1      -0.184   2.700  24.689  0.00  0.00    +0.089 C 
ATOM      9  C   UNL     1      -0.767   2.678  25.272  0.00  0.00    +0.024 C 
ENDROOT
BRANCH   4   3
ATOM      3  C   UNL     1      -1.835   3.313  25.978  0.00  0.00    +0.087 C 
BRANCH   3   2
ATOM      1  O   UNL     1      -2.643   4.486  25.859  0.00  0.00    -0.273 OA
ATOM      2  C   UNL     1      -2.569   3.664  25.840  0.00  0.00    +0.242 C 
ATOM     24  N   UNL     1      -3.228   3.194  25.684  0.00  0.00    -0.200 NA
BRANCH  24  25
ATOM     25  C   UNL     1      -3.962   3.545  25.547  0.00  0.00    +0.143 C 
BRANCH  25  26
ATOM     26  C   UNL     1      -4.626   3.074  25.413  0.00  0.00    +0.019 A 
ATOM     27  C   UNL     1      -4.661   2.589  24.747  0.00  0.00    +0.001 A 
ATOM     28  C   UNL     1      -5.325   2.119  24.613  0.00  0.00    +0.020 A 
ATOM     29  C   UNL     1      -5.955   2.132  25.146  0.00  0.00    +0.099 A 
ATOM     30  N   UNL     1      -5.920   2.617  25.812  0.00  0.00    -0.243 NA
ATOM     31  C   UNL     1      -5.256   3.089  25.946  0.00  0.00    +0.096 A 
ENDBRANCH  25  26
ENDBRANCH  24  25
ENDBRANCH   3   2
ENDBRANCH   4   3
BRANCH   9  10
ATOM     10  C   UNL     1      -0.867   2.000  25.731  0.00  0.00    +0.051 C 
BRANCH  10  11
ATOM     11  C   UNL     1      -0.871   1.257  25.374  0.00  0.00    +0.100 A 
ATOM     12  N   UNL     1      -0.232   0.896  24.997  0.00  0.00    -0.082 NA
ATOM     13  O   UNL     1      -0.480   0.160  24.721  0.00  0.00    -0.354 OA
ATOM     14  C   UNL     1      -1.274   0.065  24.926  0.00  0.00    +0.198 A 
ATOM     23  C   UNL     1      -1.515   0.743  25.330  0.00  0.00    +0.057 A 
BRANCH  14  15
ATOM     15  C   UNL     1      -1.743  -0.592  24.758  0.00  0.00    +0.272 C 
BRANCH  15  16
ATOM     16  O   UNL     1      -2.548  -0.581  24.942  0.00  0.00    -0.467 OA
BRANCH  16  17
ATOM     17  C   UNL     1      -3.038  -1.192  24.683  0.00  0.00    +0.139 A 
ATOM     18  C   UNL     1      -2.920  -1.961  24.959  0.00  0.00    +0.037 A 
ATOM     19  C   UNL     1      -3.410  -2.572  24.700  0.00  0.00    +0.003 A 
ATOM     20  C   UNL     1      -4.017  -2.415  24.165  0.00  0.00    +0.000 A 
ATOM     21  C   UNL     1      -4.136  -1.647  23.889  0.00  0.00    +0.003 A 
ATOM     22  C   UNL     1      -3.646  -1.036  24.148  0.00  0.00    +0.037 A 
ENDBRANCH  16  17
ENDBRANCH  15  16
ENDBRANCH  14  15
ENDBRANCH  10  11
ENDBRANCH   9  10
TORSDOF 9
ENDMDL
MODEL 2
REMARK VINA RESULT:     -11.6      1.330      3.648
REMARK  Name = 
REMARK  9 active torsions:
REMARK  status: ('A' for Active; 'I' for Inactive)
REMARK    1  A    between atoms: C_2  and  C_3
REMARK    2  A    between atoms: C_3  and  C_4
REMARK    3  A    between atoms: C_9  and  C_10
REMARK    4  A    between atoms: C_10  and  C_11
REMARK    5  A    between atoms: C_14  and  C_15
REMARK    6  A    between atoms: C_15  and  O_16
REMARK    7  A    between atoms: O_16  and  C_17
REMARK    8  A    between atoms: N_24  and  C_25
REMARK    9  A    between atoms: C_25  and  C_26
REMARK                            x       y       z     vdW  Elec       q    Type
REMARK                         _______ _______ _______ _____ _____    ______ ____
ROOT
ATOM      4  C   UNL     1      -2.698   3.438  24.903  0.00  0.00    +0.012 C 
ATOM      5  C   UNL     1      -2.315   3.865  25.498  0.00  0.00    +0.019 C 
ATOM      6  C   UNL     1      -2.741   4.132  26.152  0.00  0.00    +0.089 C 
ATOM      7  N   UNL     1      -3.548   3.974  26.212  0.00  0.00    -0.218 NA
ATOM      8  C   UNL     1      -3.930   3.549  25.618  0.00  0.00    +0.089 C 
ATOM      9  C   UNL     1      -3.506   3.281  24.963  0.00  0.00    +0.024 C 
ENDROOT
BRANCH   4   3
ATOM      3  C   UNL     1      -2.273   3.171  24.249  0.00  0.00    +0.087 C 
BRANCH   3   2
ATOM      1  O   UNL     1      -0.906   3.476  24.531  0.00  0.00    -0.273 OA
ATOM      2  C   UNL     1      -1.490   2.926  24.337  0.00  0.00    +0.242 C 
ATOM     24  N   UNL     1      -1.292   2.133  24.232  0.00  0.00    -0.200 NA
BRANCH  24  25
ATOM     25  C   UNL     1      -0.509   1.889  24.320  0.00  0.00    +0.143 C 
BRANCH  25  26
ATOM     26  C   UNL     1      -0.311   1.093  24.219  0.00  0.00    +0.019 A 
ATOM     27  C   UNL     1      -0.527   0.539  24.791  0.00  0.00    +0.001 A 
ATOM     28  C   UNL     1      -0.329  -0.255  24.690  0.00  0.00    +0.020 A 
ATOM     29  C   UNL     1       0.086  -0.496  24.018  0.00  0.00    +0.099 A 
ATOM     30  N   UNL     1       0.302   0.059  23.446  0.00  0.00    -0.243 NA
ATOM     31  C   UNL     1       0.104   0.854  23.547  0.00  0.00    +0.096 A 
ENDBRANCH  25  26
ENDBRANCH  24  25
ENDBRANCH   3   2
ENDBRANCH   4   3
BRANCH   9  10
ATOM     10  C   UNL     1      -3.888   2.855  24.370  0.00  0.00    +0.051 C 
BRANCH  10  11
ATOM     11  C   UNL     1      -4.307   2.170  24.558  0.00  0.00    +0.100 A 
ATOM     12  N   UNL     1      -5.061   2.138  24.890  0.00  0.00    -0.082 NA
ATOM     13  O   UNL     1      -5.265   1.344  24.985  0.00  0.00    -0.354 OA
ATOM     14  C   UNL     1      -4.637   0.885  24.710  0.00  0.00    +0.198 A 
ATOM     23  C   UNL     1      -4.044   1.395  24.446  0.00  0.00    +0.057 A 
BRANCH  14  15
ATOM     15  C   UNL     1      -4.606   0.061  24.701  0.00  0.00    +0.272 C 
BRANCH  15  16
ATOM     16  O   UNL     1      -3.919  -0.324  24.452  0.00  0.00    -0.467 OA
BRANCH  16  17
ATOM     17  C   UNL     1      -3.878  -1.147  24.472  0.00  0.00    +0.139 A 
ATOM     18  C   UNL     1      -4.165  -1.590  23.838  0.00  0.00    +0.037 A 
ATOM     19  C   UNL     1      -4.123  -2.413  23.857  0.00  0.00    +0.003 A 
ATOM     20  C   UNL     1      -3.795  -2.795  24.511  0.00  0.00    +0.000 A 
ATOM     21  C   UNL     1      -3.508  -2.352  25.146  0.00  0.00    +0.003 A 
ATOM     22  C   UNL     1      -3.550  -1.529  25.126  0.00  0.00    +0.037 A 
ENDBRANCH  16  17
ENDBRANCH  15  16
ENDBRANCH  14  15
ENDBRANCH  10  11
ENDBRANCH   9  10
TORSDOF 9
ENDMDL
MODEL 3
REMARK VINA RESULT:     -11.0      1.286      4.318
REMARK  Name = 
REMARK  9 active torsions:
REMARK  status: ('A' for Active; 'I' for Inactive)
REMARK    1  A    between atoms: C_2  and  C_3
REMARK    2  A    between atoms: C_3  and  C_4
REMARK    3  A    between atoms: C_9  and  C_10
REMARK    4  A    between atoms: C_10  and  C_11
REMARK    5  A    between atoms: C_14  and  C_15
REMARK    6  A    between atoms: C_15  and  O_16
REMARK    7  A    between atoms: O_16  and  C_17
REMARK    8  A    between atoms: N_24  and  C_25
REMARK    9  A    between atoms: C_25  and  C_26
REMARK                            x       y       z     vdW  Elec       q    Type
REMARK                         _______ _______ _______ _____ _____    ______ ____
ROOT
ATOM      4  C   UNL     1      -2.560  -1.317  25.219  0.00  0.00    +0.012 C 
ATOM      5  C   UNL     1      -2.799  -1.919  24.707  0.00  0.00    +0.019 C 
ATOM      6  C   UNL     1      -2.237  -2.327  24.261  0.00  0.00    +0.089 C 
ATOM      7  N   UNL     1      -1.438  -2.133  24.327  0.00  0.00    -0.218 NA
ATOM      8  C   UNL     1      -1.200  -1.532  24.839  0.00  0.00    +0.089 C 
ATOM      9  C   UNL     1      -1.761  -1.123  25.285  0.00  0.00    +0.024 C 
ENDROOT
BRANCH   4   3
ATOM      3  C   UNL     1      -3.122  -0.910  25.665  0.00  0.00    +0.087 C 
BRANCH   3   2
ATOM      1  O   UNL     1      -4.308  -1.225  24.934  0.00  0.00    -0.273 OA
ATOM      2  C   UNL     1      -3.832  -0.672  25.318  0.00  0.00    +0.242 C 
ATOM     24  N   UNL     1      -4.065   0.118  25.355  0.00  0.00    -0.200 NA
BRANCH  24  25
ATOM     25  C   UNL     1      -4.774   0.356  25.008  0.00  0.00    +0.143 C 
BRANCH  25  26
ATOM     26  C   UNL     1      -5.000   1.150  25.031  0.00  0.00    +0.019 A 
ATOM     27  C   UNL     1      -4.649   1.693  24.518  0.00  0.00    +0.001 A 
ATOM     28  C   UNL     1      -4.874   2.485  24.541  0.00  0.00    +0.020 A 
ATOM     29  C   UNL     1      -5.450   2.736  25.076  0.00  0.00    +0.099 A 
ATOM     30  N   UNL     1      -5.801   2.193  25.589  0.00  0.00    -0.243 NA
ATOM     31  C   UNL     1      -5.575   1.399  25.566  0.00  0.00    +0.096 A 
ENDBRANCH  25  26
ENDBRANCH  24  25
ENDBRANCH   3   2
ENDBRANCH   4   3
BRANCH   9  10
ATOM     10  C   UNL     1      -1.524  -0.522  25.797  0.00  0.00    +0.051 C 
BRANCH  10  11
ATOM     11  C   UNL     1      -1.092   0.119  25.507  0.00  0.00    +0.100 A 
ATOM     12  N   UNL     1      -0.434   0.076  25.013  0.00  0.00    -0.082 NA
ATOM     13  O   UNL     1      -0.178   0.846  24.862  0.00  0.00    -0.354 OA
ATOM     14  C   UNL     1      -0.678   1.365  25.263  0.00  0.00    +0.198 A 
ATOM     23  C   UNL     1      -1.244   0.915  25.663  0.00  0.00    +0.057 A 
BRANCH  14  15
ATOM     15  C   UNL     1      -0.623   2.188  25.266  0.00  0.00    +0.272 C 
BRANCH  15  16
ATOM     16  O   UNL     1      -1.147   2.637  24.812  0.00  0.00    -0.467 OA
BRANCH  16  17
ATOM     17  C   UNL     1      -1.188   3.454  24.919  0.00  0.00    +0.139 A 
ATOM     18  C   UNL     1      -0.605   3.942  24.598  0.00  0.00    +0.037 A 
ATOM     19  C   UNL     1      -0.646   4.758  24.705  0.00  0.00    +0.003 A 
ATOM     20  C   UNL     1      -1.269   5.088  25.132  0.00  0.00    +0.000 A 
ATOM     21  C   UNL     1      -1.853   4.600  25.454  0.00  0.00    +0.003 A 
ATOM     22  C   UNL     1      -1.812   3.784  25.347  0.00  0.00    +0.037 A 
ENDBRANCH  16  17
ENDBRANCH  15  16
ENDBRANCH  14  15
ENDBRANCH  10  11
ENDBRANCH   9  10
TORSDOF 9
ENDMDL
MODEL 4
REMARK VINA RESULT:     -10.8      1.323      3.690
REMARK  Name = 
REMARK  9 active torsions:
REMARK  status: ('A' for Active; 'I' for Inactive)
REMARK    1  A    between atoms: C_2  and  C_3
REMARK    2  A    between atoms: C_3  and  C_4
REMARK    3  A    between atoms: C_9  and  C_10
REMARK    4  A    between atoms: C_10  and  C_11
REMARK    5  A    between atoms: C_14  and  C_15
REMARK    6  A    between atoms: C_15  and  O_16
REMARK    7  A    between atoms: O_16  and  C_17
REMARK    8  A    between atoms: N_24  and  C_25
REMARK    9  A    between atoms: C_25  and  C_26
REMARK                            x       y       z     vdW  Elec       q    Type
REMARK                         _______ _______ _______ _____ _____    ______ ____
ROOT
ATOM      4  C   UNL     1      -4.031   3.686  25.054  0.00  0.00    +0.012 C 
ATOM      5  C   UNL     1      -4.041   4.246  25.661  0.00  0.00    +0.019 C 
ATOM      6  C   UNL     1      -4.636   4.222  26.232  0.00  0.00    +0.089 C 
ATOM      7  N   UNL     1      -5.219   3.640  26.197  0.00  0.00    -0.218 NA
ATOM      8  C   UNL     1      -5.209   3.082  25.591  0.00  0.00    +0.089 C 
ATOM      9  C   UNL     1      -4.614   3.104  25.019  0.00  0.00    +0.024 C 
ENDROOT
BRANCH   4   3
ATOM      3  C   UNL     1      -3.436   3.710  24.482  0.00  0.00    +0.087 C 
BRANCH   3   2
ATOM      1  O   UNL     1      -2.532   4.750  24.859  0.00  0.00    -0.273 OA
ATOM      2  C   UNL     1      -2.676   3.956  24.687  0.00  0.00    +0.242 C 
ATOM     24  N   UNL     1      -2.061   3.409  24.720  0.00  0.00    -0.200 NA
BRANCH  24  25
ATOM     25  C   UNL     1      -1.300   3.655  24.925  0.00  0.00    +0.143 C 
BRANCH  25  26
ATOM     26  C   UNL     1      -0.705   3.096  25.048  0.00  0.00    +0.019 A 
ATOM     27  C   UNL     1      -0.467   2.908  25.815  0.00  0.00    +0.001 A 
ATOM     28  C   UNL     1       0.128   2.351  25.937  0.00  0.00    +0.020 A 
ATOM     29  C   UNL     1       0.486   1.980  25.293  0.00  0.00    +0.099 A 
ATOM     30  N   UNL     1       0.248   2.168  24.525  0.00  0.00    -0.243 NA
ATOM     31  C   UNL     1      -0.348   2.726  24.403  0.00  0.00    +0.096 A 
ENDBRANCH  25  26
ENDBRANCH  24  25
ENDBRANCH   3   2
ENDBRANCH   4   3
BRANCH   9  10
ATOM     10  C   UNL     1      -4.603   2.546  24.412  0.00  0.00    +0.051 C 
BRANCH  10  11
ATOM     11  C   UNL     1      -4.802   1.761  24.571  0.00  0.00    +0.100 A 
ATOM     12  N   UNL     1      -5.564   1.468  24.690  0.00  0.00    -0.082 NA
ATOM     13  O   UNL     1      -5.506   0.657  24.831  0.00  0.00    -0.354 OA
ATOM     14  C   UNL     1      -4.708   0.448  24.799  0.00  0.00    +0.198 A 
ATOM     23  C   UNL     1      -4.273   1.131  24.638  0.00  0.00    +0.057 A 
BRANCH  14  15
ATOM     15  C   UNL     1      -4.400  -0.309  24.909  0.00  0.00    +0.272 C 
BRANCH  15  16
ATOM     16  O   UNL     1      -4.088  -0.723  24.267  0.00  0.00    -0.467 OA
BRANCH  16  17
ATOM     17  C   UNL     1      -3.865  -1.512  24.355  0.00  0.00    +0.139 A 
ATOM     18  C   UNL     1      -3.305  -1.722  24.924  0.00  0.00    +0.037 A 
ATOM     19  C   UNL     1      -3.082  -2.511  25.012  0.00  0.00    +0.003 A 
ATOM     20  C   UNL     1      -3.419  -3.091  24.533  0.00  0.00    +0.000 A 
ATOM     21  C   UNL     1      -3.979  -2.882  23.964  0.00  0.00    +0.003 A 
ATOM     22  C   UNL     1      -4.202  -2.093  23.875  0.00  0.00    +0.037 A 
ENDBRANCH  16  17
ENDBRANCH  15  16
ENDBRANCH  14  15
ENDBRANCH  10  11
ENDBRANCH   9  10
TORSDOF 9
ENDMDL
MODEL 5
REMARK VINA RESULT:     -10.4      1.421      4.209
REMARK  Name = 
REMARK  9 active torsions:
REMARK  status: ('A' for Active; 'I' for Inactive)
REMARK    1  A    between atoms: C_2  and  C_3
REMARK    2  A    between atoms: C_3  and  C_4
REMARK    3  A    between atoms: C_9  and  C_10
REMARK    4  A    between atoms: C_10  and  C_11
REMARK    5  A    between atoms: C_14  and  C_15
REMARK    6  A    between atoms: C_15  and  O_16
REMARK    7  A    between atoms: O_16  and  C_17
REMARK    8  A    between atoms: N_24  and  C_25
REMARK    9  A    between atoms: C_25  and  C_26
REMARK                            x       y       z     vdW  Elec       q    Type
REMARK                         _______ _______ _______ _____ _____    ______ ____
ROOT
ATOM      4  C   UNL     1      -0.437   0.385  24.824  0.00  0.00    +0.012 C 
ATOM      5  C   UNL     1      -0.154  -0.034  24.172  0.00  0.00    +0.019 C 
ATOM      6  C   UNL     1       0.266   0.359  23.581  0.00  0.00    +0.089 C 
ATOM      7  N   UNL     1       0.404   1.170  23.642  0.00  0.00    -0.218 NA
ATOM      8  C   UNL     1       0.121   1.588  24.293  0.00  0.00    +0.089 C 
ATOM      9  C   UNL     1      -0.299   1.196  24.885  0.00  0.00    +0.024 C 
ENDROOT
BRANCH   4   3
ATOM      3  C   UNL     1      -0.857  -0.009  25.415  0.00  0.00    +0.087 C 
BRANCH   3   2
ATOM      1  O   UNL     1      -0.581  -1.409  25.350  0.00  0.00    -0.273 OA
ATOM      2  C   UNL     1      -1.115  -0.782  25.293  0.00  0.00    +0.242 C 
ATOM     24  N   UNL     1      -1.907  -0.929  25.115  0.00  0.00    -0.200 NA
BRANCH  24  25
ATOM     25  C   UNL     1      -2.165  -1.703  24.993  0.00  0.00    +0.143 C 
BRANCH  25  26
ATOM     26  C   UNL     1      -2.905  -1.843  24.654  0.00  0.00    +0.019 A 
ATOM     27  C   UNL     1      -3.471  -1.242  24.636  0.00  0.00    +0.001 A 
ATOM     28  C   UNL     1      -4.209  -1.382  24.298  0.00  0.00    +0.020 A 
ATOM     29  C   UNL     1      -4.384  -2.122  23.978  0.00  0.00    +0.099 A 
ATOM     30  N   UNL     1      -3.819  -2.723  23.997  0.00  0.00    -0.243 NA
ATOM     31  C   UNL     1      -3.079  -2.583  24.335  0.00  0.00    +0.096 A 
ENDBRANCH  25  26
ENDBRANCH  24  25
ENDBRANCH   3   2
ENDBRANCH   4   3
BRANCH   9  10
ATOM     10  C   UNL     1      -0.582   1.614  25.537  0.00  0.00    +0.051 C 
BRANCH  10  11
ATOM     11  C   UNL     1      -1.071   2.269  25.427  0.00  0.00    +0.100 A 
ATOM     12  N   UNL     1      -0.826   3.026  25.210  0.00  0.00    -0.082 NA
ATOM     13  O   UNL     1      -1.495   3.507  25.163  0.00  0.00    -0.354 OA
ATOM     14  C   UNL     1      -2.153   3.047  25.350  0.00  0.00    +0.198 A 
ATOM     23  C   UNL     1      -1.892   2.281  25.513  0.00  0.00    +0.057 A 
BRANCH  14  15
ATOM     15  C   UNL     1      -2.936   3.306  25.370  0.00  0.00    +0.272 C 
BRANCH  15  16
ATOM     16  O   UNL     1      -3.467   3.062  24.787  0.00  0.00    -0.467 OA
BRANCH  16  17
ATOM     17  C   UNL     1      -4.266   2.970  24.969  0.00  0.00    +0.139 A 
ATOM     18  C   UNL     1      -4.660   3.553  25.400  0.00  0.00    +0.037 A 
ATOM     19  C   UNL     1      -5.459   3.461  25.583  0.00  0.00    +0.003 A 
ATOM     20  C   UNL     1      -5.865   2.788  25.334  0.00  0.00    +0.000 A 
ATOM     21  C   UNL     1      -5.471   2.205  24.903  0.00  0.00    +0.003 A 
ATOM     22  C   UNL     1      -4.672   2.296  24.720  0.00  0.00    +0.037 A 
ENDBRANCH  16  17
ENDBRANCH  15  16
ENDBRANCH  14  15
ENDBRANCH  10  11
ENDBRANCH   9  10
TORSDOF 9
ENDMDL
