MODEL 1
REMARK VINA RESULT:      -9.6      0.000      0.000
REMARK  Name = 
REMARK  6 active torsions:
REMARK  status: ('A' for Active; 'I' for Inactive)
REMARK    1  A    between atoms: C_5  and  S_8
REMARK    2  A    between atoms: S_8  and  N_11
REMARK    3  A    between atoms: N_11  and  C_12
REMARK    4  A    between atoms: C_12  and  C_13
REMARK    5  A    between atoms: C_16  and  N_17
REMARK    6  A    between atoms: N_17  and  C_18
REMARK                            x       y       z     vdW  Elec       q    Type
REMARK                         _______ _______ _______ _____ _____    ______ ____
ROOT
ATOM     13  C   UNL     1      -2.663   0.818  24.956  0.00  0.00    +0.166 C 
ATOM     14  O   UNL     1      -2.103   0.214  24.994  0.00  0.00    -0.350 OA
ATOM     15  C   UNL     1      -2.504  -0.502  25.078  0.00  0.00    +0.162 C 
ATOM     16  C   UNL     1      -3.313  -0.341  25.092  0.00  0.00    +0.135 C 
ATOM     24  C   UNL     1      -3.411   0.475  25.017  0.00  0.00    +0.199 C 
ATOM     25  O   UNL     1      -4.131   0.878  25.005  0.00  0.00    -0.219 OA
ENDROOT
BRANCH  13  12
ATOM     12  C   UNL     1      -2.503   1.623  24.873  0.00  0.00    +0.148 C 
BRANCH  12  11
ATOM     11  N   UNL     1      -1.760   1.918  25.072  0.00  0.00    -0.075 NA
BRANCH  11   8
ATOM      8  S   UNL     1      -1.619   2.731  25.048  0.00  0.00    +0.077 S 
ATOM      9  O   UNL     1      -1.517   2.738  25.867  0.00  0.00    -0.152 OA
ATOM     10  O   UNL     1      -1.721   2.724  24.229  0.00  0.00    -0.152 OA
BRANCH   8   5
ATOM      1  C   UNL     1      -1.057   5.981  24.951  0.00  0.00    +0.031 C 
ATOM      2  C   UNL     1      -1.197   5.169  24.975  0.00  0.00    -0.022 A 
ATOM      3  C   UNL     1      -0.621   4.643  24.707  0.00  0.00    -0.003 A 
ATOM      4  C   UNL     1      -0.761   3.830  24.731  0.00  0.00    +0.020 A 
ATOM      5  C   UNL     1      -1.479   3.544  25.024  0.00  0.00    +0.124 A 
ATOM      6  C   UNL     1      -2.054   4.071  25.291  0.00  0.00    +0.020 A 
ATOM      7  C   UNL     1      -1.913   4.883  25.267  0.00  0.00    -0.003 A 
ENDBRANCH   8   5
ENDBRANCH  11   8
ENDBRANCH  12  11
ENDBRANCH  13  12
BRANCH  16  17
ATOM     17  N   UNL     1      -3.918  -0.896  25.168  0.00  0.00    -0.216 NA
BRANCH  17  18
ATOM     18  C   UNL     1      -3.862  -1.623  24.782  0.00  0.00    +0.076 C 
ATOM     19  C   UNL     1      -4.197  -1.720  24.034  0.00  0.00    +0.036 C 
ATOM     20  C   UNL     1      -4.141  -2.447  23.647  0.00  0.00    +0.090 C 
ATOM     21  N   UNL     1      -3.749  -3.076  24.009  0.00  0.00    -0.218 NA
ATOM     22  C   UNL     1      -3.413  -2.979  24.756  0.00  0.00    +0.090 C 
ATOM     23  C   UNL     1      -3.470  -2.253  25.142  0.00  0.00    +0.036 C 
ENDBRANCH  17  18
ENDBRANCH  16  17
TORSDOF 6
ENDMDL
MODEL 2
REMARK VINA RESULT:      -9.5      1.370      5.846
REMARK  Name = 
REMARK  6 active torsions:
REMARK  status: ('A' for Active; 'I' for Inactive)
REMARK    1  A    between atoms: C_5  and  S_8
REMARK    2  A    between atoms: S_8  and  N_11
REMARK    3  A    between atoms: N_11  and  C_12
REMARK    4  A    between atoms: C_12  and  C_13
REMARK    5  A    between atoms: C_16  and  N_17
REMARK    6  A    between atoms: N_17  and  C_18
REMARK                            x       y       z     vdW  Elec       q    Type
REMARK                         _______ _______ _______ _____ _____    ______ ____
ROOT
ATOM     13  C   UNL     1      -2.648   1.740  24.899  0.00  0.00    +0.166 C 
ATOM     14  O   UNL     1      -3.165   2.352  24.703  0.00  0.00    -0.350 OA
ATOM     15  C   UNL     1      -2.863   3.053  25.019  0.00  0.00    +0.162 C 
ATOM     16  C   UNL     1      -2.158   2.873  25.409  0.00  0.00    +0.135 C 
ATOM     24  C   UNL     1      -2.025   2.062  25.335  0.00  0.00    +0.199 C 
ATOM     25  O   UNL     1      -1.383   1.646  25.642  0.00  0.00    -0.219 OA
ENDROOT
BRANCH  13  12
ATOM     12  C   UNL     1      -2.737   0.946  24.694  0.00  0.00    +0.148 C 
BRANCH  12  11
ATOM     11  N   UNL     1      -3.488   0.607  24.675  0.00  0.00    -0.075 NA
BRANCH  11   8
ATOM      8  S   UNL     1      -3.570  -0.209  24.582  0.00  0.00    +0.077 S 
ATOM      9  O   UNL     1      -3.222  -0.159  23.835  0.00  0.00    -0.152 OA
ATOM     10  O   UNL     1      -3.918  -0.259  25.328  0.00  0.00    -0.152 OA
BRANCH   8   5
ATOM      1  C   UNL     1      -3.898  -3.471  24.211  0.00  0.00    +0.031 C 
ATOM      2  C   UNL     1      -3.816  -2.656  24.304  0.00  0.00    -0.022 A 
ATOM      3  C   UNL     1      -3.308  -2.356  24.881  0.00  0.00    -0.003 A 
ATOM      4  C   UNL     1      -3.226  -1.540  24.974  0.00  0.00    +0.020 A 
ATOM      5  C   UNL     1      -3.652  -1.024  24.489  0.00  0.00    +0.124 A 
ATOM      6  C   UNL     1      -4.159  -1.326  23.913  0.00  0.00    +0.020 A 
ATOM      7  C   UNL     1      -4.241  -2.141  23.820  0.00  0.00    -0.003 A 
ENDBRANCH   8   5
ENDBRANCH  11   8
ENDBRANCH  12  11
ENDBRANCH  13  12
BRANCH  16  17
ATOM     17  N   UNL     1      -1.673   3.410  25.804  0.00  0.00    -0.216 NA
BRANCH  17  18
ATOM     18  C   UNL     1      -1.439   4.107  25.431  0.00  0.00    +0.076 C 
ATOM     19  C   UNL     1      -0.751   4.121  24.975  0.00  0.00    +0.036 C 
ATOM     20  C   UNL     1      -0.517   4.819  24.602  0.00  0.00    +0.090 C 
ATOM     21  N   UNL     1      -0.972   5.503  24.684  0.00  0.00    -0.218 NA
ATOM     22  C   UNL     1      -1.660   5.489  25.139  0.00  0.00    +0.090 C 
ATOM     23  C   UNL     1      -1.893   4.791  25.512  0.00  0.00    +0.036 C 
ENDBRANCH  17  18
ENDBRANCH  16  17
TORSDOF 6
ENDMDL
