MODEL 1
REMARK VINA RESULT:     -14.0      0.000      0.000
REMARK  Name = 
REMARK  4 active torsions:
REMARK  status: ('A' for Active; 'I' for Inactive)
REMARK    1  A    between atoms: O_2  and  C_3
REMARK    2  A    between atoms: C_6  and  S_9
REMARK    3  A    between atoms: S_9  and  N_12
REMARK    4  A    between atoms: C_21  and  C_26
REMARK                            x       y       z     vdW  Elec       q    Type
REMARK                         _______ _______ _______ _____ _____    ______ ____
ROOT
ATOM     12  N   UNL     1      -4.566   1.405  24.703  0.00  0.00    -0.155 NA
ATOM     13  C   UNL     1      -5.132   2.018  24.654  0.00  0.00    +0.098 C 
ATOM     14  C   UNL     1      -4.535   2.801  24.741  0.00  0.00    +0.041 C 
ATOM     15  C   UNL     1      -4.188   3.536  24.798  0.00  0.00    +0.011 C 
ATOM     16  C   UNL     1      -3.985   2.864  24.804  0.00  0.00    +0.056 C 
ATOM     17  C   UNL     1      -4.574   2.117  24.719  0.00  0.00    +0.102 C 
ATOM     18  C   UNL     1      -3.234   2.338  24.876  0.00  0.00    +0.041 A 
ATOM     19  C   UNL     1      -2.417   2.398  24.970  0.00  0.00    +0.013 A 
ATOM     20  C   UNL     1      -1.955   1.716  25.006  0.00  0.00    +0.006 A 
ATOM     21  C   UNL     1      -2.310   0.974  24.947  0.00  0.00    +0.058 A 
ATOM     22  C   UNL     1      -3.127   0.913  24.853  0.00  0.00    +0.261 A 
ATOM     23  O   UNL     1      -3.483   0.171  24.795  0.00  0.00    -0.267 OA
ATOM     24  N   UNL     1      -3.590   1.596  24.818  0.00  0.00    -0.299 N 
ATOM     25  C   UNL     1      -3.757   2.244  24.815  0.00  0.00    +0.110 C 
ENDROOT
BRANCH  21  26
ATOM     26  C   UNL     1      -1.848   0.292  24.983  0.00  0.00    +0.024 A 
ATOM     27  C   UNL     1      -1.687  -0.059  25.712  0.00  0.00    +0.003 A 
ATOM     28  C   UNL     1      -1.224  -0.741  25.749  0.00  0.00    +0.021 A 
ATOM     29  C   UNL     1      -0.922  -1.072  25.056  0.00  0.00    +0.099 A 
ATOM     30  N   UNL     1      -1.082  -0.721  24.327  0.00  0.00    -0.242 NA
ATOM     31  C   UNL     1      -1.546  -0.039  24.290  0.00  0.00    +0.099 A 
ENDBRANCH  21  26
BRANCH  12   9
ATOM      9  S   UNL     1      -4.261   0.638  24.718  0.00  0.00    +0.063 S 
ATOM     10  O   UNL     1      -4.391   0.603  25.533  0.00  0.00    -0.153 OA
ATOM     11  O   UNL     1      -4.131   0.673  23.904  0.00  0.00    -0.153 OA
BRANCH   9   6
ATOM      3  C   UNL     1      -3.348  -1.662  24.765  0.00  0.00    +0.139 A 
ATOM      4  C   UNL     1      -3.433  -1.266  24.046  0.00  0.00    +0.038 A 
ATOM      5  C   UNL     1      -3.737  -0.499  24.031  0.00  0.00    +0.023 A 
ATOM      6  C   UNL     1      -3.956  -0.129  24.734  0.00  0.00    +0.122 A 
ATOM      7  C   UNL     1      -3.871  -0.524  25.453  0.00  0.00    +0.023 A 
ATOM      8  C   UNL     1      -3.567  -1.291  25.468  0.00  0.00    +0.038 A 
BRANCH   3   2
ATOM      1  C   UNL     1      -3.535  -3.071  24.621  0.00  0.00    +0.252 C 
ATOM      2  O   UNL     1      -3.043  -2.428  24.781  0.00  0.00    -0.471 OA
ENDBRANCH   3   2
ENDBRANCH   9   6
ENDBRANCH  12   9
TORSDOF 4
ENDMDL
MODEL 2
REMARK VINA RESULT:     -14.0      1.273      3.395
REMARK  Name = 
REMARK  4 active torsions:
REMARK  status: ('A' for Active; 'I' for Inactive)
REMARK    1  A    between atoms: O_2  and  C_3
REMARK    2  A    between atoms: C_6  and  S_9
REMARK    3  A    between atoms: S_9  and  N_12
REMARK    4  A    between atoms: C_21  and  C_26
REMARK                            x       y       z     vdW  Elec       q    Type
REMARK                         _______ _______ _______ _____ _____    ______ ____
ROOT
ATOM     12  N   UNL     1      -3.969  -0.917  24.205  0.00  0.00    -0.155 NA
ATOM     13  C   UNL     1      -4.475  -1.575  24.110  0.00  0.00    +0.098 C 
ATOM     14  C   UNL     1      -3.837  -2.304  24.305  0.00  0.00    +0.041 C 
ATOM     15  C   UNL     1      -3.445  -3.005  24.437  0.00  0.00    +0.011 C 
ATOM     16  C   UNL     1      -3.297  -2.319  24.441  0.00  0.00    +0.056 C 
ATOM     17  C   UNL     1      -3.925  -1.626  24.250  0.00  0.00    +0.102 C 
ATOM     18  C   UNL     1      -2.605  -1.733  24.586  0.00  0.00    +0.041 A 
ATOM     19  C   UNL     1      -1.805  -1.723  24.786  0.00  0.00    +0.013 A 
ATOM     20  C   UNL     1      -1.405  -1.005  24.852  0.00  0.00    +0.006 A 
ATOM     21  C   UNL     1      -1.805  -0.296  24.718  0.00  0.00    +0.058 A 
ATOM     22  C   UNL     1      -2.605  -0.305  24.518  0.00  0.00    +0.261 A 
ATOM     23  O   UNL     1      -3.005   0.404  24.383  0.00  0.00    -0.267 OA
ATOM     24  N   UNL     1      -3.005  -1.024  24.452  0.00  0.00    -0.299 N 
ATOM     25  C   UNL     1      -3.120  -1.683  24.455  0.00  0.00    +0.110 C 
ENDROOT
BRANCH  21  26
ATOM     26  C   UNL     1      -1.404   0.422  24.783  0.00  0.00    +0.024 A 
ATOM     27  C   UNL     1      -1.353   0.799  25.516  0.00  0.00    +0.003 A 
ATOM     28  C   UNL     1      -0.952   1.517  25.582  0.00  0.00    +0.021 A 
ATOM     29  C   UNL     1      -0.604   1.858  24.917  0.00  0.00    +0.099 A 
ATOM     30  N   UNL     1      -0.655   1.482  24.185  0.00  0.00    -0.242 NA
ATOM     31  C   UNL     1      -1.056   0.763  24.118  0.00  0.00    +0.099 A 
ENDBRANCH  21  26
BRANCH  12   9
ATOM      9  S   UNL     1      -3.729  -0.127  24.228  0.00  0.00    +0.063 S 
ATOM     10  O   UNL     1      -3.532  -0.165  23.427  0.00  0.00    -0.153 OA
ATOM     11  O   UNL     1      -3.927  -0.090  25.028  0.00  0.00    -0.153 OA
BRANCH   9   6
ATOM      3  C   UNL     1      -3.008   2.239  24.295  0.00  0.00    +0.139 A 
ATOM      4  C   UNL     1      -3.303   1.879  24.975  0.00  0.00    +0.038 A 
ATOM      5  C   UNL     1      -3.544   1.089  24.953  0.00  0.00    +0.023 A 
ATOM      6  C   UNL     1      -3.489   0.662  24.250  0.00  0.00    +0.122 A 
ATOM      7  C   UNL     1      -3.194   1.022  23.569  0.00  0.00    +0.023 A 
ATOM      8  C   UNL     1      -2.953   1.812  23.592  0.00  0.00    +0.038 A 
BRANCH   3   2
ATOM      1  C   UNL     1      -3.330   3.631  24.283  0.00  0.00    +0.252 C 
ATOM      2  O   UNL     1      -2.768   3.029  24.317  0.00  0.00    -0.471 OA
ENDBRANCH   3   2
ENDBRANCH   9   6
ENDBRANCH  12   9
TORSDOF 4
ENDMDL
MODEL 3
REMARK VINA RESULT:     -13.9      1.384      3.885
REMARK  Name = 
REMARK  4 active torsions:
REMARK  status: ('A' for Active; 'I' for Inactive)
REMARK    1  A    between atoms: O_2  and  C_3
REMARK    2  A    between atoms: C_6  and  S_9
REMARK    3  A    between atoms: S_9  and  N_12
REMARK    4  A    between atoms: C_21  and  C_26
REMARK                            x       y       z     vdW  Elec       q    Type
REMARK                         _______ _______ _______ _____ _____    ______ ____
ROOT
ATOM     12  N   UNL     1      -2.070  -1.584  24.811  0.00  0.00    -0.155 NA
ATOM     13  C   UNL     1      -2.062  -2.416  24.887  0.00  0.00    +0.098 C 
ATOM     14  C   UNL     1      -2.997  -2.614  24.638  0.00  0.00    +0.041 C 
ATOM     15  C   UNL     1      -3.723  -2.939  24.460  0.00  0.00    +0.011 C 
ATOM     16  C   UNL     1      -3.433  -2.301  24.486  0.00  0.00    +0.056 C 
ATOM     17  C   UNL     1      -2.526  -2.125  24.729  0.00  0.00    +0.102 C 
ATOM     18  C   UNL     1      -3.630  -1.414  24.352  0.00  0.00    +0.041 A 
ATOM     19  C   UNL     1      -4.255  -0.923  24.130  0.00  0.00    +0.013 A 
ATOM     20  C   UNL     1      -4.144  -0.107  24.090  0.00  0.00    +0.006 A 
ATOM     21  C   UNL     1      -3.408   0.219  24.270  0.00  0.00    +0.058 A 
ATOM     22  C   UNL     1      -2.783  -0.271  24.492  0.00  0.00    +0.261 A 
ATOM     23  O   UNL     1      -2.047   0.055  24.673  0.00  0.00    -0.267 OA
ATOM     24  N   UNL     1      -2.894  -1.088  24.532  0.00  0.00    -0.299 N 
ATOM     25  C   UNL     1      -3.194  -1.685  24.500  0.00  0.00    +0.110 C 
ENDROOT
BRANCH  21  26
ATOM     26  C   UNL     1      -3.298   1.035  24.230  0.00  0.00    +0.024 A 
ATOM     27  C   UNL     1      -3.064   1.385  23.520  0.00  0.00    +0.003 A 
ATOM     28  C   UNL     1      -2.953   2.201  23.478  0.00  0.00    +0.021 A 
ATOM     29  C   UNL     1      -3.077   2.668  24.146  0.00  0.00    +0.099 A 
ATOM     30  N   UNL     1      -3.312   2.320  24.856  0.00  0.00    -0.242 NA
ATOM     31  C   UNL     1      -3.422   1.503  24.898  0.00  0.00    +0.099 A 
ENDBRANCH  21  26
BRANCH  12   9
ATOM      9  S   UNL     1      -1.792  -0.807  24.822  0.00  0.00    +0.063 S 
ATOM     10  O   UNL     1      -2.031  -0.732  25.608  0.00  0.00    -0.153 OA
ATOM     11  O   UNL     1      -1.552  -0.882  24.035  0.00  0.00    -0.153 OA
BRANCH   9   6
ATOM      3  C   UNL     1      -0.956   1.522  24.854  0.00  0.00    +0.139 A 
ATOM      4  C   UNL     1      -1.289   1.194  25.533  0.00  0.00    +0.038 A 
ATOM      5  C   UNL     1      -1.567   0.418  25.523  0.00  0.00    +0.023 A 
ATOM      6  C   UNL     1      -1.513  -0.030  24.832  0.00  0.00    +0.122 A 
ATOM      7  C   UNL     1      -1.180   0.298  24.153  0.00  0.00    +0.023 A 
ATOM      8  C   UNL     1      -0.901   1.075  24.163  0.00  0.00    +0.038 A 
BRANCH   3   2
ATOM      1  C   UNL     1       0.097   2.456  25.101  0.00  0.00    +0.252 C 
ATOM      2  O   UNL     1      -0.677   2.299  24.865  0.00  0.00    -0.471 OA
ENDBRANCH   3   2
ENDBRANCH   9   6
ENDBRANCH  12   9
TORSDOF 4
ENDMDL
MODEL 4
REMARK VINA RESULT:     -13.9      1.079      2.215
REMARK  Name = 
REMARK  4 active torsions:
REMARK  status: ('A' for Active; 'I' for Inactive)
REMARK    1  A    between atoms: O_2  and  C_3
REMARK    2  A    between atoms: C_6  and  S_9
REMARK    3  A    between atoms: S_9  and  N_12
REMARK    4  A    between atoms: C_21  and  C_26
REMARK                            x       y       z     vdW  Elec       q    Type
REMARK                         _______ _______ _______ _____ _____    ______ ____
ROOT
ATOM     12  N   UNL     1      -3.153   2.595  24.783  0.00  0.00    -0.155 NA
ATOM     13  C   UNL     1      -3.277   3.421  24.803  0.00  0.00    +0.098 C 
ATOM     14  C   UNL     1      -4.250   3.439  24.975  0.00  0.00    +0.041 C 
ATOM     15  C   UNL     1      -5.032   3.622  25.112  0.00  0.00    +0.011 C 
ATOM     16  C   UNL     1      -4.638   3.045  25.044  0.00  0.00    +0.056 C 
ATOM     17  C   UNL     1      -3.698   3.045  24.878  0.00  0.00    +0.102 C 
ATOM     18  C   UNL     1      -4.696   2.128  25.057  0.00  0.00    +0.041 A 
ATOM     19  C   UNL     1      -5.247   1.522  25.156  0.00  0.00    +0.013 A 
ATOM     20  C   UNL     1      -5.005   0.734  25.116  0.00  0.00    +0.006 A 
ATOM     21  C   UNL     1      -4.213   0.552  24.976  0.00  0.00    +0.058 A 
ATOM     22  C   UNL     1      -3.662   1.158  24.877  0.00  0.00    +0.261 A 
ATOM     23  O   UNL     1      -2.869   0.976  24.737  0.00  0.00    -0.267 OA
ATOM     24  N   UNL     1      -3.903   1.946  24.917  0.00  0.00    -0.299 N 
ATOM     25  C   UNL     1      -4.300   2.480  24.986  0.00  0.00    +0.110 C 
ENDROOT
BRANCH  21  26
ATOM     26  C   UNL     1      -3.972  -0.235  24.936  0.00  0.00    +0.024 A 
ATOM     27  C   UNL     1      -4.001  -0.639  24.217  0.00  0.00    +0.003 A 
ATOM     28  C   UNL     1      -3.760  -1.427  24.175  0.00  0.00    +0.021 A 
ATOM     29  C   UNL     1      -3.491  -1.811  24.853  0.00  0.00    +0.099 A 
ATOM     30  N   UNL     1      -3.462  -1.409  25.573  0.00  0.00    -0.242 NA
ATOM     31  C   UNL     1      -3.703  -0.620  25.614  0.00  0.00    +0.099 A 
ENDBRANCH  21  26
BRANCH  12   9
ATOM      9  S   UNL     1      -2.749   1.879  24.714  0.00  0.00    +0.063 S 
ATOM     10  O   UNL     1      -2.598   1.886  25.525  0.00  0.00    -0.153 OA
ATOM     11  O   UNL     1      -2.900   1.873  23.902  0.00  0.00    -0.153 OA
BRANCH   9   6
ATOM      3  C   UNL     1      -1.537  -0.269  24.506  0.00  0.00    +0.139 A 
ATOM      4  C   UNL     1      -1.613   0.092  25.244  0.00  0.00    +0.038 A 
ATOM      5  C   UNL     1      -2.017   0.808  25.313  0.00  0.00    +0.023 A 
ATOM      6  C   UNL     1      -2.345   1.163  24.644  0.00  0.00    +0.122 A 
ATOM      7  C   UNL     1      -2.269   0.802  23.907  0.00  0.00    +0.023 A 
ATOM      8  C   UNL     1      -1.865   0.086  23.837  0.00  0.00    +0.038 A 
BRANCH   3   2
ATOM      1  C   UNL     1      -0.317  -0.988  24.318  0.00  0.00    +0.252 C 
ATOM      2  O   UNL     1      -1.133  -0.985  24.437  0.00  0.00    -0.471 OA
ENDBRANCH   3   2
ENDBRANCH   9   6
ENDBRANCH  12   9
TORSDOF 4
ENDMDL
MODEL 5
REMARK VINA RESULT:     -13.5      1.901      2.658
REMARK  Name = 
REMARK  4 active torsions:
REMARK  status: ('A' for Active; 'I' for Inactive)
REMARK    1  A    between atoms: O_2  and  C_3
REMARK    2  A    between atoms: C_6  and  S_9
REMARK    3  A    between atoms: S_9  and  N_12
REMARK    4  A    between atoms: C_21  and  C_26
REMARK                            x       y       z     vdW  Elec       q    Type
REMARK                         _______ _______ _______ _____ _____    ______ ____
ROOT
ATOM     12  N   UNL     1      -4.218   1.929  24.660  0.00  0.00    -0.155 NA
ATOM     13  C   UNL     1      -5.052   1.876  24.647  0.00  0.00    +0.098 C 
ATOM     14  C   UNL     1      -5.277   2.696  25.150  0.00  0.00    +0.041 C 
ATOM     15  C   UNL     1      -5.624   3.322  25.538  0.00  0.00    +0.011 C 
ATOM     16  C   UNL     1      -4.976   3.100  25.388  0.00  0.00    +0.056 C 
ATOM     17  C   UNL     1      -4.774   2.304  24.900  0.00  0.00    +0.102 C 
ATOM     18  C   UNL     1      -4.092   3.324  25.503  0.00  0.00    +0.041 A 
ATOM     19  C   UNL     1      -3.618   3.907  25.844  0.00  0.00    +0.013 A 
ATOM     20  C   UNL     1      -2.797   3.853  25.792  0.00  0.00    +0.006 A 
ATOM     21  C   UNL     1      -2.449   3.217  25.398  0.00  0.00    +0.058 A 
ATOM     22  C   UNL     1      -2.923   2.635  25.056  0.00  0.00    +0.261 A 
ATOM     23  O   UNL     1      -2.575   1.998  24.662  0.00  0.00    -0.267 OA
ATOM     24  N   UNL     1      -3.744   2.688  25.109  0.00  0.00    -0.299 N 
ATOM     25  C   UNL     1      -4.351   2.922  25.265  0.00  0.00    +0.110 C 
ENDROOT
BRANCH  21  26
ATOM     26  C   UNL     1      -1.628   3.164  25.346  0.00  0.00    +0.024 A 
ATOM     27  C   UNL     1      -1.201   2.787  25.943  0.00  0.00    +0.003 A 
ATOM     28  C   UNL     1      -0.379   2.733  25.892  0.00  0.00    +0.021 A 
ATOM     29  C   UNL     1       0.016   3.057  25.244  0.00  0.00    +0.099 A 
ATOM     30  N   UNL     1      -0.411   3.434  24.647  0.00  0.00    -0.242 NA
ATOM     31  C   UNL     1      -1.233   3.488  24.698  0.00  0.00    +0.099 A 
ENDBRANCH  21  26
BRANCH  12   9
ATOM      9  S   UNL     1      -3.431   1.724  24.516  0.00  0.00    +0.063 S 
ATOM     10  O   UNL     1      -3.419   1.285  25.215  0.00  0.00    -0.153 OA
ATOM     11  O   UNL     1      -3.444   2.163  23.818  0.00  0.00    -0.153 OA
BRANCH   9   6
ATOM      3  C   UNL     1      -1.073   1.109  24.087  0.00  0.00    +0.139 A 
ATOM      4  C   UNL     1      -1.451   0.842  24.770  0.00  0.00    +0.038 A 
ATOM      5  C   UNL     1      -2.237   1.047  24.913  0.00  0.00    +0.023 A 
ATOM      6  C   UNL     1      -2.645   1.519  24.373  0.00  0.00    +0.122 A 
ATOM      7  C   UNL     1      -2.267   1.786  23.691  0.00  0.00    +0.023 A 
ATOM      8  C   UNL     1      -1.480   1.581  23.548  0.00  0.00    +0.038 A 
BRANCH   3   2
ATOM      1  C   UNL     1      -0.104   0.166  23.625  0.00  0.00    +0.252 C 
ATOM      2  O   UNL     1      -0.286   0.904  23.944  0.00  0.00    -0.471 OA
ENDBRANCH   3   2
ENDBRANCH   9   6
ENDBRANCH  12   9
TORSDOF 4
ENDMDL
