MODEL 1
REMARK VINA RESULT:     -11.8      0.000      0.000
REMARK  Name = 
REMARK  5 active torsions:
REMARK  status: ('A' for Active; 'I' for Inactive)
REMARK    1  A    between atoms: N_7  and  C_10
REMARK    2  A    between atoms: C_12  and  C_16
REMARK    3  A    between atoms: C_19  and  C_21
REMARK    4  A    between atoms: N_25  and  C_26
REMARK    5  A    between atoms: C_26  and  C_27
REMARK                            x       y       z     vdW  Elec       q    Type
REMARK                         _______ _______ _______ _____ _____    ______ ____
ROOT
ATOM     16  C   UNL     1      -3.973   2.806  24.671  0.00  0.00    +0.203 A 
ATOM     17  N   UNL     1      -4.116   3.392  24.107  0.00  0.00    -0.056 NA
ATOM     18  O   UNL     1      -3.476   3.912  24.113  0.00  0.00    -0.336 OA
ATOM     19  C   UNL     1      -2.938   3.648  24.681  0.00  0.00    +0.251 A 
ATOM     20  N   UNL     1      -3.245   2.965  25.025  0.00  0.00    -0.190 NA
ENDROOT
BRANCH  16  12
ATOM     10  C   UNL     1      -4.691   0.766  24.966  0.00  0.00    +0.132 A 
ATOM     11  C   UNL     1      -4.193   1.399  24.788  0.00  0.00    +0.037 A 
ATOM     12  C   UNL     1      -4.471   2.173  24.849  0.00  0.00    +0.043 A 
ATOM     13  C   UNL     1      -5.249   2.314  25.088  0.00  0.00    +0.024 A 
ATOM     14  C   UNL     1      -5.747   1.681  25.266  0.00  0.00    +0.100 A 
ATOM     15  N   UNL     1      -5.467   0.907  25.205  0.00  0.00    -0.229 NA
BRANCH  10   7
ATOM      1  C   UNL     1      -3.687  -2.754  24.020  0.00  0.00    +0.095 C 
ATOM      2  C   UNL     1      -3.574  -2.329  24.718  0.00  0.00    +0.226 C 
ATOM      3  O   UNL     1      -3.181  -2.679  25.355  0.00  0.00    -0.275 OA
ATOM      4  N   UNL     1      -3.853  -1.556  24.780  0.00  0.00    -0.276 N 
ATOM      5  C   UNL     1      -3.740  -1.131  25.479  0.00  0.00    +0.115 C 
ATOM      6  C   UNL     1      -4.019  -0.357  25.540  0.00  0.00    +0.114 C 
ATOM      7  N   UNL     1      -4.412  -0.008  24.905  0.00  0.00    -0.290 N 
ATOM      8  C   UNL     1      -4.525  -0.433  24.206  0.00  0.00    +0.114 C 
ATOM      9  C   UNL     1      -4.246  -1.206  24.144  0.00  0.00    +0.115 C 
ENDBRANCH  10   7
ENDBRANCH  16  12
BRANCH  19  21
ATOM     21  C   UNL     1      -2.219   4.006  24.870  0.00  0.00    +0.138 C 
ATOM     22  C   UNL     1      -2.123   4.726  25.260  0.00  0.00    +0.027 C 
ATOM     23  C   UNL     1      -1.315   4.871  25.333  0.00  0.00    +0.019 C 
ATOM     24  C   UNL     1      -0.910   4.240  24.988  0.00  0.00    +0.073 C 
ATOM     25  N   UNL     1      -1.469   3.706  24.702  0.00  0.00    -0.260 NA
BRANCH  25  26
ATOM     26  C   UNL     1      -1.307   2.994  24.315  0.00  0.00    +0.139 C 
BRANCH  26  27
ATOM     27  C   UNL     1      -0.600   2.596  24.464  0.00  0.00    +0.155 A 
ATOM     28  N   UNL     1       0.063   2.585  23.972  0.00  0.00    -0.226 NA
ATOM     29  C   UNL     1       0.641   2.121  24.335  0.00  0.00    +0.121 A 
ATOM     30  C   UNL     1       0.336   1.846  25.050  0.00  0.00    +0.121 A 
ATOM     31  N   UNL     1      -0.431   2.140  25.130  0.00  0.00    -0.226 NA
ENDBRANCH  26  27
ENDBRANCH  25  26
ENDBRANCH  19  21
TORSDOF 5
ENDMDL
MODEL 2
REMARK VINA RESULT:     -11.5      1.534      4.862
REMARK  Name = 
REMARK  5 active torsions:
REMARK  status: ('A' for Active; 'I' for Inactive)
REMARK    1  A    between atoms: N_7  and  C_10
REMARK    2  A    between atoms: C_12  and  C_16
REMARK    3  A    between atoms: C_19  and  C_21
REMARK    4  A    between atoms: N_25  and  C_26
REMARK    5  A    between atoms: C_26  and  C_27
REMARK                            x       y       z     vdW  Elec       q    Type
REMARK                         _______ _______ _______ _____ _____    ______ ____
ROOT
ATOM     16  C   UNL     1      -4.277   0.520  25.097  0.00  0.00    +0.203 A 
ATOM     17  N   UNL     1      -4.541   0.112  25.763  0.00  0.00    -0.056 NA
ATOM     18  O   UNL     1      -4.295  -0.672  25.696  0.00  0.00    -0.336 OA
ATOM     19  C   UNL     1      -3.879  -0.749  24.987  0.00  0.00    +0.251 A 
ATOM     20  N   UNL     1      -3.868  -0.012  24.617  0.00  0.00    -0.190 NA
ENDROOT
BRANCH  16  12
ATOM     10  C   UNL     1      -3.897   2.653  24.832  0.00  0.00    +0.132 A 
ATOM     11  C   UNL     1      -3.774   1.853  24.991  0.00  0.00    +0.037 A 
ATOM     12  C   UNL     1      -4.401   1.320  24.938  0.00  0.00    +0.043 A 
ATOM     13  C   UNL     1      -5.153   1.588  24.726  0.00  0.00    +0.024 A 
ATOM     14  C   UNL     1      -5.276   2.388  24.567  0.00  0.00    +0.100 A 
ATOM     15  N   UNL     1      -4.648   2.920  24.620  0.00  0.00    -0.229 NA
BRANCH  10   7
ATOM      1  C   UNL     1      -0.643   4.575  24.742  0.00  0.00    +0.095 C 
ATOM      2  C   UNL     1      -1.383   4.781  25.043  0.00  0.00    +0.226 C 
ATOM      3  O   UNL     1      -1.495   5.518  25.397  0.00  0.00    -0.275 OA
ATOM      4  N   UNL     1      -2.012   4.249  24.990  0.00  0.00    -0.276 N 
ATOM      5  C   UNL     1      -2.752   4.454  25.291  0.00  0.00    +0.115 C 
ATOM      6  C   UNL     1      -3.380   3.922  25.238  0.00  0.00    +0.114 C 
ATOM      7  N   UNL     1      -3.269   3.186  24.885  0.00  0.00    -0.290 N 
ATOM      8  C   UNL     1      -2.529   2.981  24.584  0.00  0.00    +0.114 C 
ATOM      9  C   UNL     1      -1.900   3.512  24.636  0.00  0.00    +0.115 C 
ENDBRANCH  10   7
ENDBRANCH  16  12
BRANCH  19  21
ATOM     21  C   UNL     1      -3.535  -1.442  24.699  0.00  0.00    +0.138 C 
ATOM     22  C   UNL     1      -3.915  -2.023  24.255  0.00  0.00    +0.027 C 
ATOM     23  C   UNL     1      -3.365  -2.615  24.087  0.00  0.00    +0.019 C 
ATOM     24  C   UNL     1      -2.645  -2.399  24.427  0.00  0.00    +0.073 C 
ATOM     25  N   UNL     1      -2.750  -1.674  24.806  0.00  0.00    -0.260 NA
BRANCH  25  26
ATOM     26  C   UNL     1      -2.172  -1.254  25.219  0.00  0.00    +0.139 C 
BRANCH  26  27
ATOM     27  C   UNL     1      -1.379  -1.330  25.009  0.00  0.00    +0.155 A 
ATOM     28  N   UNL     1      -0.838  -1.857  25.343  0.00  0.00    -0.226 NA
ATOM     29  C   UNL     1      -0.110  -1.746  24.969  0.00  0.00    +0.121 A 
ATOM     30  C   UNL     1      -0.202  -1.151  24.405  0.00  0.00    +0.121 A 
ATOM     31  N   UNL     1      -0.985  -0.894  24.430  0.00  0.00    -0.226 NA
ENDBRANCH  26  27
ENDBRANCH  25  26
ENDBRANCH  19  21
TORSDOF 5
ENDMDL
MODEL 3
REMARK VINA RESULT:     -11.4      1.608      3.409
REMARK  Name = 
REMARK  5 active torsions:
REMARK  status: ('A' for Active; 'I' for Inactive)
REMARK    1  A    between atoms: N_7  and  C_10
REMARK    2  A    between atoms: C_12  and  C_16
REMARK    3  A    between atoms: C_19  and  C_21
REMARK    4  A    between atoms: N_25  and  C_26
REMARK    5  A    between atoms: C_26  and  C_27
REMARK                            x       y       z     vdW  Elec       q    Type
REMARK                         _______ _______ _______ _____ _____    ______ ____
ROOT
ATOM     16  C   UNL     1      -0.402   1.878  24.985  0.00  0.00    +0.203 A 
ATOM     17  N   UNL     1      -0.044   2.091  25.696  0.00  0.00    -0.056 NA
ATOM     18  O   UNL     1      -0.274   2.862  25.876  0.00  0.00    -0.336 OA
ATOM     19  C   UNL     1      -0.775   3.126  25.276  0.00  0.00    +0.251 A 
ATOM     20  N   UNL     1      -0.855   2.517  24.725  0.00  0.00    -0.190 NA
ENDROOT
BRANCH  16  12
ATOM     10  C   UNL     1      -0.826  -0.151  24.299  0.00  0.00    +0.132 A 
ATOM     11  C   UNL     1      -0.905   0.574  24.684  0.00  0.00    +0.037 A 
ATOM     12  C   UNL     1      -0.323   1.152  24.600  0.00  0.00    +0.043 A 
ATOM     13  C   UNL     1       0.340   1.004  24.131  0.00  0.00    +0.024 A 
ATOM     14  C   UNL     1       0.419   0.279  23.746  0.00  0.00    +0.100 A 
ATOM     15  N   UNL     1      -0.164  -0.299  23.831  0.00  0.00    -0.229 NA
BRANCH  10   7
ATOM      1  C   UNL     1      -3.940  -2.292  24.421  0.00  0.00    +0.095 C 
ATOM      2  C   UNL     1      -3.161  -2.458  24.637  0.00  0.00    +0.226 C 
ATOM      3  O   UNL     1      -2.966  -3.202  24.938  0.00  0.00    -0.275 OA
ATOM      4  N   UNL     1      -2.577  -1.882  24.553  0.00  0.00    -0.276 N 
ATOM      5  C   UNL     1      -1.799  -2.048  24.769  0.00  0.00    +0.115 C 
ATOM      6  C   UNL     1      -1.215  -1.471  24.684  0.00  0.00    +0.114 C 
ATOM      7  N   UNL     1      -1.410  -0.728  24.384  0.00  0.00    -0.290 N 
ATOM      8  C   UNL     1      -2.188  -0.562  24.168  0.00  0.00    +0.114 C 
ATOM      9  C   UNL     1      -2.772  -1.138  24.252  0.00  0.00    +0.115 C 
ENDBRANCH  10   7
ENDBRANCH  16  12
BRANCH  19  21
ATOM     21  C   UNL     1      -1.134   3.868  25.235  0.00  0.00    +0.138 C 
ATOM     22  C   UNL     1      -0.772   4.569  24.995  0.00  0.00    +0.027 C 
ATOM     23  C   UNL     1      -1.332   5.173  25.038  0.00  0.00    +0.019 C 
ATOM     24  C   UNL     1      -2.041   4.844  25.305  0.00  0.00    +0.073 C 
ATOM     25  N   UNL     1      -1.918   4.038  25.426  0.00  0.00    -0.260 NA
BRANCH  25  26
ATOM     26  C   UNL     1      -2.482   3.496  25.692  0.00  0.00    +0.139 C 
BRANCH  26  27
ATOM     27  C   UNL     1      -3.280   3.617  25.526  0.00  0.00    +0.155 A 
ATOM     28  N   UNL     1      -3.846   3.908  26.052  0.00  0.00    -0.226 NA
ATOM     29  C   UNL     1      -4.570   3.940  25.656  0.00  0.00    +0.121 A 
ATOM     30  C   UNL     1      -4.451   3.669  24.886  0.00  0.00    +0.121 A 
ATOM     31  N   UNL     1      -3.655   3.469  24.806  0.00  0.00    -0.226 NA
ENDBRANCH  26  27
ENDBRANCH  25  26
ENDBRANCH  19  21
TORSDOF 5
ENDMDL
MODEL 4
REMARK VINA RESULT:     -11.1      1.998      4.417
REMARK  Name = 
REMARK  5 active torsions:
REMARK  status: ('A' for Active; 'I' for Inactive)
REMARK    1  A    between atoms: N_7  and  C_10
REMARK    2  A    between atoms: C_12  and  C_16
REMARK    3  A    between atoms: C_19  and  C_21
REMARK    4  A    between atoms: N_25  and  C_26
REMARK    5  A    between atoms: C_26  and  C_27
REMARK                            x       y       z     vdW  Elec       q    Type
REMARK                         _______ _______ _______ _____ _____    ______ ____
ROOT
ATOM     16  C   UNL     1      -0.539   2.609  24.897  0.00  0.00    +0.203 A 
ATOM     17  N   UNL     1       0.169   2.530  25.313  0.00  0.00    -0.056 NA
ATOM     18  O   UNL     1       0.554   1.857  25.035  0.00  0.00    -0.336 OA
ATOM     19  C   UNL     1       0.084   1.519  24.447  0.00  0.00    +0.251 A 
ATOM     20  N   UNL     1      -0.592   1.983  24.361  0.00  0.00    -0.190 NA
ENDROOT
BRANCH  16  12
ATOM     10  C   UNL     1      -2.453   3.617  25.194  0.00  0.00    +0.132 A 
ATOM     11  C   UNL     1      -1.895   3.018  25.092  0.00  0.00    +0.037 A 
ATOM     12  C   UNL     1      -1.098   3.208  24.998  0.00  0.00    +0.043 A 
ATOM     13  C   UNL     1      -0.859   3.998  25.006  0.00  0.00    +0.024 A 
ATOM     14  C   UNL     1      -1.417   4.597  25.107  0.00  0.00    +0.100 A 
ATOM     15  N   UNL     1      -2.214   4.406  25.201  0.00  0.00    -0.229 NA
BRANCH  10   7
ATOM      1  C   UNL     1      -5.997   2.307  25.058  0.00  0.00    +0.095 C 
ATOM      2  C   UNL     1      -5.641   2.850  25.567  0.00  0.00    +0.226 C 
ATOM      3  O   UNL     1      -6.082   3.202  26.170  0.00  0.00    -0.275 OA
ATOM      4  N   UNL     1      -4.844   3.042  25.474  0.00  0.00    -0.276 N 
ATOM      5  C   UNL     1      -4.488   3.585  25.983  0.00  0.00    +0.115 C 
ATOM      6  C   UNL     1      -3.691   3.777  25.890  0.00  0.00    +0.114 C 
ATOM      7  N   UNL     1      -3.250   3.426  25.288  0.00  0.00    -0.290 N 
ATOM      8  C   UNL     1      -3.606   2.883  24.779  0.00  0.00    +0.114 C 
ATOM      9  C   UNL     1      -4.403   2.691  24.871  0.00  0.00    +0.115 C 
ENDBRANCH  10   7
ENDBRANCH  16  12
BRANCH  19  21
ATOM     21  C   UNL     1       0.260   0.835  24.019  0.00  0.00    +0.138 C 
ATOM     22  C   UNL     1       0.762   0.787  23.367  0.00  0.00    +0.027 C 
ATOM     23  C   UNL     1       0.777   0.002  23.114  0.00  0.00    +0.019 C 
ATOM     24  C   UNL     1       0.283  -0.435  23.610  0.00  0.00    +0.073 C 
ATOM     25  N   UNL     1      -0.037   0.080  24.169  0.00  0.00    -0.260 NA
BRANCH  25  26
ATOM     26  C   UNL     1      -0.561  -0.125  24.773  0.00  0.00    +0.139 C 
BRANCH  26  27
ATOM     27  C   UNL     1      -0.862  -0.891  24.816  0.00  0.00    +0.155 A 
ATOM     28  N   UNL     1      -1.553  -1.161  24.454  0.00  0.00    -0.226 NA
ATOM     29  C   UNL     1      -1.644  -1.960  24.642  0.00  0.00    +0.121 A 
ATOM     30  C   UNL     1      -1.009  -2.182  25.119  0.00  0.00    +0.121 A 
ATOM     31  N   UNL     1      -0.526  -1.523  25.227  0.00  0.00    -0.226 NA
ENDBRANCH  26  27
ENDBRANCH  25  26
ENDBRANCH  19  21
TORSDOF 5
ENDMDL
MODEL 5
REMARK VINA RESULT:      -9.6      1.967      4.228
REMARK  Name = 
REMARK  5 active torsions:
REMARK  status: ('A' for Active; 'I' for Inactive)
REMARK    1  A    between atoms: N_7  and  C_10
REMARK    2  A    between atoms: C_12  and  C_16
REMARK    3  A    between atoms: C_19  and  C_21
REMARK    4  A    between atoms: N_25  and  C_26
REMARK    5  A    between atoms: C_26  and  C_27
REMARK                            x       y       z     vdW  Elec       q    Type
REMARK                         _______ _______ _______ _____ _____    ______ ____
ROOT
ATOM     16  C   UNL     1      -3.694  -0.181  24.812  0.00  0.00    +0.203 A 
ATOM     17  N   UNL     1      -4.337  -0.395  24.342  0.00  0.00    -0.056 NA
ATOM     18  O   UNL     1      -4.919   0.182  24.429  0.00  0.00    -0.336 OA
ATOM     19  C   UNL     1      -4.636   0.754  24.952  0.00  0.00    +0.251 A 
ATOM     20  N   UNL     1      -3.879   0.530  25.189  0.00  0.00    -0.190 NA
ENDROOT
BRANCH  16  12
ATOM     10  C   UNL     1      -1.588  -0.729  24.643  0.00  0.00    +0.132 A 
ATOM     11  C   UNL     1      -2.292  -0.307  24.564  0.00  0.00    +0.037 A 
ATOM     12  C   UNL     1      -2.989  -0.602  24.891  0.00  0.00    +0.043 A 
ATOM     13  C   UNL     1      -2.981  -1.321  25.298  0.00  0.00    +0.024 A 
ATOM     14  C   UNL     1      -2.277  -1.742  25.377  0.00  0.00    +0.100 A 
ATOM     15  N   UNL     1      -1.580  -1.446  25.049  0.00  0.00    -0.229 NA
BRANCH  10   7
ATOM      1  C   UNL     1       1.642  -0.011  22.813  0.00  0.00    +0.095 C 
ATOM      2  C   UNL     1       1.199   0.455  23.329  0.00  0.00    +0.226 C 
ATOM      3  O   UNL     1       1.452   1.219  23.517  0.00  0.00    -0.275 OA
ATOM      4  N   UNL     1       0.502   0.160  23.658  0.00  0.00    -0.276 N 
ATOM      5  C   UNL     1       0.059   0.627  24.174  0.00  0.00    +0.115 C 
ATOM      6  C   UNL     1      -0.638   0.330  24.502  0.00  0.00    +0.114 C 
ATOM      7  N   UNL     1      -0.891  -0.432  24.314  0.00  0.00    -0.290 N 
ATOM      8  C   UNL     1      -0.447  -0.899  23.799  0.00  0.00    +0.114 C 
ATOM      9  C   UNL     1       0.249  -0.603  23.470  0.00  0.00    +0.115 C 
ENDBRANCH  10   7
ENDBRANCH  16  12
BRANCH  19  21
ATOM     21  C   UNL     1      -5.040   1.431  25.196  0.00  0.00    +0.138 C 
ATOM     22  C   UNL     1      -5.713   1.449  25.672  0.00  0.00    +0.027 C 
ATOM     23  C   UNL     1      -5.931   2.238  25.776  0.00  0.00    +0.019 C 
ATOM     24  C   UNL     1      -5.392   2.708  25.364  0.00  0.00    +0.073 C 
ATOM     25  N   UNL     1      -4.842   2.209  25.005  0.00  0.00    -0.260 NA
BRANCH  25  26
ATOM     26  C   UNL     1      -4.204   2.446  24.538  0.00  0.00    +0.139 C 
BRANCH  26  27
ATOM     27  C   UNL     1      -3.836   3.170  24.680  0.00  0.00    +0.155 A 
ATOM     28  N   UNL     1      -3.978   3.874  24.274  0.00  0.00    -0.226 NA
ATOM     29  C   UNL     1      -3.490   4.457  24.596  0.00  0.00    +0.121 A 
ATOM     30  C   UNL     1      -3.047   4.112  25.200  0.00  0.00    +0.121 A 
ATOM     31  N   UNL     1      -3.260   3.318  25.252  0.00  0.00    -0.226 NA
ENDBRANCH  26  27
ENDBRANCH  25  26
ENDBRANCH  19  21
TORSDOF 5
ENDMDL
MODEL 6
REMARK VINA RESULT:      -9.5      2.474      4.995
REMARK  Name = 
REMARK  5 active torsions:
REMARK  status: ('A' for Active; 'I' for Inactive)
REMARK    1  A    between atoms: N_7  and  C_10
REMARK    2  A    between atoms: C_12  and  C_16
REMARK    3  A    between atoms: C_19  and  C_21
REMARK    4  A    between atoms: N_25  and  C_26
REMARK    5  A    between atoms: C_26  and  C_27
REMARK                            x       y       z     vdW  Elec       q    Type
REMARK                         _______ _______ _______ _____ _____    ______ ____
ROOT
ATOM     16  C   UNL     1      -1.534   1.583  24.131  0.00  0.00    +0.203 A 
ATOM     17  N   UNL     1      -1.828   2.011  23.490  0.00  0.00    -0.056 NA
ATOM     18  O   UNL     1      -2.266   2.643  23.786  0.00  0.00    -0.336 OA
ATOM     19  C   UNL     1      -2.243   2.606  24.610  0.00  0.00    +0.251 A 
ATOM     20  N   UNL     1      -1.791   1.951  24.823  0.00  0.00    -0.190 NA
ENDROOT
BRANCH  16  12
ATOM     10  C   UNL     1       0.154   0.266  23.704  0.00  0.00    +0.132 A 
ATOM     11  C   UNL     1      -0.314   0.943  23.747  0.00  0.00    +0.037 A 
ATOM     12  C   UNL     1      -1.065   0.905  24.087  0.00  0.00    +0.043 A 
ATOM     13  C   UNL     1      -1.347   0.188  24.385  0.00  0.00    +0.024 A 
ATOM     14  C   UNL     1      -0.878  -0.489  24.341  0.00  0.00    +0.100 A 
ATOM     15  N   UNL     1      -0.127  -0.450  24.001  0.00  0.00    -0.229 NA
BRANCH  10   7
ATOM      1  C   UNL     1       3.737   0.905  22.680  0.00  0.00    +0.095 C 
ATOM      2  C   UNL     1       3.157   0.426  22.343  0.00  0.00    +0.226 C 
ATOM      3  O   UNL     1       3.327  -0.015  21.666  0.00  0.00    -0.275 OA
ATOM      4  N   UNL     1       2.406   0.385  22.683  0.00  0.00    -0.276 N 
ATOM      5  C   UNL     1       1.826  -0.094  22.346  0.00  0.00    +0.115 C 
ATOM      6  C   UNL     1       1.075  -0.134  22.687  0.00  0.00    +0.114 C 
ATOM      7  N   UNL     1       0.905   0.305  23.363  0.00  0.00    -0.290 N 
ATOM      8  C   UNL     1       1.485   0.785  23.700  0.00  0.00    +0.114 C 
ATOM      9  C   UNL     1       2.236   0.826  23.360  0.00  0.00    +0.115 C 
ENDBRANCH  10   7
ENDBRANCH  16  12
BRANCH  19  21
ATOM     21  C   UNL     1      -2.610   3.133  25.129  0.00  0.00    +0.138 C 
ATOM     22  C   UNL     1      -2.227   3.674  25.621  0.00  0.00    +0.027 C 
ATOM     23  C   UNL     1      -2.803   4.086  26.043  0.00  0.00    +0.019 C 
ATOM     24  C   UNL     1      -3.543   3.800  25.812  0.00  0.00    +0.073 C 
ATOM     25  N   UNL     1      -3.422   3.211  25.248  0.00  0.00    -0.260 NA
BRANCH  25  26
ATOM     26  C   UNL     1      -4.012   2.775  24.868  0.00  0.00    +0.139 C 
BRANCH  26  27
ATOM     27  C   UNL     1      -4.753   2.690  25.220  0.00  0.00    +0.155 A 
ATOM     28  N   UNL     1      -5.037   2.010  25.592  0.00  0.00    -0.226 NA
ATOM     29  C   UNL     1      -5.800   2.169  25.864  0.00  0.00    +0.121 A 
ATOM     30  C   UNL     1      -5.986   2.946  25.660  0.00  0.00    +0.121 A 
ATOM     31  N   UNL     1      -5.340   3.268  25.262  0.00  0.00    -0.226 NA
ENDBRANCH  26  27
ENDBRANCH  25  26
ENDBRANCH  19  21
TORSDOF 5
ENDMDL
MODEL 7
REMARK VINA RESULT:      -8.2     15.730     18.429
REMARK  Name = 
REMARK  5 active torsions:
REMARK  status: ('A' for Active; 'I' for Inactive)
REMARK    1  A    between atoms: N_7  and  C_10
REMARK    2  A    between atoms: C_12  and  C_16
REMARK    3  A    between atoms: C_19  and  C_21
REMARK    4  A    between atoms: N_25  and  C_26
REMARK    5  A    between atoms: C_26  and  C_27
REMARK                            x       y       z     vdW  Elec       q    Type
REMARK                         _______ _______ _______ _____ _____    ______ ____
ROOT
ATOM     16  C   UNL     1      14.266   7.227  18.718  0.00  0.00    +0.203 A 
ATOM     17  N   UNL     1      14.599   6.699  18.179  0.00  0.00    -0.056 NA
ATOM     18  O   UNL     1      14.502   7.011  17.422  0.00  0.00    -0.336 OA
ATOM     19  C   UNL     1      14.108   7.733  17.493  0.00  0.00    +0.251 A 
ATOM     20  N   UNL     1      13.963   7.866  18.293  0.00  0.00    -0.190 NA
ENDROOT
BRANCH  16  12
ATOM     10  C   UNL     1      13.531   7.232  20.773  0.00  0.00    +0.132 A 
ATOM     11  C   UNL     1      13.556   7.326  19.954  0.00  0.00    +0.037 A 
ATOM     12  C   UNL     1      14.241   7.133  19.537  0.00  0.00    +0.043 A 
ATOM     13  C   UNL     1      14.901   6.845  19.940  0.00  0.00    +0.024 A 
ATOM     14  C   UNL     1      14.876   6.751  20.759  0.00  0.00    +0.100 A 
ATOM     15  N   UNL     1      14.190   6.945  21.175  0.00  0.00    -0.229 NA
BRANCH  10   7
ATOM      1  C   UNL     1      10.735   8.735  22.827  0.00  0.00    +0.095 C 
ATOM      2  C   UNL     1      10.789   8.010  22.437  0.00  0.00    +0.226 C 
ATOM      3  O   UNL     1      10.157   7.479  22.463  0.00  0.00    -0.275 OA
ATOM      4  N   UNL     1      11.474   7.815  22.021  0.00  0.00    -0.276 N 
ATOM      5  C   UNL     1      11.528   7.090  21.631  0.00  0.00    +0.115 C 
ATOM      6  C   UNL     1      12.214   6.896  21.215  0.00  0.00    +0.114 C 
ATOM      7  N   UNL     1      12.845   7.426  21.189  0.00  0.00    -0.290 N 
ATOM      8  C   UNL     1      12.791   8.151  21.579  0.00  0.00    +0.114 C 
ATOM      9  C   UNL     1      12.106   8.346  21.995  0.00  0.00    +0.115 C 
ENDBRANCH  10   7
ENDBRANCH  16  12
BRANCH  19  21
ATOM     21  C   UNL     1      13.897   8.233  16.871  0.00  0.00    +0.138 C 
ATOM     22  C   UNL     1      14.416   8.674  16.407  0.00  0.00    +0.027 C 
ATOM     23  C   UNL     1      13.971   9.093  15.854  0.00  0.00    +0.019 C 
ATOM     24  C   UNL     1      13.175   8.911  15.976  0.00  0.00    +0.073 C 
ATOM     25  N   UNL     1      13.130   8.379  16.605  0.00  0.00    -0.260 NA
BRANCH  25  26
ATOM     26  C   UNL     1      12.439   8.050  16.914  0.00  0.00    +0.139 C 
BRANCH  26  27
ATOM     27  C   UNL     1      11.708   8.392  16.743  0.00  0.00    +0.155 A 
ATOM     28  N   UNL     1      11.267   8.873  17.248  0.00  0.00    -0.226 NA
ATOM     29  C   UNL     1      10.576   9.091  16.854  0.00  0.00    +0.121 A 
ATOM     30  C   UNL     1      10.590   8.744  16.106  0.00  0.00    +0.121 A 
ATOM     31  N   UNL     1      11.288   8.312  16.037  0.00  0.00    -0.226 NA
ENDBRANCH  26  27
ENDBRANCH  25  26
ENDBRANCH  19  21
TORSDOF 5
ENDMDL
