MODEL 1
REMARK VINA RESULT:     -14.3      0.000      0.000
REMARK  Name = 
REMARK  5 active torsions:
REMARK  status: ('A' for Active; 'I' for Inactive)
REMARK    1  A    between atoms: C_7  and  C_8
REMARK    2  A    between atoms: C_8  and  N_9
REMARK    3  A    between atoms: C_12  and  C_14
REMARK    4  A    between atoms: C_17  and  C_18
REMARK    5  A    between atoms: C_18  and  C_19
REMARK                            x       y       z     vdW  Elec       q    Type
REMARK                         _______ _______ _______ _____ _____    ______ ____
ROOT
ATOM     14  C   UNL     1      -4.322   2.031  24.951  0.00  0.00    +0.227 A 
ATOM     15  N   UNL     1      -5.011   1.817  25.352  0.00  0.00    -0.112 NA
ATOM     16  N   UNL     1      -5.163   1.023  25.193  0.00  0.00    -0.111 NA
ATOM     17  C   UNL     1      -4.569   0.744  24.693  0.00  0.00    +0.231 A 
ATOM     28  O   UNL     1      -4.049   1.368  24.544  0.00  0.00    -0.423 OA
ENDROOT
BRANCH  14  12
ATOM      9  N   UNL     1      -3.184   3.807  25.281  0.00  0.00    -0.268 NA
ATOM     10  C   UNL     1      -3.666   4.040  24.654  0.00  0.00    +0.073 C 
ATOM     11  C   UNL     1      -4.151   3.404  24.454  0.00  0.00    +0.028 C 
ATOM     12  C   UNL     1      -3.969   2.777  24.957  0.00  0.00    +0.096 C 
ATOM     13  C   UNL     1      -3.371   3.025  25.469  0.00  0.00    +0.082 C 
BRANCH   9   8
ATOM      8  C   UNL     1      -2.615   4.272  25.655  0.00  0.00    +0.101 C 
BRANCH   8   7
ATOM      1  F   UNL     1      -1.912   5.721  25.295  0.00  0.00    -0.204 F 
ATOM      2  C   UNL     1      -1.492   5.020  25.182  0.00  0.00    +0.137 A 
ATOM      3  C   UNL     1      -0.721   5.043  24.889  0.00  0.00    +0.029 A 
ATOM      4  C   UNL     1      -0.302   4.341  24.777  0.00  0.00    +0.002 A 
ATOM      5  C   UNL     1      -0.653   3.617  24.956  0.00  0.00    -0.000 A 
ATOM      6  C   UNL     1      -1.424   3.594  25.249  0.00  0.00    -0.001 A 
ATOM      7  C   UNL     1      -1.844   4.295  25.362  0.00  0.00    +0.021 A 
ENDBRANCH   8   7
ENDBRANCH   9   8
ENDBRANCH  14  12
BRANCH  17  18
ATOM     18  C   UNL     1      -4.505  -0.022  24.395  0.00  0.00    +0.115 C 
BRANCH  18  19
ATOM     19  C   UNL     1      -4.106  -0.601  24.826  0.00  0.00    +0.008 A 
ATOM     20  C   UNL     1      -3.767  -0.503  25.571  0.00  0.00    +0.095 A 
ATOM     21  N   UNL     1      -3.427  -1.221  25.793  0.00  0.00    -0.244 NA
ATOM     22  C   UNL     1      -3.557  -1.763  25.186  0.00  0.00    +0.081 A 
ATOM     23  C   UNL     1      -3.977  -1.380  24.588  0.00  0.00    +0.016 A 
ATOM     24  C   UNL     1      -4.187  -1.791  23.903  0.00  0.00    +0.001 A 
ATOM     25  C   UNL     1      -3.978  -2.583  23.817  0.00  0.00    +0.000 A 
ATOM     26  C   UNL     1      -3.558  -2.966  24.415  0.00  0.00    +0.002 A 
ATOM     27  C   UNL     1      -3.348  -2.557  25.100  0.00  0.00    +0.019 A 
ENDBRANCH  18  19
ENDBRANCH  17  18
TORSDOF 5
ENDMDL
MODEL 2
REMARK VINA RESULT:     -12.9      1.616      2.534
REMARK  Name = 
REMARK  5 active torsions:
REMARK  status: ('A' for Active; 'I' for Inactive)
REMARK    1  A    between atoms: C_7  and  C_8
REMARK    2  A    between atoms: C_8  and  N_9
REMARK    3  A    between atoms: C_12  and  C_14
REMARK    4  A    between atoms: C_17  and  C_18
REMARK    5  A    between atoms: C_18  and  C_19
REMARK                            x       y       z     vdW  Elec       q    Type
REMARK                         _______ _______ _______ _____ _____    ______ ____
ROOT
ATOM     14  C   UNL     1      -0.945   0.756  25.357  0.00  0.00    +0.227 A 
ATOM     15  N   UNL     1      -0.509   0.139  25.028  0.00  0.00    -0.112 NA
ATOM     16  N   UNL     1      -0.969  -0.545  25.061  0.00  0.00    -0.111 NA
ATOM     17  C   UNL     1      -1.690  -0.351  25.410  0.00  0.00    +0.231 A 
ATOM     28  O   UNL     1      -1.675   0.454  25.594  0.00  0.00    -0.423 OA
ENDROOT
BRANCH  14  12
ATOM      9  N   UNL     1      -0.489   2.836  25.195  0.00  0.00    -0.268 NA
ATOM     10  C   UNL     1      -0.133   2.650  25.916  0.00  0.00    +0.073 C 
ATOM     11  C   UNL     1      -0.261   1.848  26.064  0.00  0.00    +0.028 C 
ATOM     12  C   UNL     1      -0.695   1.539  25.436  0.00  0.00    +0.096 C 
ATOM     13  C   UNL     1      -0.836   2.148  24.899  0.00  0.00    +0.082 C 
BRANCH   9   8
ATOM      8  C   UNL     1      -0.496   3.577  24.835  0.00  0.00    +0.101 C 
BRANCH   8   7
ATOM      1  F   UNL     1      -0.212   5.195  24.678  0.00  0.00    -0.204 F 
ATOM      2  C   UNL     1      -0.947   4.930  24.942  0.00  0.00    +0.137 A 
ATOM      3  C   UNL     1      -1.540   5.472  25.127  0.00  0.00    +0.029 A 
ATOM      4  C   UNL     1      -2.275   5.205  25.390  0.00  0.00    +0.002 A 
ATOM      5  C   UNL     1      -2.417   4.397  25.469  0.00  0.00    -0.000 A 
ATOM      6  C   UNL     1      -1.824   3.855  25.284  0.00  0.00    -0.001 A 
ATOM      7  C   UNL     1      -1.089   4.120  25.020  0.00  0.00    +0.021 A 
ENDBRANCH   8   7
ENDBRANCH   9   8
ENDBRANCH  14  12
BRANCH  17  18
ATOM     18  C   UNL     1      -2.316  -0.869  25.552  0.00  0.00    +0.115 C 
BRANCH  18  19
ATOM     19  C   UNL     1      -2.951  -0.904  25.027  0.00  0.00    +0.008 A 
ATOM     20  C   UNL     1      -3.357  -0.257  24.713  0.00  0.00    +0.095 A 
ATOM     21  N   UNL     1      -3.948  -0.545  24.215  0.00  0.00    -0.244 NA
ATOM     22  C   UNL     1      -3.907  -1.369  24.220  0.00  0.00    +0.081 A 
ATOM     23  C   UNL     1      -3.290  -1.590  24.722  0.00  0.00    +0.016 A 
ATOM     24  C   UNL     1      -3.119  -2.389  24.836  0.00  0.00    +0.001 A 
ATOM     25  C   UNL     1      -3.563  -2.966  24.449  0.00  0.00    +0.000 A 
ATOM     26  C   UNL     1      -4.179  -2.745  23.947  0.00  0.00    +0.002 A 
ATOM     27  C   UNL     1      -4.351  -1.946  23.832  0.00  0.00    +0.019 A 
ENDBRANCH  18  19
ENDBRANCH  17  18
TORSDOF 5
ENDMDL
MODEL 3
REMARK VINA RESULT:     -12.7      2.462      6.124
REMARK  Name = 
REMARK  5 active torsions:
REMARK  status: ('A' for Active; 'I' for Inactive)
REMARK    1  A    between atoms: C_7  and  C_8
REMARK    2  A    between atoms: C_8  and  N_9
REMARK    3  A    between atoms: C_12  and  C_14
REMARK    4  A    between atoms: C_17  and  C_18
REMARK    5  A    between atoms: C_18  and  C_19
REMARK                            x       y       z     vdW  Elec       q    Type
REMARK                         _______ _______ _______ _____ _____    ______ ____
ROOT
ATOM     14  C   UNL     1      -0.786   0.569  24.934  0.00  0.00    +0.227 A 
ATOM     15  N   UNL     1      -0.367   0.832  24.274  0.00  0.00    -0.112 NA
ATOM     16  N   UNL     1      -0.150   1.617  24.405  0.00  0.00    -0.111 NA
ATOM     17  C   UNL     1      -0.433   1.840  25.147  0.00  0.00    +0.231 A 
ATOM     28  O   UNL     1      -0.827   1.191  25.473  0.00  0.00    -0.423 OA
ENDROOT
BRANCH  14  12
ATOM      9  N   UNL     1      -1.965  -1.174  25.294  0.00  0.00    -0.268 NA
ATOM     10  C   UNL     1      -1.238  -1.511  25.095  0.00  0.00    +0.073 C 
ATOM     11  C   UNL     1      -0.708  -0.899  24.935  0.00  0.00    +0.028 C 
ATOM     12  C   UNL     1      -1.106  -0.184  25.037  0.00  0.00    +0.096 C 
ATOM     13  C   UNL     1      -1.883  -0.353  25.258  0.00  0.00    +0.082 C 
BRANCH   9   8
ATOM      8  C   UNL     1      -2.651  -1.585  25.494  0.00  0.00    +0.101 C 
BRANCH   8   7
ATOM      1  F   UNL     1      -3.105  -3.146  25.216  0.00  0.00    -0.204 F 
ATOM      2  C   UNL     1      -3.441  -2.535  24.776  0.00  0.00    +0.137 A 
ATOM      3  C   UNL     1      -4.004  -2.704  24.197  0.00  0.00    +0.029 A 
ATOM      4  C   UNL     1      -4.339  -2.092  23.757  0.00  0.00    +0.002 A 
ATOM      5  C   UNL     1      -4.113  -1.312  23.896  0.00  0.00    -0.000 A 
ATOM      6  C   UNL     1      -3.550  -1.142  24.475  0.00  0.00    -0.001 A 
ATOM      7  C   UNL     1      -3.214  -1.754  24.915  0.00  0.00    +0.021 A 
ENDBRANCH   8   7
ENDBRANCH   9   8
ENDBRANCH  14  12
BRANCH  17  18
ATOM     18  C   UNL     1      -0.341   2.580  25.500  0.00  0.00    +0.115 C 
BRANCH  18  19
ATOM     19  C   UNL     1      -0.987   3.086  25.573  0.00  0.00    +0.008 A 
ATOM     20  C   UNL     1      -1.715   2.898  25.915  0.00  0.00    +0.095 A 
ATOM     21  N   UNL     1      -2.197   3.565  25.870  0.00  0.00    -0.244 NA
ATOM     22  C   UNL     1      -1.769   4.165  25.501  0.00  0.00    +0.081 A 
ATOM     23  C   UNL     1      -1.021   3.869  25.318  0.00  0.00    +0.016 A 
ATOM     24  C   UNL     1      -0.468   4.352  24.941  0.00  0.00    +0.001 A 
ATOM     25  C   UNL     1      -0.662   5.130  24.748  0.00  0.00    +0.000 A 
ATOM     26  C   UNL     1      -1.410   5.426  24.932  0.00  0.00    +0.002 A 
ATOM     27  C   UNL     1      -1.964   4.944  25.308  0.00  0.00    +0.019 A 
ENDBRANCH  18  19
ENDBRANCH  17  18
TORSDOF 5
ENDMDL
MODEL 4
REMARK VINA RESULT:     -12.6      1.881      5.674
REMARK  Name = 
REMARK  5 active torsions:
REMARK  status: ('A' for Active; 'I' for Inactive)
REMARK    1  A    between atoms: C_7  and  C_8
REMARK    2  A    between atoms: C_8  and  N_9
REMARK    3  A    between atoms: C_12  and  C_14
REMARK    4  A    between atoms: C_17  and  C_18
REMARK    5  A    between atoms: C_18  and  C_19
REMARK                            x       y       z     vdW  Elec       q    Type
REMARK                         _______ _______ _______ _____ _____    ______ ____
ROOT
ATOM     14  C   UNL     1      -4.028   1.860  24.780  0.00  0.00    +0.227 A 
ATOM     15  N   UNL     1      -4.347   2.492  24.358  0.00  0.00    -0.112 NA
ATOM     16  N   UNL     1      -3.977   3.183  24.613  0.00  0.00    -0.111 NA
ATOM     17  C   UNL     1      -3.428   2.979  25.194  0.00  0.00    +0.231 A 
ATOM     28  O   UNL     1      -3.460   2.160  25.296  0.00  0.00    -0.423 OA
ENDROOT
BRANCH  14  12
ATOM      9  N   UNL     1      -4.296  -0.195  24.263  0.00  0.00    -0.268 NA
ATOM     10  C   UNL     1      -4.832  -0.115  24.885  0.00  0.00    +0.073 C 
ATOM     11  C   UNL     1      -4.797   0.664  25.155  0.00  0.00    +0.028 C 
ATOM     12  C   UNL     1      -4.239   1.066  24.700  0.00  0.00    +0.096 C 
ATOM     13  C   UNL     1      -3.930   0.536  24.148  0.00  0.00    +0.082 C 
BRANCH   9   8
ATOM      8  C   UNL     1      -4.152  -0.882  23.832  0.00  0.00    +0.101 C 
BRANCH   8   7
ATOM      1  F   UNL     1      -4.690  -2.427  23.613  0.00  0.00    -0.204 F 
ATOM      2  C   UNL     1      -4.020  -2.285  24.073  0.00  0.00    +0.137 A 
ATOM      3  C   UNL     1      -3.619  -2.915  24.424  0.00  0.00    +0.029 A 
ATOM      4  C   UNL     1      -2.949  -2.772  24.883  0.00  0.00    +0.002 A 
ATOM      5  C   UNL     1      -2.680  -2.001  24.993  0.00  0.00    -0.000 A 
ATOM      6  C   UNL     1      -3.081  -1.371  24.642  0.00  0.00    -0.001 A 
ATOM      7  C   UNL     1      -3.751  -1.512  24.182  0.00  0.00    +0.021 A 
ENDBRANCH   8   7
ENDBRANCH   9   8
ENDBRANCH  14  12
BRANCH  17  18
ATOM     18  C   UNL     1      -2.934   3.500  25.600  0.00  0.00    +0.115 C 
BRANCH  18  19
ATOM     19  C   UNL     1      -2.135   3.551  25.402  0.00  0.00    +0.008 A 
ATOM     20  C   UNL     1      -1.607   2.919  25.346  0.00  0.00    +0.095 A 
ATOM     21  N   UNL     1      -0.870   3.221  25.134  0.00  0.00    -0.244 NA
ATOM     22  C   UNL     1      -0.941   4.039  25.058  0.00  0.00    +0.081 A 
ATOM     23  C   UNL     1      -1.723   4.243  25.223  0.00  0.00    +0.016 A 
ATOM     24  C   UNL     1      -1.959   5.033  25.190  0.00  0.00    +0.001 A 
ATOM     25  C   UNL     1      -1.413   5.618  24.992  0.00  0.00    +0.000 A 
ATOM     26  C   UNL     1      -0.631   5.414  24.826  0.00  0.00    +0.002 A 
ATOM     27  C   UNL     1      -0.394   4.625  24.859  0.00  0.00    +0.019 A 
ENDBRANCH  18  19
ENDBRANCH  17  18
TORSDOF 5
ENDMDL
MODEL 5
REMARK VINA RESULT:     -11.9      2.570      5.621
REMARK  Name = 
REMARK  5 active torsions:
REMARK  status: ('A' for Active; 'I' for Inactive)
REMARK    1  A    between atoms: C_7  and  C_8
REMARK    2  A    between atoms: C_8  and  N_9
REMARK    3  A    between atoms: C_12  and  C_14
REMARK    4  A    between atoms: C_17  and  C_18
REMARK    5  A    between atoms: C_18  and  C_19
REMARK                            x       y       z     vdW  Elec       q    Type
REMARK                         _______ _______ _______ _____ _____    ______ ____
ROOT
ATOM     14  C   UNL     1      -0.654   1.270  24.596  0.00  0.00    +0.227 A 
ATOM     15  N   UNL     1      -0.016   1.749  24.805  0.00  0.00    -0.112 NA
ATOM     16  N   UNL     1      -0.265   2.534  24.776  0.00  0.00    -0.111 NA
ATOM     17  C   UNL     1      -1.058   2.542  24.549  0.00  0.00    +0.231 A 
ATOM     28  O   UNL     1      -1.298   1.760  24.438  0.00  0.00    -0.423 OA
ENDROOT
BRANCH  14  12
ATOM      9  N   UNL     1      -0.915  -0.840  24.797  0.00  0.00    -0.268 NA
ATOM     10  C   UNL     1      -0.368  -0.804  24.180  0.00  0.00    +0.073 C 
ATOM     11  C   UNL     1      -0.204  -0.010  24.030  0.00  0.00    +0.028 C 
ATOM     12  C   UNL     1      -0.649   0.446  24.553  0.00  0.00    +0.096 C 
ATOM     13  C   UNL     1      -1.088  -0.066  25.028  0.00  0.00    +0.082 C 
BRANCH   9   8
ATOM      8  C   UNL     1      -1.232  -1.526  25.125  0.00  0.00    +0.101 C 
BRANCH   8   7
ATOM      1  F   UNL     1      -1.631  -2.875  24.262  0.00  0.00    -0.204 F 
ATOM      2  C   UNL     1      -2.224  -2.390  24.567  0.00  0.00    +0.137 A 
ATOM      3  C   UNL     1      -3.017  -2.580  24.441  0.00  0.00    +0.029 A 
ATOM      4  C   UNL     1      -3.611  -2.094  24.746  0.00  0.00    +0.002 A 
ATOM      5  C   UNL     1      -3.412  -1.421  25.178  0.00  0.00    -0.000 A 
ATOM      6  C   UNL     1      -2.618  -1.231  25.304  0.00  0.00    -0.001 A 
ATOM      7  C   UNL     1      -2.025  -1.716  24.999  0.00  0.00    +0.021 A 
ENDBRANCH   8   7
ENDBRANCH   9   8
ENDBRANCH  14  12
BRANCH  17  18
ATOM     18  C   UNL     1      -1.528   3.212  24.450  0.00  0.00    +0.115 C 
BRANCH  18  19
ATOM     19  C   UNL     1      -2.046   3.445  25.048  0.00  0.00    +0.008 A 
ATOM     20  C   UNL     1      -1.836   3.648  25.820  0.00  0.00    +0.095 A 
ATOM     21  N   UNL     1      -2.525   3.845  26.228  0.00  0.00    -0.244 NA
ATOM     22  C   UNL     1      -3.160   3.764  25.709  0.00  0.00    +0.081 A 
ATOM     23  C   UNL     1      -2.864   3.517  24.980  0.00  0.00    +0.016 A 
ATOM     24  C   UNL     1      -3.380   3.390  24.348  0.00  0.00    +0.001 A 
ATOM     25  C   UNL     1      -4.190   3.509  24.445  0.00  0.00    +0.000 A 
ATOM     26  C   UNL     1      -4.486   3.756  25.175  0.00  0.00    +0.002 A 
ATOM     27  C   UNL     1      -3.972   3.883  25.807  0.00  0.00    +0.019 A 
ENDBRANCH  18  19
ENDBRANCH  17  18
TORSDOF 5
ENDMDL
MODEL 6
REMARK VINA RESULT:     -11.9      1.886      2.932
REMARK  Name = 
REMARK  5 active torsions:
REMARK  status: ('A' for Active; 'I' for Inactive)
REMARK    1  A    between atoms: C_7  and  C_8
REMARK    2  A    between atoms: C_8  and  N_9
REMARK    3  A    between atoms: C_12  and  C_14
REMARK    4  A    between atoms: C_17  and  C_18
REMARK    5  A    between atoms: C_18  and  C_19
REMARK                            x       y       z     vdW  Elec       q    Type
REMARK                         _______ _______ _______ _____ _____    ______ ____
ROOT
ATOM     14  C   UNL     1      -1.100   1.340  25.281  0.00  0.00    +0.227 A 
ATOM     15  N   UNL     1      -0.393   1.033  24.986  0.00  0.00    -0.112 NA
ATOM     16  N   UNL     1      -0.394   0.219  25.116  0.00  0.00    -0.111 NA
ATOM     17  C   UNL     1      -1.102   0.021  25.490  0.00  0.00    +0.231 A 
ATOM     28  O   UNL     1      -1.538   0.714  25.593  0.00  0.00    -0.423 OA
ENDROOT
BRANCH  14  12
ATOM      9  N   UNL     1      -2.003   3.255  25.003  0.00  0.00    -0.268 NA
ATOM     10  C   UNL     1      -1.361   3.449  25.484  0.00  0.00    +0.073 C 
ATOM     11  C   UNL     1      -0.945   2.755  25.647  0.00  0.00    +0.028 C 
ATOM     12  C   UNL     1      -1.329   2.132  25.267  0.00  0.00    +0.096 C 
ATOM     13  C   UNL     1      -1.983   2.441  24.869  0.00  0.00    +0.082 C 
BRANCH   9   8
ATOM      8  C   UNL     1      -2.565   3.781  24.709  0.00  0.00    +0.101 C 
BRANCH   8   7
ATOM      1  F   UNL     1      -3.787   3.593  23.617  0.00  0.00    -0.204 F 
ATOM      2  C   UNL     1      -3.958   3.643  24.422  0.00  0.00    +0.137 A 
ATOM      3  C   UNL     1      -4.740   3.599  24.682  0.00  0.00    +0.029 A 
ATOM      4  C   UNL     1      -4.910   3.650  25.488  0.00  0.00    +0.002 A 
ATOM      5  C   UNL     1      -4.300   3.744  26.033  0.00  0.00    -0.000 A 
ATOM      6  C   UNL     1      -3.518   3.788  25.774  0.00  0.00    -0.001 A 
ATOM      7  C   UNL     1      -3.346   3.737  24.969  0.00  0.00    +0.021 A 
ENDBRANCH   8   7
ENDBRANCH   9   8
ENDBRANCH  14  12
BRANCH  17  18
ATOM     18  C   UNL     1      -1.333  -0.737  25.723  0.00  0.00    +0.115 C 
BRANCH  18  19
ATOM     19  C   UNL     1      -1.554  -1.293  25.155  0.00  0.00    +0.008 A 
ATOM     20  C   UNL     1      -1.082  -1.568  24.536  0.00  0.00    +0.095 A 
ATOM     21  N   UNL     1      -1.522  -2.117  24.106  0.00  0.00    -0.244 NA
ATOM     22  C   UNL     1      -2.264  -2.181  24.458  0.00  0.00    +0.081 A 
ATOM     23  C   UNL     1      -2.284  -1.672  25.107  0.00  0.00    +0.016 A 
ATOM     24  C   UNL     1      -2.965  -1.620  25.570  0.00  0.00    +0.001 A 
ATOM     25  C   UNL     1      -3.626  -2.077  25.384  0.00  0.00    +0.000 A 
ATOM     26  C   UNL     1      -3.607  -2.586  24.736  0.00  0.00    +0.002 A 
ATOM     27  C   UNL     1      -2.926  -2.639  24.272  0.00  0.00    +0.019 A 
ENDBRANCH  18  19
ENDBRANCH  17  18
TORSDOF 5
ENDMDL
