MODEL 1
REMARK VINA RESULT:     -11.0      0.000      0.000
REMARK  Name = 
REMARK  4 active torsions:
REMARK  status: ('A' for Active; 'I' for Inactive)
REMARK    1  A    between atoms: C_6  and  C_7
REMARK    2  A    between atoms: C_10  and  C_12
REMARK    3  A    between atoms: N_15  and  C_16
REMARK    4  A    between atoms: C_16  and  C_17
REMARK                            x       y       z     vdW  Elec       q    Type
REMARK                         _______ _______ _______ _____ _____    ______ ____
ROOT
ATOM     12  C   UNL     1      -2.003   0.664  25.023  0.00  0.00    +0.096 C 
ATOM     13  C   UNL     1      -1.450   0.113  25.290  0.00  0.00    +0.028 C 
ATOM     14  C   UNL     1      -1.858  -0.559  25.538  0.00  0.00    +0.073 C 
ATOM     15  N   UNL     1      -2.665  -0.424  25.424  0.00  0.00    -0.272 NA
ATOM     23  C   UNL     1      -2.754   0.331  25.106  0.00  0.00    +0.081 C 
ENDROOT
BRANCH  12  10
ATOM      7  C   UNL     1      -1.593   2.725  24.648  0.00  0.00    +0.267 A 
ATOM      8  N   UNL     1      -1.565   2.416  23.884  0.00  0.00    -0.106 NA
ATOM      9  N   UNL     1      -1.716   1.606  23.931  0.00  0.00    -0.111 NA
ATOM     10  C   UNL     1      -1.836   1.415  24.725  0.00  0.00    +0.227 A 
ATOM     11  O   UNL     1      -1.760   2.106  25.168  0.00  0.00    -0.418 OA
BRANCH   7   6
ATOM      1  C   UNL     1      -2.877   3.938  24.966  0.00  0.00    +0.132 C 
ATOM      2  N   UNL     1      -2.064   4.072  25.003  0.00  0.00    -0.303 N 
ATOM      3  C   UNL     1      -1.698   4.787  25.192  0.00  0.00    +0.179 A 
ATOM      4  N   UNL     1      -0.881   4.672  25.162  0.00  0.00    -0.222 NA
ATOM      5  C   UNL     1      -0.742   3.885  24.955  0.00  0.00    +0.123 A 
ATOM      6  C   UNL     1      -1.473   3.515  24.857  0.00  0.00    +0.136 A 
ENDBRANCH   7   6
ENDBRANCH  12  10
BRANCH  15  16
ATOM     16  C   UNL     1      -3.274  -0.953  25.599  0.00  0.00    +0.072 C 
BRANCH  16  17
ATOM     17  C   UNL     1      -3.525  -1.494  25.030  0.00  0.00    +0.016 C 
ATOM     18  C   UNL     1      -3.234  -2.266  25.038  0.00  0.00    +0.001 C 
ATOM     19  C   UNL     1      -3.485  -2.808  24.469  0.00  0.00    +0.000 C 
ATOM     20  C   UNL     1      -4.027  -2.578  23.891  0.00  0.00    +0.000 C 
ATOM     21  C   UNL     1      -4.318  -1.806  23.883  0.00  0.00    +0.000 C 
ATOM     22  C   UNL     1      -4.067  -1.265  24.452  0.00  0.00    +0.001 C 
ENDBRANCH  16  17
ENDBRANCH  15  16
TORSDOF 4
ENDMDL
MODEL 2
REMARK VINA RESULT:     -10.6      1.611      5.302
REMARK  Name = 
REMARK  4 active torsions:
REMARK  status: ('A' for Active; 'I' for Inactive)
REMARK    1  A    between atoms: C_6  and  C_7
REMARK    2  A    between atoms: C_10  and  C_12
REMARK    3  A    between atoms: N_15  and  C_16
REMARK    4  A    between atoms: C_16  and  C_17
REMARK                            x       y       z     vdW  Elec       q    Type
REMARK                         _______ _______ _______ _____ _____    ______ ____
ROOT
ATOM     12  C   UNL     1      -3.946   2.207  24.869  0.00  0.00    +0.096 C 
ATOM     13  C   UNL     1      -4.056   2.759  24.266  0.00  0.00    +0.028 C 
ATOM     14  C   UNL     1      -3.693   3.464  24.496  0.00  0.00    +0.073 C 
ATOM     15  N   UNL     1      -3.358   3.347  25.242  0.00  0.00    -0.272 NA
ATOM     23  C   UNL     1      -3.515   2.571  25.472  0.00  0.00    +0.081 C 
ENDROOT
BRANCH  12  10
ATOM      7  C   UNL     1      -4.273   0.102  24.729  0.00  0.00    +0.267 A 
ATOM      8  N   UNL     1      -5.003   0.358  25.014  0.00  0.00    -0.106 NA
ATOM      9  N   UNL     1      -4.970   1.178  25.101  0.00  0.00    -0.111 NA
ATOM     10  C   UNL     1      -4.218   1.429  24.870  0.00  0.00    +0.227 A 
ATOM     11  O   UNL     1      -3.788   0.764  24.640  0.00  0.00    -0.418 OA
BRANCH   7   6
ATOM      1  C   UNL     1      -3.477  -1.042  25.859  0.00  0.00    +0.132 C 
ATOM      2  N   UNL     1      -3.699  -1.204  25.081  0.00  0.00    -0.303 N 
ATOM      3  C   UNL     1      -3.593  -1.921  24.686  0.00  0.00    +0.179 A 
ATOM      4  N   UNL     1      -3.894  -1.838  23.922  0.00  0.00    -0.222 NA
ATOM      5  C   UNL     1      -4.185  -1.070  23.845  0.00  0.00    +0.123 A 
ATOM      6  C   UNL     1      -4.064  -0.679  24.562  0.00  0.00    +0.136 A 
ENDBRANCH   7   6
ENDBRANCH  12  10
BRANCH  15  16
ATOM     16  C   UNL     1      -2.941   3.908  25.679  0.00  0.00    +0.072 C 
BRANCH  16  17
ATOM     17  C   UNL     1      -2.173   4.112  25.462  0.00  0.00    +0.016 C 
ATOM     18  C   UNL     1      -1.557   3.574  25.571  0.00  0.00    +0.001 C 
ATOM     19  C   UNL     1      -0.787   3.778  25.354  0.00  0.00    +0.000 C 
ATOM     20  C   UNL     1      -0.634   4.520  25.027  0.00  0.00    +0.000 C 
ATOM     21  C   UNL     1      -1.250   5.058  24.918  0.00  0.00    +0.000 C 
ATOM     22  C   UNL     1      -2.019   4.854  25.135  0.00  0.00    +0.001 C 
ENDBRANCH  16  17
ENDBRANCH  15  16
TORSDOF 4
ENDMDL
MODEL 3
REMARK VINA RESULT:     -10.1      2.218      4.049
REMARK  Name = 
REMARK  4 active torsions:
REMARK  status: ('A' for Active; 'I' for Inactive)
REMARK    1  A    between atoms: C_6  and  C_7
REMARK    2  A    between atoms: C_10  and  C_12
REMARK    3  A    between atoms: N_15  and  C_16
REMARK    4  A    between atoms: C_16  and  C_17
REMARK                            x       y       z     vdW  Elec       q    Type
REMARK                         _______ _______ _______ _____ _____    ______ ____
ROOT
ATOM     12  C   UNL     1      -2.017   2.770  25.122  0.00  0.00    +0.096 C 
ATOM     13  C   UNL     1      -2.042   3.463  25.569  0.00  0.00    +0.028 C 
ATOM     14  C   UNL     1      -2.776   3.820  25.446  0.00  0.00    +0.073 C 
ATOM     15  N   UNL     1      -3.205   3.347  24.923  0.00  0.00    -0.272 NA
ATOM     23  C   UNL     1      -2.736   2.698  24.723  0.00  0.00    +0.081 C 
ENDROOT
BRANCH  12  10
ATOM      7  C   UNL     1      -0.618   1.204  24.739  0.00  0.00    +0.267 A 
ATOM      8  N   UNL     1      -0.209   1.649  25.300  0.00  0.00    -0.106 NA
ATOM      9  N   UNL     1      -0.683   2.291  25.512  0.00  0.00    -0.111 NA
ATOM     10  C   UNL     1      -1.386   2.241  25.082  0.00  0.00    +0.227 A 
ATOM     11  O   UNL     1      -1.345   1.569  24.604  0.00  0.00    -0.418 OA
BRANCH   7   6
ATOM      1  C   UNL     1      -0.932  -0.473  25.295  0.00  0.00    +0.132 C 
ATOM      2  N   UNL     1      -0.491  -0.257  24.632  0.00  0.00    -0.303 N 
ATOM      3  C   UNL     1      -0.118  -0.774  24.108  0.00  0.00    +0.179 A 
ATOM      4  N   UNL     1       0.258  -0.322  23.528  0.00  0.00    -0.222 NA
ATOM      5  C   UNL     1       0.116   0.474  23.694  0.00  0.00    +0.123 A 
ATOM      6  C   UNL     1      -0.347   0.514  24.376  0.00  0.00    +0.136 A 
ENDBRANCH   7   6
ENDBRANCH  12  10
BRANCH  15  16
ATOM     16  C   UNL     1      -3.968   3.497  24.649  0.00  0.00    +0.072 C 
BRANCH  16  17
ATOM     17  C   UNL     1      -4.602   3.053  24.931  0.00  0.00    +0.016 C 
ATOM     18  C   UNL     1      -4.982   3.275  25.629  0.00  0.00    +0.001 C 
ATOM     19  C   UNL     1      -5.618   2.830  25.913  0.00  0.00    +0.000 C 
ATOM     20  C   UNL     1      -5.872   2.164  25.498  0.00  0.00    +0.000 C 
ATOM     21  C   UNL     1      -5.492   1.942  24.800  0.00  0.00    +0.000 C 
ATOM     22  C   UNL     1      -4.858   2.387  24.517  0.00  0.00    +0.001 C 
ENDBRANCH  16  17
ENDBRANCH  15  16
TORSDOF 4
ENDMDL
MODEL 4
REMARK VINA RESULT:     -10.0      1.420      5.139
REMARK  Name = 
REMARK  4 active torsions:
REMARK  status: ('A' for Active; 'I' for Inactive)
REMARK    1  A    between atoms: C_6  and  C_7
REMARK    2  A    between atoms: C_10  and  C_12
REMARK    3  A    between atoms: N_15  and  C_16
REMARK    4  A    between atoms: C_16  and  C_17
REMARK                            x       y       z     vdW  Elec       q    Type
REMARK                         _______ _______ _______ _____ _____    ______ ____
ROOT
ATOM     12  C   UNL     1      -0.758   0.728  25.050  0.00  0.00    +0.096 C 
ATOM     13  C   UNL     1      -0.420   1.066  24.377  0.00  0.00    +0.028 C 
ATOM     14  C   UNL     1      -0.230   1.849  24.552  0.00  0.00    +0.073 C 
ATOM     15  N   UNL     1      -0.451   1.997  25.334  0.00  0.00    -0.272 NA
ATOM     23  C   UNL     1      -0.777   1.304  25.641  0.00  0.00    +0.081 C 
ENDROOT
BRANCH  12  10
ATOM      7  C   UNL     1      -1.796  -1.137  25.038  0.00  0.00    +0.267 A 
ATOM      8  N   UNL     1      -1.095  -1.347  25.419  0.00  0.00    -0.106 NA
ATOM      9  N   UNL     1      -0.621  -0.674  25.470  0.00  0.00    -0.111 NA
ATOM     10  C   UNL     1      -1.029  -0.047  25.120  0.00  0.00    +0.227 A 
ATOM     11  O   UNL     1      -1.755  -0.333  24.853  0.00  0.00    -0.418 OA
BRANCH   7   6
ATOM      1  C   UNL     1      -3.387  -1.147  25.868  0.00  0.00    +0.132 C 
ATOM      2  N   UNL     1      -3.158  -1.646  25.252  0.00  0.00    -0.303 N 
ATOM      3  C   UNL     1      -3.621  -2.237  24.910  0.00  0.00    +0.179 A 
ATOM      4  N   UNL     1      -3.176  -2.598  24.316  0.00  0.00    -0.222 NA
ATOM      5  C   UNL     1      -2.438  -2.230  24.292  0.00  0.00    +0.123 A 
ATOM      6  C   UNL     1      -2.427  -1.641  24.870  0.00  0.00    +0.136 A 
ENDBRANCH   7   6
ENDBRANCH  12  10
BRANCH  15  16
ATOM     16  C   UNL     1      -0.361   2.711  25.736  0.00  0.00    +0.072 C 
BRANCH  16  17
ATOM     17  C   UNL     1      -0.877   3.336  25.586  0.00  0.00    +0.016 C 
ATOM     18  C   UNL     1      -0.642   3.956  25.096  0.00  0.00    +0.001 C 
ATOM     19  C   UNL     1      -1.159   4.583  24.945  0.00  0.00    +0.000 C 
ATOM     20  C   UNL     1      -1.910   4.588  25.286  0.00  0.00    +0.000 C 
ATOM     21  C   UNL     1      -2.145   3.968  25.777  0.00  0.00    +0.000 C 
ATOM     22  C   UNL     1      -1.629   3.342  25.927  0.00  0.00    +0.001 C 
ENDBRANCH  16  17
ENDBRANCH  15  16
TORSDOF 4
ENDMDL
MODEL 5
REMARK VINA RESULT:      -8.5     15.863     18.348
REMARK  Name = 
REMARK  4 active torsions:
REMARK  status: ('A' for Active; 'I' for Inactive)
REMARK    1  A    between atoms: C_6  and  C_7
REMARK    2  A    between atoms: C_10  and  C_12
REMARK    3  A    between atoms: N_15  and  C_16
REMARK    4  A    between atoms: C_16  and  C_17
REMARK                            x       y       z     vdW  Elec       q    Type
REMARK                         _______ _______ _______ _____ _____    ______ ____
ROOT
ATOM     12  C   UNL     1      13.817   7.197  19.422  0.00  0.00    +0.096 C 
ATOM     13  C   UNL     1      14.185   7.738  18.920  0.00  0.00    +0.028 C 
ATOM     14  C   UNL     1      14.982   7.531  18.863  0.00  0.00    +0.073 C 
ATOM     15  N   UNL     1      15.107   6.862  19.330  0.00  0.00    -0.272 NA
ATOM     23  C   UNL     1      14.387   6.655  19.675  0.00  0.00    +0.081 C 
ENDROOT
BRANCH  12  10
ATOM      7  C   UNL     1      11.893   7.332  20.336  0.00  0.00    +0.267 A 
ATOM      8  N   UNL     1      11.693   7.058  19.584  0.00  0.00    -0.106 NA
ATOM      9  N   UNL     1      12.390   6.974  19.150  0.00  0.00    -0.111 NA
ATOM     10  C   UNL     1      13.020   7.196  19.634  0.00  0.00    +0.227 A 
ATOM     11  O   UNL     1      12.713   7.417  20.367  0.00  0.00    -0.418 OA
BRANCH   7   6
ATOM      1  C   UNL     1      11.270   6.145  21.529  0.00  0.00    +0.132 C 
ATOM      2  N   UNL     1      11.079   6.947  21.498  0.00  0.00    -0.303 N 
ATOM      3  C   UNL     1      10.567   7.344  22.010  0.00  0.00    +0.179 A 
ATOM      4  N   UNL     1      10.538   8.136  21.778  0.00  0.00    -0.222 NA
ATOM      5  C   UNL     1      11.031   8.227  21.122  0.00  0.00    +0.123 A 
ATOM      6  C   UNL     1      11.365   7.493  20.950  0.00  0.00    +0.136 A 
ENDBRANCH   7   6
ENDBRANCH  12  10
BRANCH  15  16
ATOM     16  C   UNL     1      15.825   6.469  19.432  0.00  0.00    +0.072 C 
BRANCH  16  17
ATOM     17  C   UNL     1      16.331   6.690  20.044  0.00  0.00    +0.016 C 
ATOM     18  C   UNL     1      16.271   6.325  20.781  0.00  0.00    +0.001 C 
ATOM     19  C   UNL     1      16.778   6.545  21.394  0.00  0.00    +0.000 C 
ATOM     20  C   UNL     1      17.345   7.132  21.269  0.00  0.00    +0.000 C 
ATOM     21  C   UNL     1      17.405   7.497  20.532  0.00  0.00    +0.000 C 
ATOM     22  C   UNL     1      16.898   7.276  19.920  0.00  0.00    +0.001 C 
ENDBRANCH  16  17
ENDBRANCH  15  16
TORSDOF 4
ENDMDL
MODEL 6
REMARK VINA RESULT:      -7.7     15.777     18.189
REMARK  Name = 
REMARK  4 active torsions:
REMARK  status: ('A' for Active; 'I' for Inactive)
REMARK    1  A    between atoms: C_6  and  C_7
REMARK    2  A    between atoms: C_10  and  C_12
REMARK    3  A    between atoms: N_15  and  C_16
REMARK    4  A    between atoms: C_16  and  C_17
REMARK                            x       y       z     vdW  Elec       q    Type
REMARK                         _______ _______ _______ _____ _____    ______ ____
ROOT
ATOM     12  C   UNL     1      13.085   7.269  19.539  0.00  0.00    +0.096 C 
ATOM     13  C   UNL     1      12.651   6.576  19.647  0.00  0.00    +0.028 C 
ATOM     14  C   UNL     1      11.888   6.786  19.882  0.00  0.00    +0.073 C 
ATOM     15  N   UNL     1      11.851   7.610  19.919  0.00  0.00    -0.272 NA
ATOM     23  C   UNL     1      12.591   7.908  19.707  0.00  0.00    +0.081 C 
ENDROOT
BRANCH  12  10
ATOM      7  C   UNL     1      15.197   7.139  19.255  0.00  0.00    +0.267 A 
ATOM      8  N   UNL     1      14.982   7.634  18.630  0.00  0.00    -0.106 NA
ATOM      9  N   UNL     1      14.165   7.742  18.661  0.00  0.00    -0.111 NA
ATOM     10  C   UNL     1      13.874   7.315  19.304  0.00  0.00    +0.227 A 
ATOM     11  O   UNL     1      14.512   6.942  19.671  0.00  0.00    -0.418 OA
BRANCH   7   6
ATOM      1  C   UNL     1      16.370   7.988  20.315  0.00  0.00    +0.132 C 
ATOM      2  N   UNL     1      16.501   7.276  19.919  0.00  0.00    -0.303 N 
ATOM      3  C   UNL     1      17.195   6.830  19.941  0.00  0.00    +0.179 A 
ATOM      4  N   UNL     1      17.084   6.163  19.467  0.00  0.00    -0.222 NA
ATOM      5  C   UNL     1      16.322   6.198  19.152  0.00  0.00    +0.123 A 
ATOM      6  C   UNL     1      15.962   6.886  19.432  0.00  0.00    +0.136 A 
ENDBRANCH   7   6
ENDBRANCH  12  10
BRANCH  15  16
ATOM     16  C   UNL     1      11.191   8.057  20.130  0.00  0.00    +0.072 C 
BRANCH  16  17
ATOM     17  C   UNL     1      11.036   8.212  20.925  0.00  0.00    +0.016 C 
ATOM     18  C   UNL     1      11.253   8.937  21.254  0.00  0.00    +0.001 C 
ATOM     19  C   UNL     1      11.098   9.092  22.050  0.00  0.00    +0.000 C 
ATOM     20  C   UNL     1      10.725   8.523  22.515  0.00  0.00    +0.000 C 
ATOM     21  C   UNL     1      10.508   7.798  22.187  0.00  0.00    +0.000 C 
ATOM     22  C   UNL     1      10.663   7.643  21.392  0.00  0.00    +0.001 C 
ENDBRANCH  16  17
ENDBRANCH  15  16
TORSDOF 4
ENDMDL
