MODEL 1
REMARK VINA RESULT:     -10.9      0.000      0.000
REMARK  Name = 
REMARK  5 active torsions:
REMARK  status: ('A' for Active; 'I' for Inactive)
REMARK    1  A    between atoms: C_2  and  C_5
REMARK    2  A    between atoms: C_9  and  N_10
REMARK    3  A    between atoms: N_13  and  C_14
REMARK    4  A    between atoms: C_18  and  N_22
REMARK    5  A    between atoms: C_25  and  C_29
REMARK                            x       y       z     vdW  Elec       q    Type
REMARK                         _______ _______ _______ _____ _____    ______ ____
ROOT
ATOM     14  C   UNL     1       0.512   0.513  23.500  0.00  0.00    +0.156 C 
ATOM     15  C   UNL     1       0.465   1.336  23.483  0.00  0.00    +0.166 C 
ATOM     16  O   UNL     1      -0.223   1.561  23.878  0.00  0.00    -0.350 OA
ATOM     17  C   UNL     1      -0.602   0.877  24.139  0.00  0.00    +0.166 C 
ATOM     18  C   UNL     1      -1.262   0.592  24.544  0.00  0.00    +0.154 C 
ATOM     19  C   UNL     1      -1.216  -0.232  24.561  0.00  0.00    +0.166 C 
ATOM     20  O   UNL     1      -0.527  -0.456  24.166  0.00  0.00    -0.350 OA
ATOM     21  C   UNL     1      -0.148   0.229  23.905  0.00  0.00    +0.166 C 
ENDROOT
BRANCH  18  22
ATOM     22  N   UNL     1      -1.863   1.050  24.874  0.00  0.00    -0.200 NA
ATOM     23  C   UNL     1      -2.648   0.923  24.654  0.00  0.00    +0.237 A 
ATOM     24  N   UNL     1      -3.249   1.382  24.984  0.00  0.00    -0.209 NA
ATOM     25  C   UNL     1      -4.034   1.255  24.764  0.00  0.00    +0.120 A 
ATOM     26  C   UNL     1      -4.217   0.669  24.213  0.00  0.00    +0.043 A 
ATOM     27  C   UNL     1      -3.616   0.210  23.883  0.00  0.00    +0.104 A 
ATOM     28  N   UNL     1      -2.832   0.338  24.103  0.00  0.00    -0.211 NA
BRANCH  25  29
ATOM     29  C   UNL     1      -4.634   1.713  25.094  0.00  0.00    +0.163 A 
ATOM     30  C   UNL     1      -5.337   1.429  25.422  0.00  0.00    +0.042 A 
ATOM     31  C   UNL     1      -5.775   2.076  25.685  0.00  0.00    +0.044 A 
ATOM     32  C   UNL     1      -5.344   2.759  25.520  0.00  0.00    +0.180 A 
ATOM     33  O   UNL     1      -4.639   2.535  25.155  0.00  0.00    -0.449 OA
ENDBRANCH  25  29
ENDBRANCH  18  22
BRANCH  14  13
ATOM     10  N   UNL     1       2.496  -0.145  22.873  0.00  0.00    -0.161 NA
ATOM     11  C   UNL     1       1.896   0.313  23.203  0.00  0.00    +0.344 C 
ATOM     12  O   UNL     1       2.077   1.031  23.568  0.00  0.00    -0.249 OA
ATOM     13  N   UNL     1       1.113   0.054  23.169  0.00  0.00    -0.184 NA
BRANCH  10   9
ATOM      5  C   UNL     1       4.591   0.019  23.467  0.00  0.00    +0.073 A 
ATOM      6  C   UNL     1       4.845   0.630  22.975  0.00  0.00    +0.004 A 
ATOM      7  C   UNL     1       4.316   0.983  22.449  0.00  0.00    +0.001 A 
ATOM      8  C   UNL     1       3.533   0.724  22.415  0.00  0.00    +0.017 A 
ATOM      9  C   UNL     1       3.279   0.113  22.907  0.00  0.00    +0.075 A 
ATOM     34  C   UNL     1       3.808  -0.240  23.433  0.00  0.00    +0.021 A 
BRANCH   5   2
ATOM      1  F   UNL     1       5.648  -0.687  24.518  0.00  0.00    -0.166 F 
ATOM      2  C   UNL     1       5.119  -0.334  23.992  0.00  0.00    +0.419 C 
ATOM      3  F   UNL     1       5.282   0.403  24.323  0.00  0.00    -0.166 F 
ATOM      4  F   UNL     1       4.957  -1.072  23.662  0.00  0.00    -0.166 F 
ENDBRANCH   5   2
ENDBRANCH  10   9
ENDBRANCH  14  13
TORSDOF 5
ENDMDL
MODEL 2
REMARK VINA RESULT:     -10.4      3.649      7.585
REMARK  Name = 
REMARK  5 active torsions:
REMARK  status: ('A' for Active; 'I' for Inactive)
REMARK    1  A    between atoms: C_2  and  C_5
REMARK    2  A    between atoms: C_9  and  N_10
REMARK    3  A    between atoms: N_13  and  C_14
REMARK    4  A    between atoms: C_18  and  N_22
REMARK    5  A    between atoms: C_25  and  C_29
REMARK                            x       y       z     vdW  Elec       q    Type
REMARK                         _______ _______ _______ _____ _____    ______ ____
ROOT
ATOM     14  C   UNL     1      -1.879   1.701  23.754  0.00  0.00    +0.156 C 
ATOM     15  C   UNL     1      -1.464   2.413  23.802  0.00  0.00    +0.166 C 
ATOM     16  O   UNL     1      -0.661   2.235  23.856  0.00  0.00    -0.350 OA
ATOM     17  C   UNL     1      -0.578   1.415  23.841  0.00  0.00    +0.166 C 
ATOM     18  C   UNL     1      -0.032   0.798  23.865  0.00  0.00    +0.154 C 
ATOM     19  C   UNL     1      -0.446   0.087  23.817  0.00  0.00    +0.166 C 
ATOM     20  O   UNL     1      -1.250   0.264  23.763  0.00  0.00    -0.350 OA
ATOM     21  C   UNL     1      -1.332   1.085  23.778  0.00  0.00    +0.166 C 
ENDROOT
BRANCH  18  22
ATOM     22  N   UNL     1       0.788   0.878  23.926  0.00  0.00    -0.200 NA
ATOM     23  C   UNL     1       1.280   0.533  23.361  0.00  0.00    +0.237 A 
ATOM     24  N   UNL     1       2.098   0.614  23.422  0.00  0.00    -0.209 NA
ATOM     25  C   UNL     1       2.590   0.269  22.857  0.00  0.00    +0.120 A 
ATOM     26  C   UNL     1       2.263  -0.157  22.230  0.00  0.00    +0.043 A 
ATOM     27  C   UNL     1       1.444  -0.237  22.169  0.00  0.00    +0.104 A 
ATOM     28  N   UNL     1       0.953   0.108  22.734  0.00  0.00    -0.211 NA
BRANCH  25  29
ATOM     29  C   UNL     1       3.409   0.349  22.918  0.00  0.00    +0.163 A 
ATOM     30  C   UNL     1       3.847   1.017  22.710  0.00  0.00    +0.042 A 
ATOM     31  C   UNL     1       4.642   0.856  22.861  0.00  0.00    +0.044 A 
ATOM     32  C   UNL     1       4.695   0.090  23.161  0.00  0.00    +0.180 A 
ATOM     33  O   UNL     1       3.933  -0.223  23.196  0.00  0.00    -0.449 OA
ENDBRANCH  25  29
ENDBRANCH  18  22
BRANCH  14  13
ATOM     10  N   UNL     1      -4.012   1.977  24.126  0.00  0.00    -0.161 NA
ATOM     11  C   UNL     1      -3.194   2.058  24.187  0.00  0.00    +0.344 C 
ATOM     12  O   UNL     1      -2.870   2.575  24.742  0.00  0.00    -0.249 OA
ATOM     13  N   UNL     1      -2.698   1.621  23.693  0.00  0.00    -0.184 NA
BRANCH  10   9
ATOM      5  C   UNL     1      -5.533   2.464  25.614  0.00  0.00    +0.073 A 
ATOM      6  C   UNL     1      -5.500   3.288  25.608  0.00  0.00    +0.004 A 
ATOM      7  C   UNL     1      -4.970   3.676  25.107  0.00  0.00    +0.001 A 
ATOM      8  C   UNL     1      -4.474   3.238  24.613  0.00  0.00    +0.017 A 
ATOM      9  C   UNL     1      -4.508   2.414  24.620  0.00  0.00    +0.075 A 
ATOM     34  C   UNL     1      -5.037   2.028  25.120  0.00  0.00    +0.021 A 
BRANCH   5   2
ATOM      1  F   UNL     1      -6.593   1.690  26.615  0.00  0.00    -0.166 F 
ATOM      2  C   UNL     1      -6.063   2.078  26.114  0.00  0.00    +0.419 C 
ATOM      3  F   UNL     1      -6.415   1.717  25.462  0.00  0.00    -0.166 F 
ATOM      4  F   UNL     1      -5.711   2.438  26.767  0.00  0.00    -0.166 F 
ENDBRANCH   5   2
ENDBRANCH  10   9
ENDBRANCH  14  13
TORSDOF 5
ENDMDL
MODEL 3
REMARK VINA RESULT:      -7.8     17.180     18.025
REMARK  Name = 
REMARK  5 active torsions:
REMARK  status: ('A' for Active; 'I' for Inactive)
REMARK    1  A    between atoms: C_2  and  C_5
REMARK    2  A    between atoms: C_9  and  N_10
REMARK    3  A    between atoms: N_13  and  C_14
REMARK    4  A    between atoms: C_18  and  N_22
REMARK    5  A    between atoms: C_25  and  C_29
REMARK                            x       y       z     vdW  Elec       q    Type
REMARK                         _______ _______ _______ _____ _____    ______ ____
ROOT
ATOM     14  C   UNL     1      -5.527  -9.842   9.991  0.00  0.00    +0.156 C 
ATOM     15  C   UNL     1      -5.958  -9.727  10.685  0.00  0.00    +0.166 C 
ATOM     16  O   UNL     1      -6.648  -9.320  10.490  0.00  0.00    -0.350 OA
ATOM     17  C   UNL     1      -6.645  -9.184   9.677  0.00  0.00    +0.166 C 
ATOM     18  C   UNL     1      -7.068  -8.849   9.054  0.00  0.00    +0.154 C 
ATOM     19  C   UNL     1      -6.638  -8.964   8.360  0.00  0.00    +0.166 C 
ATOM     20  O   UNL     1      -5.947  -9.371   8.554  0.00  0.00    -0.350 OA
ATOM     21  C   UNL     1      -5.951  -9.507   9.369  0.00  0.00    +0.166 C 
ENDROOT
BRANCH  18  22
ATOM     22  N   UNL     1      -7.797  -8.465   9.114  0.00  0.00    -0.200 NA
ATOM     23  C   UNL     1      -7.890  -7.706   8.804  0.00  0.00    +0.237 A 
ATOM     24  N   UNL     1      -8.618  -7.323   8.864  0.00  0.00    -0.209 NA
ATOM     25  C   UNL     1      -8.711  -6.564   8.554  0.00  0.00    +0.120 A 
ATOM     26  C   UNL     1      -8.077  -6.189   8.184  0.00  0.00    +0.043 A 
ATOM     27  C   UNL     1      -7.349  -6.572   8.124  0.00  0.00    +0.104 A 
ATOM     28  N   UNL     1      -7.256  -7.331   8.434  0.00  0.00    -0.211 NA
BRANCH  25  29
ATOM     29  C   UNL     1      -9.439  -6.180   8.615  0.00  0.00    +0.163 A 
ATOM     30  C   UNL     1      -9.606  -5.414   8.358  0.00  0.00    +0.042 A 
ATOM     31  C   UNL     1     -10.397  -5.255   8.526  0.00  0.00    +0.044 A 
ATOM     32  C   UNL     1     -10.719  -5.922   8.887  0.00  0.00    +0.180 A 
ATOM     33  O   UNL     1     -10.127  -6.494   8.942  0.00  0.00    -0.449 OA
ENDBRANCH  25  29
ENDBRANCH  18  22
BRANCH  14  13
ATOM     10  N   UNL     1      -3.477 -10.458  10.423  0.00  0.00    -0.161 NA
ATOM     11  C   UNL     1      -4.205 -10.074  10.483  0.00  0.00    +0.344 C 
ATOM     12  O   UNL     1      -4.340  -9.538  11.096  0.00  0.00    -0.249 OA
ATOM     13  N   UNL     1      -4.799 -10.226   9.931  0.00  0.00    -0.184 NA
BRANCH  10   9
ATOM      5  C   UNL     1      -1.658  -9.663  11.331  0.00  0.00    +0.073 A 
ATOM      6  C   UNL     1      -1.697 -10.003  12.081  0.00  0.00    +0.004 A 
ATOM      7  C   UNL     1      -2.330 -10.495  12.279  0.00  0.00    +0.001 A 
ATOM      8  C   UNL     1      -2.923 -10.646  11.726  0.00  0.00    +0.017 A 
ATOM      9  C   UNL     1      -2.884 -10.306  10.976  0.00  0.00    +0.075 A 
ATOM     34  C   UNL     1      -2.252  -9.815  10.778  0.00  0.00    +0.021 A 
BRANCH   5   2
ATOM      1  F   UNL     1      -0.393  -8.681  10.935  0.00  0.00    -0.166 F 
ATOM      2  C   UNL     1      -1.026  -9.172  11.133  0.00  0.00    +0.419 C 
ATOM      3  F   UNL     1      -0.506  -9.806  11.220  0.00  0.00    -0.166 F 
ATOM      4  F   UNL     1      -1.545  -8.537  11.045  0.00  0.00    -0.166 F 
ENDBRANCH   5   2
ENDBRANCH  10   9
ENDBRANCH  14  13
TORSDOF 5
ENDMDL
