MODEL 1
REMARK VINA RESULT:     -10.2      0.000      0.000
REMARK  Name = 
REMARK  9 active torsions:
REMARK  status: ('A' for Active; 'I' for Inactive)
REMARK    1  A    between atoms: O_2  and  C_3
REMARK    2  A    between atoms: C_6  and  C_7
REMARK    3  A    between atoms: C_7  and  N_8
REMARK    4  A    between atoms: C_9  and  C_11
REMARK    5  A    between atoms: C_11  and  C_12
REMARK    6  A    between atoms: C_14  and  C_15
REMARK    7  A    between atoms: C_18  and  C_19
REMARK    8  A    between atoms: C_19  and  N_20
REMARK    9  A    between atoms: N_20  and  S_21
REMARK                            x       y       z     vdW  Elec       q    Type
REMARK                         _______ _______ _______ _____ _____    ______ ____
ROOT
ATOM     12  C   UNL     1      -4.134   2.297  24.583  0.00  0.00    +0.027 C 
ATOM     13  C   UNL     1      -3.428   2.001  24.274  0.00  0.00    +0.005 C 
ATOM     14  C   UNL     1      -2.742   2.457  24.307  0.00  0.00    +0.006 C 
ATOM     18  C   UNL     1      -2.760   3.207  24.648  0.00  0.00    +0.041 C 
ATOM     25  C   UNL     1      -3.465   3.503  24.957  0.00  0.00    -0.033 C 
ATOM     26  C   UNL     1      -4.153   3.047  24.924  0.00  0.00    -0.048 C 
ATOM     27  C   UNL     1      -4.858   3.343  25.233  0.00  0.00    +0.026 C 
ENDROOT
BRANCH  14  15
ATOM     15  C   UNL     1      -2.035   2.161  23.997  0.00  0.00    +0.000 C 
ATOM     16  C   UNL     1      -1.496   1.781  24.493  0.00  0.00    +0.000 C 
ATOM     17  C   UNL     1      -1.870   2.245  23.194  0.00  0.00    +0.000 C 
ENDBRANCH  14  15
BRANCH  12  11
ATOM     11  C   UNL     1      -4.821   1.842  24.550  0.00  0.00    +0.091 C 
BRANCH  11   9
ATOM      8  N   UNL     1      -4.607   0.433  24.662  0.00  0.00    -0.201 NA
ATOM      9  C   UNL     1      -4.874   1.143  24.987  0.00  0.00    +0.242 C 
ATOM     10  O   UNL     1      -5.192   1.154  25.747  0.00  0.00    -0.273 OA
BRANCH   8   7
ATOM      7  C   UNL     1      -4.659  -0.264  25.098  0.00  0.00    +0.141 C 
BRANCH   7   6
ATOM      3  C   UNL     1      -3.229  -2.199  24.512  0.00  0.00    +0.139 A 
ATOM      4  C   UNL     1      -3.122  -1.810  25.231  0.00  0.00    +0.037 A 
ATOM      5  C   UNL     1      -3.599  -1.165  25.427  0.00  0.00    +0.001 A 
ATOM      6  C   UNL     1      -4.182  -0.910  24.903  0.00  0.00    -0.000 A 
ATOM     28  C   UNL     1      -4.289  -1.299  24.183  0.00  0.00    +0.001 A 
ATOM     29  C   UNL     1      -3.812  -1.943  23.988  0.00  0.00    +0.037 A 
BRANCH   3   2
ATOM      1  C   UNL     1      -1.931  -2.772  24.344  0.00  0.00    +0.252 C 
ATOM      2  O   UNL     1      -2.753  -2.843  24.317  0.00  0.00    -0.471 OA
ENDBRANCH   3   2
ENDBRANCH   7   6
ENDBRANCH   8   7
ENDBRANCH  11   9
ENDBRANCH  12  11
BRANCH  18  19
ATOM     19  C   UNL     1      -2.072   3.662  24.680  0.00  0.00    +0.119 C 
BRANCH  19  20
ATOM     20  N   UNL     1      -2.072   4.381  25.085  0.00  0.00    -0.082 NA
BRANCH  20  21
ATOM     21  S   UNL     1      -1.416   4.879  25.040  0.00  0.00    +0.059 S 
ATOM     22  C   UNL     1      -0.760   5.378  24.995  0.00  0.00    +0.197 C 
ATOM     23  O   UNL     1      -1.807   5.343  24.481  0.00  0.00    -0.156 OA
ATOM     24  O   UNL     1      -1.025   4.416  25.600  0.00  0.00    -0.156 OA
ENDBRANCH  20  21
ENDBRANCH  19  20
ENDBRANCH  18  19
TORSDOF 9
ENDMDL
MODEL 2
REMARK VINA RESULT:     -10.1      1.823      5.140
REMARK  Name = 
REMARK  9 active torsions:
REMARK  status: ('A' for Active; 'I' for Inactive)
REMARK    1  A    between atoms: O_2  and  C_3
REMARK    2  A    between atoms: C_6  and  C_7
REMARK    3  A    between atoms: C_7  and  N_8
REMARK    4  A    between atoms: C_9  and  C_11
REMARK    5  A    between atoms: C_11  and  C_12
REMARK    6  A    between atoms: C_14  and  C_15
REMARK    7  A    between atoms: C_18  and  C_19
REMARK    8  A    between atoms: C_19  and  N_20
REMARK    9  A    between atoms: N_20  and  S_21
REMARK                            x       y       z     vdW  Elec       q    Type
REMARK                         _______ _______ _______ _____ _____    ______ ____
ROOT
ATOM     12  C   UNL     1      -4.628   1.720  24.737  0.00  0.00    +0.027 C 
ATOM     13  C   UNL     1      -3.891   1.610  24.380  0.00  0.00    +0.005 C 
ATOM     14  C   UNL     1      -3.617   0.846  24.229  0.00  0.00    +0.006 C 
ATOM     18  C   UNL     1      -4.078   0.195  24.435  0.00  0.00    +0.041 C 
ATOM     25  C   UNL     1      -4.813   0.304  24.791  0.00  0.00    -0.033 C 
ATOM     26  C   UNL     1      -5.088   1.068  24.943  0.00  0.00    -0.048 C 
ATOM     27  C   UNL     1      -5.824   1.178  25.299  0.00  0.00    +0.026 C 
ENDROOT
BRANCH  14  15
ATOM     15  C   UNL     1      -2.881   0.736  23.872  0.00  0.00    +0.000 C 
ATOM     16  C   UNL     1      -2.218   0.579  24.336  0.00  0.00    +0.000 C 
ATOM     17  C   UNL     1      -2.809   0.782  23.051  0.00  0.00    +0.000 C 
ENDBRANCH  14  15
BRANCH  12  11
ATOM     11  C   UNL     1      -4.902   2.483  24.888  0.00  0.00    +0.091 C 
BRANCH  11   9
ATOM      8  N   UNL     1      -3.880   3.436  25.187  0.00  0.00    -0.201 NA
ATOM      9  C   UNL     1      -4.508   2.962  25.434  0.00  0.00    +0.242 C 
ATOM     10  O   UNL     1      -4.743   2.966  26.223  0.00  0.00    -0.273 OA
BRANCH   8   7
ATOM      7  C   UNL     1      -3.487   3.915  25.732  0.00  0.00    +0.141 C 
BRANCH   7   6
ATOM      3  C   UNL     1      -1.262   4.850  25.178  0.00  0.00    +0.139 A 
ATOM      4  C   UNL     1      -1.946   5.240  24.934  0.00  0.00    +0.037 A 
ATOM      5  C   UNL     1      -2.688   4.929  25.118  0.00  0.00    +0.001 A 
ATOM      6  C   UNL     1      -2.745   4.227  25.547  0.00  0.00    -0.000 A 
ATOM     28  C   UNL     1      -2.060   3.835  25.792  0.00  0.00    +0.001 A 
ATOM     29  C   UNL     1      -1.319   4.147  25.607  0.00  0.00    +0.037 A 
BRANCH   3   2
ATOM      1  C   UNL     1      -0.111   4.887  24.332  0.00  0.00    +0.252 C 
ATOM      2  O   UNL     1      -0.522   5.161  24.994  0.00  0.00    -0.471 OA
ENDBRANCH   3   2
ENDBRANCH   7   6
ENDBRANCH   8   7
ENDBRANCH  11   9
ENDBRANCH  12  11
BRANCH  18  19
ATOM     19  C   UNL     1      -3.803  -0.569  24.283  0.00  0.00    +0.119 C 
BRANCH  19  20
ATOM     20  N   UNL     1      -4.270  -1.222  24.476  0.00  0.00    -0.082 NA
BRANCH  20  21
ATOM     21  S   UNL     1      -3.981  -1.984  24.357  0.00  0.00    +0.059 S 
ATOM     22  C   UNL     1      -3.692  -2.749  24.238  0.00  0.00    +0.197 C 
ATOM     23  O   UNL     1      -3.660  -1.982  25.117  0.00  0.00    -0.156 OA
ATOM     24  O   UNL     1      -4.302  -1.988  23.597  0.00  0.00    -0.156 OA
ENDBRANCH  20  21
ENDBRANCH  19  20
ENDBRANCH  18  19
TORSDOF 9
ENDMDL
MODEL 3
REMARK VINA RESULT:      -9.4      2.427      5.910
REMARK  Name = 
REMARK  9 active torsions:
REMARK  status: ('A' for Active; 'I' for Inactive)
REMARK    1  A    between atoms: O_2  and  C_3
REMARK    2  A    between atoms: C_6  and  C_7
REMARK    3  A    between atoms: C_7  and  N_8
REMARK    4  A    between atoms: C_9  and  C_11
REMARK    5  A    between atoms: C_11  and  C_12
REMARK    6  A    between atoms: C_14  and  C_15
REMARK    7  A    between atoms: C_18  and  C_19
REMARK    8  A    between atoms: C_19  and  N_20
REMARK    9  A    between atoms: N_20  and  S_21
REMARK                            x       y       z     vdW  Elec       q    Type
REMARK                         _______ _______ _______ _____ _____    ______ ____
ROOT
ATOM     12  C   UNL     1      -1.299   0.050  24.728  0.00  0.00    +0.027 C 
ATOM     13  C   UNL     1      -2.080   0.316  24.742  0.00  0.00    +0.005 C 
ATOM     14  C   UNL     1      -2.700  -0.224  24.675  0.00  0.00    +0.006 C 
ATOM     18  C   UNL     1      -2.540  -1.029  24.595  0.00  0.00    +0.041 C 
ATOM     25  C   UNL     1      -1.759  -1.295  24.582  0.00  0.00    -0.033 C 
ATOM     26  C   UNL     1      -1.138  -0.755  24.648  0.00  0.00    -0.048 C 
ATOM     27  C   UNL     1      -0.358  -1.021  24.635  0.00  0.00    +0.026 C 
ENDROOT
BRANCH  14  15
ATOM     15  C   UNL     1      -3.482   0.042  24.689  0.00  0.00    +0.000 C 
ATOM     16  C   UNL     1      -3.840   0.303  23.993  0.00  0.00    +0.000 C 
ATOM     17  C   UNL     1      -3.904   0.045  25.397  0.00  0.00    +0.000 C 
ENDBRANCH  14  15
BRANCH  12  11
ATOM     11  C   UNL     1      -0.679   0.590  24.795  0.00  0.00    +0.091 C 
BRANCH  11   9
ATOM      8  N   UNL     1      -0.818   1.953  25.201  0.00  0.00    -0.201 NA
ATOM      9  C   UNL     1      -0.692   1.160  25.391  0.00  0.00    +0.242 C 
ATOM     10  O   UNL     1      -0.578   0.938  26.177  0.00  0.00    -0.273 OA
BRANCH   8   7
ATOM      7  C   UNL     1      -0.831   2.522  25.797  0.00  0.00    +0.141 C 
BRANCH   7   6
ATOM      3  C   UNL     1      -1.597   4.822  25.294  0.00  0.00    +0.139 A 
ATOM      4  C   UNL     1      -2.080   4.312  25.725  0.00  0.00    +0.037 A 
ATOM      5  C   UNL     1      -1.825   3.545  25.893  0.00  0.00    +0.001 A 
ATOM      6  C   UNL     1      -1.086   3.289  25.630  0.00  0.00    -0.000 A 
ATOM     28  C   UNL     1      -0.602   3.800  25.198  0.00  0.00    +0.001 A 
ATOM     29  C   UNL     1      -0.858   4.566  25.031  0.00  0.00    +0.037 A 
BRANCH   3   2
ATOM      1  C   UNL     1      -1.376   6.093  24.680  0.00  0.00    +0.252 C 
ATOM      2  O   UNL     1      -1.852   5.588  25.127  0.00  0.00    -0.471 OA
ENDBRANCH   3   2
ENDBRANCH   7   6
ENDBRANCH   8   7
ENDBRANCH  11   9
ENDBRANCH  12  11
BRANCH  18  19
ATOM     19  C   UNL     1      -3.161  -1.569  24.529  0.00  0.00    +0.119 C 
BRANCH  19  20
ATOM     20  N   UNL     1      -3.000  -2.369  24.407  0.00  0.00    -0.082 NA
BRANCH  20  21
ATOM     21  S   UNL     1      -3.620  -2.908  24.340  0.00  0.00    +0.059 S 
ATOM     22  C   UNL     1      -4.241  -3.448  24.272  0.00  0.00    +0.197 C 
ATOM     23  O   UNL     1      -3.655  -2.768  23.527  0.00  0.00    -0.156 OA
ATOM     24  O   UNL     1      -3.587  -3.049  25.152  0.00  0.00    -0.156 OA
ENDBRANCH  20  21
ENDBRANCH  19  20
ENDBRANCH  18  19
TORSDOF 9
ENDMDL
MODEL 4
REMARK VINA RESULT:      -9.4      2.619      4.487
REMARK  Name = 
REMARK  9 active torsions:
REMARK  status: ('A' for Active; 'I' for Inactive)
REMARK    1  A    between atoms: O_2  and  C_3
REMARK    2  A    between atoms: C_6  and  C_7
REMARK    3  A    between atoms: C_7  and  N_8
REMARK    4  A    between atoms: C_9  and  C_11
REMARK    5  A    between atoms: C_11  and  C_12
REMARK    6  A    between atoms: C_14  and  C_15
REMARK    7  A    between atoms: C_18  and  C_19
REMARK    8  A    between atoms: C_19  and  N_20
REMARK    9  A    between atoms: N_20  and  S_21
REMARK                            x       y       z     vdW  Elec       q    Type
REMARK                         _______ _______ _______ _____ _____    ______ ____
ROOT
ATOM     12  C   UNL     1      -1.752  -0.407  24.774  0.00  0.00    +0.027 C 
ATOM     13  C   UNL     1      -1.589   0.387  24.618  0.00  0.00    +0.005 C 
ATOM     14  C   UNL     1      -0.895   0.595  24.223  0.00  0.00    +0.006 C 
ATOM     18  C   UNL     1      -0.365   0.011  23.985  0.00  0.00    +0.041 C 
ATOM     25  C   UNL     1      -0.528  -0.783  24.140  0.00  0.00    -0.033 C 
ATOM     26  C   UNL     1      -1.222  -0.991  24.535  0.00  0.00    -0.048 C 
ATOM     27  C   UNL     1      -1.385  -1.785  24.691  0.00  0.00    +0.026 C 
ENDROOT
BRANCH  14  15
ATOM     15  C   UNL     1      -0.731   1.389  24.067  0.00  0.00    +0.000 C 
ATOM     16  C   UNL     1      -0.291   1.832  24.606  0.00  0.00    +0.000 C 
ATOM     17  C   UNL     1      -1.009   1.739  23.374  0.00  0.00    +0.000 C 
ENDBRANCH  14  15
BRANCH  12  11
ATOM     11  C   UNL     1      -2.446  -0.615  25.169  0.00  0.00    +0.091 C 
BRANCH  11   9
ATOM      8  N   UNL     1      -3.627   0.187  25.110  0.00  0.00    -0.201 NA
ATOM      9  C   UNL     1      -3.179  -0.446  24.830  0.00  0.00    +0.242 C 
ATOM     10  O   UNL     1      -3.464  -0.910  24.211  0.00  0.00    -0.273 OA
BRANCH   8   7
ATOM      7  C   UNL     1      -4.360   0.356  24.771  0.00  0.00    +0.141 C 
BRANCH   7   6
ATOM      3  C   UNL     1      -5.473   2.516  25.243  0.00  0.00    +0.139 A 
ATOM      4  C   UNL     1      -4.926   2.460  24.629  0.00  0.00    +0.037 A 
ATOM      5  C   UNL     1      -4.554   1.740  24.471  0.00  0.00    +0.001 A 
ATOM      6  C   UNL     1      -4.731   1.076  24.928  0.00  0.00    -0.000 A 
ATOM     28  C   UNL     1      -5.279   1.132  25.543  0.00  0.00    +0.001 A 
ATOM     29  C   UNL     1      -5.650   1.852  25.700  0.00  0.00    +0.037 A 
BRANCH   3   2
ATOM      1  C   UNL     1      -5.397   3.888  25.633  0.00  0.00    +0.252 C 
ATOM      2  O   UNL     1      -5.844   3.235  25.400  0.00  0.00    -0.471 OA
ENDBRANCH   3   2
ENDBRANCH   7   6
ENDBRANCH   8   7
ENDBRANCH  11   9
ENDBRANCH  12  11
BRANCH  18  19
ATOM     19  C   UNL     1       0.329   0.219  23.589  0.00  0.00    +0.119 C 
BRANCH  19  20
ATOM     20  N   UNL     1       0.799  -0.365  23.244  0.00  0.00    -0.082 NA
BRANCH  20  21
ATOM     21  S   UNL     1       1.478  -0.154  22.827  0.00  0.00    +0.059 S 
ATOM     22  C   UNL     1       2.158   0.057  22.409  0.00  0.00    +0.197 C 
ATOM     23  O   UNL     1       1.900  -0.111  23.534  0.00  0.00    -0.156 OA
ATOM     24  O   UNL     1       1.056  -0.198  22.119  0.00  0.00    -0.156 OA
ENDBRANCH  20  21
ENDBRANCH  19  20
ENDBRANCH  18  19
TORSDOF 9
ENDMDL
MODEL 5
REMARK VINA RESULT:      -9.3      1.454      2.490
REMARK  Name = 
REMARK  9 active torsions:
REMARK  status: ('A' for Active; 'I' for Inactive)
REMARK    1  A    between atoms: O_2  and  C_3
REMARK    2  A    between atoms: C_6  and  C_7
REMARK    3  A    between atoms: C_7  and  N_8
REMARK    4  A    between atoms: C_9  and  C_11
REMARK    5  A    between atoms: C_11  and  C_12
REMARK    6  A    between atoms: C_14  and  C_15
REMARK    7  A    between atoms: C_18  and  C_19
REMARK    8  A    between atoms: C_19  and  N_20
REMARK    9  A    between atoms: N_20  and  S_21
REMARK                            x       y       z     vdW  Elec       q    Type
REMARK                         _______ _______ _______ _____ _____    ______ ____
ROOT
ATOM     12  C   UNL     1      -0.884   1.420  24.983  0.00  0.00    +0.027 C 
ATOM     13  C   UNL     1      -1.659   1.567  24.738  0.00  0.00    +0.005 C 
ATOM     14  C   UNL     1      -1.948   2.340  24.728  0.00  0.00    +0.006 C 
ATOM     18  C   UNL     1      -1.464   2.964  24.962  0.00  0.00    +0.041 C 
ATOM     25  C   UNL     1      -0.690   2.818  25.207  0.00  0.00    -0.033 C 
ATOM     26  C   UNL     1      -0.400   2.044  25.217  0.00  0.00    -0.048 C 
ATOM     27  C   UNL     1       0.374   1.898  25.462  0.00  0.00    +0.026 C 
ENDROOT
BRANCH  14  15
ATOM     15  C   UNL     1      -2.722   2.487  24.483  0.00  0.00    +0.000 C 
ATOM     16  C   UNL     1      -3.329   2.530  25.040  0.00  0.00    +0.000 C 
ATOM     17  C   UNL     1      -2.889   2.591  23.681  0.00  0.00    +0.000 C 
ENDBRANCH  14  15
BRANCH  12  11
ATOM     11  C   UNL     1      -0.595   0.647  24.993  0.00  0.00    +0.091 C 
BRANCH  11   9
ATOM      8  N   UNL     1      -1.403  -0.530  25.053  0.00  0.00    -0.201 NA
ATOM      9  C   UNL     1      -0.983   0.068  25.435  0.00  0.00    +0.242 C 
ATOM     10  O   UNL     1      -0.951   0.088  26.258  0.00  0.00    -0.273 OA
BRANCH   8   7
ATOM      7  C   UNL     1      -1.790  -1.109  25.495  0.00  0.00    +0.141 C 
BRANCH   7   6
ATOM      3  C   UNL     1      -3.476  -2.566  24.417  0.00  0.00    +0.139 A 
ATOM      4  C   UNL     1      -2.674  -2.744  24.349  0.00  0.00    +0.037 A 
ATOM      5  C   UNL     1      -2.112  -2.258  24.708  0.00  0.00    +0.001 A 
ATOM      6  C   UNL     1      -2.353  -1.595  25.135  0.00  0.00    -0.000 A 
ATOM     28  C   UNL     1      -3.156  -1.417  25.203  0.00  0.00    +0.001 A 
ATOM     29  C   UNL     1      -3.717  -1.902  24.844  0.00  0.00    +0.037 A 
BRANCH   3   2
ATOM      1  C   UNL     1      -4.627  -2.721  23.584  0.00  0.00    +0.252 C 
ATOM      2  O   UNL     1      -4.038  -3.051  24.058  0.00  0.00    -0.471 OA
ENDBRANCH   3   2
ENDBRANCH   7   6
ENDBRANCH   8   7
ENDBRANCH  11   9
ENDBRANCH  12  11
BRANCH  18  19
ATOM     19  C   UNL     1      -1.753   3.737  24.952  0.00  0.00    +0.119 C 
BRANCH  19  20
ATOM     20  N   UNL     1      -1.300   4.352  25.264  0.00  0.00    -0.082 NA
BRANCH  20  21
ATOM     21  S   UNL     1      -1.529   5.135  25.146  0.00  0.00    +0.059 S 
ATOM     22  C   UNL     1      -1.759   5.919  25.026  0.00  0.00    +0.197 C 
ATOM     23  O   UNL     1      -0.971   5.208  24.542  0.00  0.00    -0.156 OA
ATOM     24  O   UNL     1      -2.088   5.063  25.749  0.00  0.00    -0.156 OA
ENDBRANCH  20  21
ENDBRANCH  19  20
ENDBRANCH  18  19
TORSDOF 9
ENDMDL
MODEL 6
REMARK VINA RESULT:      -9.1      1.995      3.327
REMARK  Name = 
REMARK  9 active torsions:
REMARK  status: ('A' for Active; 'I' for Inactive)
REMARK    1  A    between atoms: O_2  and  C_3
REMARK    2  A    between atoms: C_6  and  C_7
REMARK    3  A    between atoms: C_7  and  N_8
REMARK    4  A    between atoms: C_9  and  C_11
REMARK    5  A    between atoms: C_11  and  C_12
REMARK    6  A    between atoms: C_14  and  C_15
REMARK    7  A    between atoms: C_18  and  C_19
REMARK    8  A    between atoms: C_19  and  N_20
REMARK    9  A    between atoms: N_20  and  S_21
REMARK                            x       y       z     vdW  Elec       q    Type
REMARK                         _______ _______ _______ _____ _____    ______ ____
ROOT
ATOM     12  C   UNL     1      -1.710   3.014  24.962  0.00  0.00    +0.027 C 
ATOM     13  C   UNL     1      -2.141   2.751  24.309  0.00  0.00    +0.005 C 
ATOM     14  C   UNL     1      -2.964   2.805  24.309  0.00  0.00    +0.006 C 
ATOM     18  C   UNL     1      -3.356   3.122  24.961  0.00  0.00    +0.041 C 
ATOM     25  C   UNL     1      -2.926   3.385  25.614  0.00  0.00    -0.033 C 
ATOM     26  C   UNL     1      -2.102   3.331  25.614  0.00  0.00    -0.048 C 
ATOM     27  C   UNL     1      -1.672   3.594  26.267  0.00  0.00    +0.026 C 
ENDROOT
BRANCH  14  15
ATOM     15  C   UNL     1      -3.395   2.542  23.656  0.00  0.00    +0.000 C 
ATOM     16  C   UNL     1      -3.640   1.755  23.614  0.00  0.00    +0.000 C 
ATOM     17  C   UNL     1      -3.581   3.065  23.046  0.00  0.00    +0.000 C 
ENDBRANCH  14  15
BRANCH  12  11
ATOM     11  C   UNL     1      -0.887   2.960  24.961  0.00  0.00    +0.091 C 
BRANCH  11   9
ATOM      8  N   UNL     1      -0.507   1.583  24.920  0.00  0.00    -0.201 NA
ATOM      9  C   UNL     1      -0.516   2.332  24.574  0.00  0.00    +0.242 C 
ATOM     10  O   UNL     1      -0.156   2.454  23.843  0.00  0.00    -0.273 OA
BRANCH   8   7
ATOM      7  C   UNL     1      -0.136   0.956  24.533  0.00  0.00    +0.141 C 
BRANCH   7   6
ATOM      3  C   UNL     1      -0.928  -1.361  24.893  0.00  0.00    +0.139 A 
ATOM      4  C   UNL     1      -0.988  -0.806  25.500  0.00  0.00    +0.037 A 
ATOM      5  C   UNL     1      -0.724  -0.034  25.381  0.00  0.00    +0.001 A 
ATOM      6  C   UNL     1      -0.400   0.183  24.653  0.00  0.00    -0.000 A 
ATOM     28  C   UNL     1      -0.340  -0.373  24.046  0.00  0.00    +0.001 A 
ATOM     29  C   UNL     1      -0.604  -1.145  24.166  0.00  0.00    +0.037 A 
BRANCH   3   2
ATOM      1  C   UNL     1      -1.865  -2.405  24.621  0.00  0.00    +0.252 C 
ATOM      2  O   UNL     1      -1.192  -2.133  25.013  0.00  0.00    -0.471 OA
ENDBRANCH   3   2
ENDBRANCH   7   6
ENDBRANCH   8   7
ENDBRANCH  11   9
ENDBRANCH  12  11
BRANCH  18  19
ATOM     19  C   UNL     1      -4.180   3.176  24.961  0.00  0.00    +0.119 C 
BRANCH  19  20
ATOM     20  N   UNL     1      -4.579   3.408  25.646  0.00  0.00    -0.082 NA
BRANCH  20  21
ATOM     21  S   UNL     1      -5.402   3.388  25.670  0.00  0.00    +0.059 S 
ATOM     22  C   UNL     1      -6.227   3.367  25.695  0.00  0.00    +0.197 C 
ATOM     23  O   UNL     1      -5.374   2.627  25.989  0.00  0.00    -0.156 OA
ATOM     24  O   UNL     1      -5.432   4.148  25.352  0.00  0.00    -0.156 OA
ENDBRANCH  20  21
ENDBRANCH  19  20
ENDBRANCH  18  19
TORSDOF 9
ENDMDL
MODEL 7
REMARK VINA RESULT:      -9.1      2.632      4.145
REMARK  Name = 
REMARK  9 active torsions:
REMARK  status: ('A' for Active; 'I' for Inactive)
REMARK    1  A    between atoms: O_2  and  C_3
REMARK    2  A    between atoms: C_6  and  C_7
REMARK    3  A    between atoms: C_7  and  N_8
REMARK    4  A    between atoms: C_9  and  C_11
REMARK    5  A    between atoms: C_11  and  C_12
REMARK    6  A    between atoms: C_14  and  C_15
REMARK    7  A    between atoms: C_18  and  C_19
REMARK    8  A    between atoms: C_19  and  N_20
REMARK    9  A    between atoms: N_20  and  S_21
REMARK                            x       y       z     vdW  Elec       q    Type
REMARK                         _______ _______ _______ _____ _____    ______ ____
ROOT
ATOM     12  C   UNL     1      -3.073   0.036  24.648  0.00  0.00    +0.027 C 
ATOM     13  C   UNL     1      -2.885   0.784  24.354  0.00  0.00    +0.005 C 
ATOM     14  C   UNL     1      -3.413   1.410  24.455  0.00  0.00    +0.006 C 
ATOM     18  C   UNL     1      -4.127   1.289  24.847  0.00  0.00    +0.041 C 
ATOM     25  C   UNL     1      -4.315   0.541  25.140  0.00  0.00    -0.033 C 
ATOM     26  C   UNL     1      -3.787  -0.086  25.040  0.00  0.00    -0.048 C 
ATOM     27  C   UNL     1      -3.976  -0.833  25.333  0.00  0.00    +0.026 C 
ENDROOT
BRANCH  14  15
ATOM     15  C   UNL     1      -3.225   2.159  24.161  0.00  0.00    +0.000 C 
ATOM     16  C   UNL     1      -2.824   2.699  24.638  0.00  0.00    +0.000 C 
ATOM     17  C   UNL     1      -3.438   2.366  23.392  0.00  0.00    +0.000 C 
ENDBRANCH  14  15
BRANCH  12  11
ATOM     11  C   UNL     1      -2.545  -0.590  24.548  0.00  0.00    +0.091 C 
BRANCH  11   9
ATOM      8  N   UNL     1      -1.160  -0.425  24.238  0.00  0.00    -0.201 NA
ATOM      9  C   UNL     1      -1.762  -0.512  24.795  0.00  0.00    +0.242 C 
ATOM     10  O   UNL     1      -1.581  -0.522  25.599  0.00  0.00    -0.273 OA
BRANCH   8   7
ATOM      7  C   UNL     1      -0.378  -0.347  24.486  0.00  0.00    +0.141 C 
BRANCH   7   6
ATOM      3  C   UNL     1       1.399   0.147  22.834  0.00  0.00    +0.139 A 
ATOM      4  C   UNL     1       1.047  -0.599  22.851  0.00  0.00    +0.037 A 
ATOM      5  C   UNL     1       0.455  -0.764  23.401  0.00  0.00    +0.001 A 
ATOM      6  C   UNL     1       0.215  -0.182  23.935  0.00  0.00    -0.000 A 
ATOM     28  C   UNL     1       0.567   0.564  23.918  0.00  0.00    +0.001 A 
ATOM     29  C   UNL     1       1.159   0.728  23.368  0.00  0.00    +0.037 A 
BRANCH   3   2
ATOM      1  C   UNL     1       2.784   0.206  22.486  0.00  0.00    +0.252 C 
ATOM      2  O   UNL     1       1.991   0.311  22.284  0.00  0.00    -0.471 OA
ENDBRANCH   3   2
ENDBRANCH   7   6
ENDBRANCH   8   7
ENDBRANCH  11   9
ENDBRANCH  12  11
BRANCH  18  19
ATOM     19  C   UNL     1      -4.655   1.916  24.947  0.00  0.00    +0.119 C 
BRANCH  19  20
ATOM     20  N   UNL     1      -5.314   1.827  25.435  0.00  0.00    -0.082 NA
BRANCH  20  21
ATOM     21  S   UNL     1      -5.829   2.459  25.552  0.00  0.00    +0.059 S 
ATOM     22  C   UNL     1      -6.346   3.093  25.668  0.00  0.00    +0.197 C 
ATOM     23  O   UNL     1      -6.268   2.224  24.894  0.00  0.00    -0.156 OA
ATOM     24  O   UNL     1      -5.392   2.696  26.210  0.00  0.00    -0.156 OA
ENDBRANCH  20  21
ENDBRANCH  19  20
ENDBRANCH  18  19
TORSDOF 9
ENDMDL
MODEL 8
REMARK VINA RESULT:      -6.5     15.936     18.598
REMARK  Name = 
REMARK  9 active torsions:
REMARK  status: ('A' for Active; 'I' for Inactive)
REMARK    1  A    between atoms: O_2  and  C_3
REMARK    2  A    between atoms: C_6  and  C_7
REMARK    3  A    between atoms: C_7  and  N_8
REMARK    4  A    between atoms: C_9  and  C_11
REMARK    5  A    between atoms: C_11  and  C_12
REMARK    6  A    between atoms: C_14  and  C_15
REMARK    7  A    between atoms: C_18  and  C_19
REMARK    8  A    between atoms: C_19  and  N_20
REMARK    9  A    between atoms: N_20  and  S_21
REMARK                            x       y       z     vdW  Elec       q    Type
REMARK                         _______ _______ _______ _____ _____    ______ ____
ROOT
ATOM     12  C   UNL     1      13.316   7.931  18.783  0.00  0.00    +0.027 C 
ATOM     13  C   UNL     1      13.542   7.827  19.571  0.00  0.00    +0.005 C 
ATOM     14  C   UNL     1      14.253   7.449  19.748  0.00  0.00    +0.006 C 
ATOM     18  C   UNL     1      14.738   7.175  19.140  0.00  0.00    +0.041 C 
ATOM     25  C   UNL     1      14.512   7.279  18.354  0.00  0.00    -0.033 C 
ATOM     26  C   UNL     1      13.800   7.658  18.176  0.00  0.00    -0.048 C 
ATOM     27  C   UNL     1      13.575   7.761  17.389  0.00  0.00    +0.026 C 
ENDROOT
BRANCH  14  15
ATOM     15  C   UNL     1      14.479   7.345  20.535  0.00  0.00    +0.000 C 
ATOM     16  C   UNL     1      14.279   6.650  20.933  0.00  0.00    +0.000 C 
ATOM     17  C   UNL     1      14.905   7.935  20.924  0.00  0.00    +0.000 C 
ENDBRANCH  14  15
BRANCH  12  11
ATOM     11  C   UNL     1      12.605   8.310  18.606  0.00  0.00    +0.091 C 
BRANCH  11   9
ATOM      8  N   UNL     1      11.611   8.540  19.607  0.00  0.00    -0.201 NA
ATOM      9  C   UNL     1      11.910   8.082  18.990  0.00  0.00    +0.242 C 
ATOM     10  O   UNL     1      11.515   7.398  18.756  0.00  0.00    -0.273 OA
BRANCH   8   7
ATOM      7  C   UNL     1      10.917   8.312  19.990  0.00  0.00    +0.141 C 
BRANCH   7   6
ATOM      3  C   UNL     1      10.772   8.431  22.459  0.00  0.00    +0.139 A 
ATOM      4  C   UNL     1      10.574   7.733  22.067  0.00  0.00    +0.037 A 
ATOM      5  C   UNL     1      10.622   7.693  21.244  0.00  0.00    +0.001 A 
ATOM      6  C   UNL     1      10.869   8.352  20.814  0.00  0.00    -0.000 A 
ATOM     28  C   UNL     1      11.068   9.051  21.206  0.00  0.00    +0.001 A 
ATOM     29  C   UNL     1      11.019   9.089  22.028  0.00  0.00    +0.037 A 
BRANCH   3   2
ATOM      1  C   UNL     1      10.308   9.085  23.642  0.00  0.00    +0.252 C 
ATOM      2  O   UNL     1      10.724   8.470  23.281  0.00  0.00    -0.471 OA
ENDBRANCH   3   2
ENDBRANCH   7   6
ENDBRANCH   8   7
ENDBRANCH  11   9
ENDBRANCH  12  11
BRANCH  18  19
ATOM     19  C   UNL     1      15.449   6.796  19.318  0.00  0.00    +0.119 C 
BRANCH  19  20
ATOM     20  N   UNL     1      15.973   6.596  18.713  0.00  0.00    -0.082 NA
BRANCH  20  21
ATOM     21  S   UNL     1      16.679   6.210  18.890  0.00  0.00    +0.059 S 
ATOM     22  C   UNL     1      17.387   5.823  19.068  0.00  0.00    +0.197 C 
ATOM     23  O   UNL     1      16.962   6.893  19.257  0.00  0.00    -0.156 OA
ATOM     24  O   UNL     1      16.398   5.526  18.524  0.00  0.00    -0.156 OA
ENDBRANCH  20  21
ENDBRANCH  19  20
ENDBRANCH  18  19
TORSDOF 9
ENDMDL
