MODEL 1
REMARK VINA RESULT:     -11.4      0.000      0.000
REMARK  Name = 
REMARK  5 active torsions:
REMARK  status: ('A' for Active; 'I' for Inactive)
REMARK    1  A    between atoms: S_2  and  C_5
REMARK    2  A    between atoms: C_8  and  C_9
REMARK    3  A    between atoms: C_9  and  N_10
REMARK    4  A    between atoms: C_15  and  C_16
REMARK    5  A    between atoms: C_18  and  C_21
REMARK                            x       y       z     vdW  Elec       q    Type
REMARK                         _______ _______ _______ _____ _____    ______ ____
ROOT
ATOM     10  N   UNL     1      -4.340   1.573  24.945  0.00  0.00    -0.260 NA
ATOM     11  C   UNL     1      -5.035   1.228  25.228  0.00  0.00    +0.106 C 
ATOM     12  C   UNL     1      -5.534   1.833  25.483  0.00  0.00    +0.170 C 
ATOM     13  O   UNL     1      -6.287   1.736  25.806  0.00  0.00    -0.222 OA
ATOM     14  C   UNL     1      -5.150   2.551  25.357  0.00  0.00    +0.060 C 
ATOM     15  C   UNL     1      -4.412   2.391  25.024  0.00  0.00    +0.140 C 
ENDROOT
BRANCH  15  16
ATOM     16  C   UNL     1      -3.845   2.951  24.809  0.00  0.00    +0.251 A 
ATOM     17  N   UNL     1      -3.229   3.224  25.284  0.00  0.00    -0.194 NA
ATOM     18  C   UNL     1      -2.798   3.777  24.850  0.00  0.00    +0.180 A 
ATOM     19  N   UNL     1      -3.149   3.846  24.105  0.00  0.00    -0.061 NA
ATOM     20  O   UNL     1      -3.795   3.335  24.081  0.00  0.00    -0.336 OA
BRANCH  18  21
ATOM     21  C   UNL     1      -2.134   4.190  25.113  0.00  0.00    +0.062 C 
ATOM     22  C   UNL     1      -1.345   4.195  25.354  0.00  0.00    +0.008 C 
ATOM     23  C   UNL     1      -1.772   4.900  25.328  0.00  0.00    +0.008 C 
ENDBRANCH  18  21
ENDBRANCH  15  16
BRANCH  10   9
ATOM      9  C   UNL     1      -3.690   1.171  24.636  0.00  0.00    +0.100 C 
BRANCH   9   8
ATOM      5  C   UNL     1      -3.707  -1.301  24.512  0.00  0.00    +0.106 A 
ATOM      6  C   UNL     1      -3.469  -0.924  25.207  0.00  0.00    +0.018 A 
ATOM      7  C   UNL     1      -3.464  -0.100  25.248  0.00  0.00    -0.002 A 
ATOM      8  C   UNL     1      -3.696   0.347  24.595  0.00  0.00    -0.006 A 
ATOM     24  C   UNL     1      -3.933  -0.029  23.901  0.00  0.00    -0.002 A 
ATOM     25  C   UNL     1      -3.938  -0.854  23.859  0.00  0.00    +0.018 A 
BRANCH   5   2
ATOM      1  C   UNL     1      -3.717  -2.949  24.431  0.00  0.00    +0.182 C 
ATOM      2  S   UNL     1      -3.712  -2.125  24.471  0.00  0.00    +0.010 S 
ATOM      3  O   UNL     1      -3.087  -2.155  25.009  0.00  0.00    -0.169 OA
ATOM      4  O   UNL     1      -4.337  -2.095  23.934  0.00  0.00    -0.169 OA
ENDBRANCH   5   2
ENDBRANCH   9   8
ENDBRANCH  10   9
TORSDOF 5
ENDMDL
MODEL 2
REMARK VINA RESULT:     -10.7      1.962      4.722
REMARK  Name = 
REMARK  5 active torsions:
REMARK  status: ('A' for Active; 'I' for Inactive)
REMARK    1  A    between atoms: S_2  and  C_5
REMARK    2  A    between atoms: C_8  and  C_9
REMARK    3  A    between atoms: C_9  and  N_10
REMARK    4  A    between atoms: C_15  and  C_16
REMARK    5  A    between atoms: C_18  and  C_21
REMARK                            x       y       z     vdW  Elec       q    Type
REMARK                         _______ _______ _______ _____ _____    ______ ____
ROOT
ATOM     10  N   UNL     1      -3.936   1.569  24.886  0.00  0.00    -0.260 NA
ATOM     11  C   UNL     1      -4.400   2.251  24.867  0.00  0.00    +0.106 C 
ATOM     12  C   UNL     1      -5.186   2.028  24.980  0.00  0.00    +0.170 C 
ATOM     13  O   UNL     1      -5.836   2.536  25.001  0.00  0.00    -0.222 OA
ATOM     14  C   UNL     1      -5.208   1.208  25.068  0.00  0.00    +0.060 C 
ATOM     15  C   UNL     1      -4.435   0.925  25.010  0.00  0.00    +0.140 C 
ENDROOT
BRANCH  15  16
ATOM     16  C   UNL     1      -4.204   0.134  25.066  0.00  0.00    +0.251 A 
ATOM     17  N   UNL     1      -4.233  -0.424  24.460  0.00  0.00    -0.194 NA
ATOM     18  C   UNL     1      -3.950  -1.139  24.757  0.00  0.00    +0.180 A 
ATOM     19  N   UNL     1      -3.745  -1.022  25.548  0.00  0.00    -0.061 NA
ATOM     20  O   UNL     1      -3.902  -0.236  25.739  0.00  0.00    -0.336 OA
BRANCH  18  21
ATOM     21  C   UNL     1      -3.883  -1.846  24.338  0.00  0.00    +0.062 C 
ATOM     22  C   UNL     1      -4.177  -2.376  23.778  0.00  0.00    +0.008 C 
ATOM     23  C   UNL     1      -3.472  -2.543  24.172  0.00  0.00    +0.008 C 
ENDBRANCH  18  21
ENDBRANCH  15  16
BRANCH  10   9
ATOM      9  C   UNL     1      -3.117   1.537  24.796  0.00  0.00    +0.100 C 
BRANCH   9   8
ATOM      5  C   UNL     1      -1.775   3.612  24.924  0.00  0.00    +0.106 A 
ATOM      6  C   UNL     1      -1.938   3.183  25.610  0.00  0.00    +0.018 A 
ATOM      7  C   UNL     1      -2.385   2.492  25.567  0.00  0.00    -0.002 A 
ATOM      8  C   UNL     1      -2.669   2.229  24.839  0.00  0.00    -0.006 A 
ATOM     24  C   UNL     1      -2.507   2.658  24.154  0.00  0.00    -0.002 A 
ATOM     25  C   UNL     1      -2.059   3.350  24.196  0.00  0.00    +0.018 A 
BRANCH   5   2
ATOM      1  C   UNL     1      -0.879   4.996  25.011  0.00  0.00    +0.182 C 
ATOM      2  S   UNL     1      -1.327   4.304  24.968  0.00  0.00    +0.010 S 
ATOM      3  O   UNL     1      -0.673   3.900  24.669  0.00  0.00    -0.169 OA
ATOM      4  O   UNL     1      -1.981   4.710  25.266  0.00  0.00    -0.169 OA
ENDBRANCH   5   2
ENDBRANCH   9   8
ENDBRANCH  10   9
TORSDOF 5
ENDMDL
MODEL 3
REMARK VINA RESULT:     -10.4      2.417      3.325
REMARK  Name = 
REMARK  5 active torsions:
REMARK  status: ('A' for Active; 'I' for Inactive)
REMARK    1  A    between atoms: S_2  and  C_5
REMARK    2  A    between atoms: C_8  and  C_9
REMARK    3  A    between atoms: C_9  and  N_10
REMARK    4  A    between atoms: C_15  and  C_16
REMARK    5  A    between atoms: C_18  and  C_21
REMARK                            x       y       z     vdW  Elec       q    Type
REMARK                         _______ _______ _______ _____ _____    ______ ____
ROOT
ATOM     10  N   UNL     1      -0.673   0.730  24.626  0.00  0.00    -0.260 NA
ATOM     11  C   UNL     1      -0.356   0.166  24.114  0.00  0.00    +0.106 C 
ATOM     12  C   UNL     1       0.275   0.513  23.712  0.00  0.00    +0.170 C 
ATOM     13  O   UNL     1       0.750   0.145  23.145  0.00  0.00    -0.222 OA
ATOM     14  C   UNL     1       0.349   1.290  23.975  0.00  0.00    +0.060 C 
ATOM     15  C   UNL     1      -0.237   1.425  24.541  0.00  0.00    +0.140 C 
ENDROOT
BRANCH  15  16
ATOM     16  C   UNL     1      -0.365   2.131  24.949  0.00  0.00    +0.251 A 
ATOM     17  N   UNL     1      -0.755   2.796  24.656  0.00  0.00    -0.194 NA
ATOM     18  C   UNL     1      -0.756   3.371  25.247  0.00  0.00    +0.180 A 
ATOM     19  N   UNL     1      -0.365   3.061  25.905  0.00  0.00    -0.061 NA
ATOM     20  O   UNL     1      -0.124   2.295  25.720  0.00  0.00    -0.336 OA
BRANCH  18  21
ATOM     21  C   UNL     1      -1.088   4.124  25.191  0.00  0.00    +0.062 C 
ATOM     22  C   UNL     1      -1.721   4.637  25.318  0.00  0.00    +0.008 C 
ATOM     23  C   UNL     1      -1.030   4.916  24.964  0.00  0.00    +0.008 C 
ENDBRANCH  18  21
ENDBRANCH  15  16
BRANCH  10   9
ATOM      9  C   UNL     1      -1.312   0.618  25.135  0.00  0.00    +0.100 C 
BRANCH   9   8
ATOM      5  C   UNL     1      -2.722  -1.406  24.926  0.00  0.00    +0.106 A 
ATOM      6  C   UNL     1      -2.919  -0.721  24.510  0.00  0.00    +0.018 A 
ATOM      7  C   UNL     1      -2.448  -0.047  24.579  0.00  0.00    -0.002 A 
ATOM      8  C   UNL     1      -1.782  -0.057  25.065  0.00  0.00    -0.006 A 
ATOM     24  C   UNL     1      -1.586  -0.741  25.482  0.00  0.00    -0.002 A 
ATOM     25  C   UNL     1      -2.055  -1.416  25.412  0.00  0.00    +0.018 A 
BRANCH   5   2
ATOM      1  C   UNL     1      -3.662  -2.754  24.786  0.00  0.00    +0.182 C 
ATOM      2  S   UNL     1      -3.192  -2.080  24.856  0.00  0.00    +0.010 S 
ATOM      3  O   UNL     1      -2.727  -2.339  24.226  0.00  0.00    -0.169 OA
ATOM      4  O   UNL     1      -3.658  -1.821  25.486  0.00  0.00    -0.169 OA
ENDBRANCH   5   2
ENDBRANCH   9   8
ENDBRANCH  10   9
TORSDOF 5
ENDMDL
MODEL 4
REMARK VINA RESULT:     -10.2      2.863      5.581
REMARK  Name = 
REMARK  5 active torsions:
REMARK  status: ('A' for Active; 'I' for Inactive)
REMARK    1  A    between atoms: S_2  and  C_5
REMARK    2  A    between atoms: C_8  and  C_9
REMARK    3  A    between atoms: C_9  and  N_10
REMARK    4  A    between atoms: C_15  and  C_16
REMARK    5  A    between atoms: C_18  and  C_21
REMARK                            x       y       z     vdW  Elec       q    Type
REMARK                         _______ _______ _______ _____ _____    ______ ____
ROOT
ATOM     10  N   UNL     1      -0.904   0.758  24.686  0.00  0.00    -0.260 NA
ATOM     11  C   UNL     1      -0.262   1.081  24.280  0.00  0.00    +0.106 C 
ATOM     12  C   UNL     1       0.107   0.473  23.862  0.00  0.00    +0.170 C 
ATOM     13  O   UNL     1       0.774   0.550  23.382  0.00  0.00    -0.222 OA
ATOM     14  C   UNL     1      -0.306  -0.225  24.010  0.00  0.00    +0.060 C 
ATOM     15  C   UNL     1      -0.931  -0.049  24.519  0.00  0.00    +0.140 C 
ENDROOT
BRANCH  15  16
ATOM     16  C   UNL     1      -1.486  -0.586  24.809  0.00  0.00    +0.251 A 
ATOM     17  N   UNL     1      -2.106  -0.922  24.381  0.00  0.00    -0.194 NA
ATOM     18  C   UNL     1      -2.521  -1.425  24.886  0.00  0.00    +0.180 A 
ATOM     19  N   UNL     1      -2.157  -1.400  25.627  0.00  0.00    -0.061 NA
ATOM     20  O   UNL     1      -1.518  -0.882  25.579  0.00  0.00    -0.336 OA
BRANCH  18  21
ATOM     21  C   UNL     1      -3.184  -1.874  24.686  0.00  0.00    +0.062 C 
ATOM     22  C   UNL     1      -3.568  -2.603  24.646  0.00  0.00    +0.008 C 
ATOM     23  C   UNL     1      -3.949  -1.922  24.380  0.00  0.00    +0.008 C 
ENDBRANCH  18  21
ENDBRANCH  15  16
BRANCH  10   9
ATOM      9  C   UNL     1      -1.427   1.170  25.172  0.00  0.00    +0.100 C 
BRANCH   9   8
ATOM      5  C   UNL     1      -1.434   3.646  25.167  0.00  0.00    +0.106 A 
ATOM      6  C   UNL     1      -0.966   3.235  25.709  0.00  0.00    +0.018 A 
ATOM      7  C   UNL     1      -0.964   2.410  25.710  0.00  0.00    -0.002 A 
ATOM      8  C   UNL     1      -1.430   1.996  25.170  0.00  0.00    -0.006 A 
ATOM     24  C   UNL     1      -1.897   2.405  24.629  0.00  0.00    -0.002 A 
ATOM     25  C   UNL     1      -1.900   3.231  24.627  0.00  0.00    +0.018 A 
BRANCH   5   2
ATOM      1  C   UNL     1      -1.438   5.296  25.164  0.00  0.00    +0.182 C 
ATOM      2  S   UNL     1      -1.437   4.470  25.165  0.00  0.00    +0.010 S 
ATOM      3  O   UNL     1      -0.733   4.472  24.734  0.00  0.00    -0.169 OA
ATOM      4  O   UNL     1      -2.140   4.470  25.597  0.00  0.00    -0.169 OA
ENDBRANCH   5   2
ENDBRANCH   9   8
ENDBRANCH  10   9
TORSDOF 5
ENDMDL
MODEL 5
REMARK VINA RESULT:      -9.8      1.249      1.901
REMARK  Name = 
REMARK  5 active torsions:
REMARK  status: ('A' for Active; 'I' for Inactive)
REMARK    1  A    between atoms: S_2  and  C_5
REMARK    2  A    between atoms: C_8  and  C_9
REMARK    3  A    between atoms: C_9  and  N_10
REMARK    4  A    between atoms: C_15  and  C_16
REMARK    5  A    between atoms: C_18  and  C_21
REMARK                            x       y       z     vdW  Elec       q    Type
REMARK                         _______ _______ _______ _____ _____    ______ ____
ROOT
ATOM     10  N   UNL     1      -3.395   1.392  23.790  0.00  0.00    -0.260 NA
ATOM     11  C   UNL     1      -3.077   1.045  23.111  0.00  0.00    +0.106 C 
ATOM     12  C   UNL     1      -2.775   1.646  22.635  0.00  0.00    +0.170 C 
ATOM     13  O   UNL     1      -2.407   1.546  21.903  0.00  0.00    -0.222 OA
ATOM     14  C   UNL     1      -2.906   2.365  23.018  0.00  0.00    +0.060 C 
ATOM     15  C   UNL     1      -3.289   2.208  23.731  0.00  0.00    +0.140 C 
ENDROOT
BRANCH  15  16
ATOM     16  C   UNL     1      -3.524   2.769  24.289  0.00  0.00    +0.251 A 
ATOM     17  N   UNL     1      -3.055   3.082  24.890  0.00  0.00    -0.194 NA
ATOM     18  C   UNL     1      -3.511   3.621  25.315  0.00  0.00    +0.180 A 
ATOM     19  N   UNL     1      -4.263   3.642  24.976  0.00  0.00    -0.061 NA
ATOM     20  O   UNL     1      -4.271   3.115  24.342  0.00  0.00    -0.336 OA
BRANCH  18  21
ATOM     21  C   UNL     1      -3.259   4.063  25.965  0.00  0.00    +0.062 C 
ATOM     22  C   UNL     1      -3.336   4.274  26.759  0.00  0.00    +0.008 C 
ATOM     23  C   UNL     1      -2.746   4.618  26.297  0.00  0.00    +0.008 C 
ENDBRANCH  18  21
ENDBRANCH  15  16
BRANCH  10   9
ATOM      9  C   UNL     1      -3.755   0.994  24.415  0.00  0.00    +0.100 C 
BRANCH   9   8
ATOM      5  C   UNL     1      -3.615  -1.474  24.557  0.00  0.00    +0.106 A 
ATOM      6  C   UNL     1      -3.029  -1.006  24.904  0.00  0.00    +0.018 A 
ATOM      7  C   UNL     1      -3.077  -0.184  24.856  0.00  0.00    -0.002 A 
ATOM      8  C   UNL     1      -3.709   0.171  24.462  0.00  0.00    -0.006 A 
ATOM     24  C   UNL     1      -4.293  -0.296  24.116  0.00  0.00    -0.002 A 
ATOM     25  C   UNL     1      -4.246  -1.119  24.163  0.00  0.00    +0.018 A 
BRANCH   5   2
ATOM      1  C   UNL     1      -3.520  -3.118  24.652  0.00  0.00    +0.182 C 
ATOM      2  S   UNL     1      -3.567  -2.296  24.605  0.00  0.00    +0.010 S 
ATOM      3  O   UNL     1      -3.746  -2.353  23.802  0.00  0.00    -0.169 OA
ATOM      4  O   UNL     1      -3.388  -2.240  25.409  0.00  0.00    -0.169 OA
ENDBRANCH   5   2
ENDBRANCH   9   8
ENDBRANCH  10   9
TORSDOF 5
ENDMDL
MODEL 6
REMARK VINA RESULT:      -9.2      1.952      2.982
REMARK  Name = 
REMARK  5 active torsions:
REMARK  status: ('A' for Active; 'I' for Inactive)
REMARK    1  A    between atoms: S_2  and  C_5
REMARK    2  A    between atoms: C_8  and  C_9
REMARK    3  A    between atoms: C_9  and  N_10
REMARK    4  A    between atoms: C_15  and  C_16
REMARK    5  A    between atoms: C_18  and  C_21
REMARK                            x       y       z     vdW  Elec       q    Type
REMARK                         _______ _______ _______ _____ _____    ______ ____
ROOT
ATOM     10  N   UNL     1      -1.610   2.072  25.150  0.00  0.00    -0.260 NA
ATOM     11  C   UNL     1      -0.856   1.995  25.477  0.00  0.00    +0.106 C 
ATOM     12  C   UNL     1      -0.681   2.691  25.882  0.00  0.00    +0.170 C 
ATOM     13  O   UNL     1       0.017   2.852  26.291  0.00  0.00    -0.222 OA
ATOM     14  C   UNL     1      -1.326   3.199  25.806  0.00  0.00    +0.060 C 
ATOM     15  C   UNL     1      -1.901   2.816  25.354  0.00  0.00    +0.140 C 
ENDROOT
BRANCH  15  16
ATOM     16  C   UNL     1      -2.637   3.124  25.142  0.00  0.00    +0.251 A 
ATOM     17  N   UNL     1      -3.339   3.036  25.566  0.00  0.00    -0.194 NA
ATOM     18  C   UNL     1      -3.935   3.432  25.156  0.00  0.00    +0.180 A 
ATOM     19  N   UNL     1      -3.601   3.765  24.478  0.00  0.00    -0.061 NA
ATOM     20  O   UNL     1      -2.799   3.575  24.470  0.00  0.00    -0.336 OA
BRANCH  18  21
ATOM     21  C   UNL     1      -4.726   3.485  25.382  0.00  0.00    +0.062 C 
ATOM     22  C   UNL     1      -5.424   3.921  25.446  0.00  0.00    +0.008 C 
ATOM     23  C   UNL     1      -5.400   3.141  25.712  0.00  0.00    +0.008 C 
ENDBRANCH  18  21
ENDBRANCH  15  16
BRANCH  10   9
ATOM      9  C   UNL     1      -2.004   1.504  24.700  0.00  0.00    +0.100 C 
BRANCH   9   8
ATOM      5  C   UNL     1      -1.344  -0.876  24.855  0.00  0.00    +0.106 A 
ATOM      6  C   UNL     1      -1.929  -0.577  25.354  0.00  0.00    +0.018 A 
ATOM      7  C   UNL     1      -2.148   0.216  25.302  0.00  0.00    -0.002 A 
ATOM      8  C   UNL     1      -1.783   0.711  24.752  0.00  0.00    -0.006 A 
ATOM     24  C   UNL     1      -1.199   0.411  24.253  0.00  0.00    -0.002 A 
ATOM     25  C   UNL     1      -0.979  -0.382  24.304  0.00  0.00    +0.018 A 
BRANCH   5   2
ATOM      1  C   UNL     1      -0.904  -2.463  24.959  0.00  0.00    +0.182 C 
ATOM      2  S   UNL     1      -1.124  -1.670  24.907  0.00  0.00    +0.010 S 
ATOM      3  O   UNL     1      -0.492  -1.463  25.395  0.00  0.00    -0.169 OA
ATOM      4  O   UNL     1      -1.756  -1.878  24.418  0.00  0.00    -0.169 OA
ENDBRANCH   5   2
ENDBRANCH   9   8
ENDBRANCH  10   9
TORSDOF 5
ENDMDL
