MODEL 1
REMARK VINA RESULT:     -10.4      0.000      0.000
REMARK  Name = 
REMARK  6 active torsions:
REMARK  status: ('A' for Active; 'I' for Inactive)
REMARK    1  A    between atoms: C_3  and  N_16
REMARK    2  A    between atoms: C_6  and  C_7
REMARK    3  A    between atoms: C_7  and  N_8
REMARK    4  A    between atoms: C_9  and  C_11
REMARK    5  A    between atoms: N_16  and  C_17
REMARK    6  A    between atoms: C_17  and  C_18
REMARK                            x       y       z     vdW  Elec       q    Type
REMARK                         _______ _______ _______ _____ _____    ______ ____
ROOT
ATOM      1  O   UNL     1      -1.155   0.450  24.996  0.00  0.00    -0.219 OA
ATOM      2  C   UNL     1      -1.878   0.845  24.957  0.00  0.00    +0.199 C 
ATOM      3  C   UNL     1      -2.611   0.501  24.799  0.00  0.00    +0.135 C 
ATOM      4  C   UNL     1      -3.181   1.097  24.813  0.00  0.00    +0.162 C 
ATOM      5  O   UNL     1      -2.800   1.810  24.980  0.00  0.00    -0.350 OA
ATOM      6  C   UNL     1      -1.995   1.655  25.069  0.00  0.00    +0.169 C 
ENDROOT
BRANCH   6   7
ATOM      7  C   UNL     1      -1.410   2.210  25.240  0.00  0.00    +0.147 C 
BRANCH   7   8
ATOM      8  N   UNL     1      -1.540   3.008  25.079  0.00  0.00    -0.203 NA
ATOM      9  C   UNL     1      -0.991   3.573  25.325  0.00  0.00    +0.241 C 
ATOM     10  O   UNL     1      -0.313   3.339  25.732  0.00  0.00    -0.273 OA
BRANCH   9  11
ATOM     11  C   UNL     1      -1.121   4.372  25.164  0.00  0.00    +0.078 C 
ATOM     12  C   UNL     1      -0.617   4.870  24.739  0.00  0.00    +0.009 C 
ATOM     13  C   UNL     1      -0.962   5.618  24.712  0.00  0.00    +0.001 C 
ATOM     14  C   UNL     1      -1.679   5.583  25.119  0.00  0.00    +0.001 C 
ATOM     15  C   UNL     1      -1.777   4.814  25.398  0.00  0.00    +0.009 C 
ENDBRANCH   9  11
ENDBRANCH   7   8
ENDBRANCH   6   7
BRANCH   3  16
ATOM     16  N   UNL     1      -2.750  -0.299  24.652  0.00  0.00    -0.209 NA
BRANCH  16  17
ATOM     17  C   UNL     1      -3.507  -0.612  24.752  0.00  0.00    +0.115 C 
BRANCH  17  18
ATOM     18  C   UNL     1      -3.654  -1.402  24.569  0.00  0.00    -0.005 A 
ATOM     19  C   UNL     1      -3.346  -2.001  25.046  0.00  0.00    -0.001 A 
ATOM     20  C   UNL     1      -3.494  -2.791  24.864  0.00  0.00    +0.029 A 
ATOM     21  C   UNL     1      -3.949  -2.984  24.203  0.00  0.00    +0.140 A 
ATOM     22  F   UNL     1      -4.097  -3.775  24.020  0.00  0.00    -0.204 F 
ATOM     23  C   UNL     1      -4.257  -2.386  23.726  0.00  0.00    +0.029 A 
ATOM     24  C   UNL     1      -4.110  -1.595  23.909  0.00  0.00    -0.001 A 
ENDBRANCH  17  18
ENDBRANCH  16  17
ENDBRANCH   3  16
TORSDOF 6
ENDMDL
MODEL 2
REMARK VINA RESULT:     -10.4      1.253      1.365
REMARK  Name = 
REMARK  6 active torsions:
REMARK  status: ('A' for Active; 'I' for Inactive)
REMARK    1  A    between atoms: C_3  and  N_16
REMARK    2  A    between atoms: C_6  and  C_7
REMARK    3  A    between atoms: C_7  and  N_8
REMARK    4  A    between atoms: C_9  and  C_11
REMARK    5  A    between atoms: N_16  and  C_17
REMARK    6  A    between atoms: C_17  and  C_18
REMARK                            x       y       z     vdW  Elec       q    Type
REMARK                         _______ _______ _______ _____ _____    ______ ____
ROOT
ATOM      1  O   UNL     1      -3.988   1.354  25.542  0.00  0.00    -0.219 OA
ATOM      2  C   UNL     1      -3.695   1.460  24.778  0.00  0.00    +0.199 C 
ATOM      3  C   UNL     1      -3.646   0.881  24.192  0.00  0.00    +0.135 C 
ATOM      4  C   UNL     1      -3.321   1.227  23.519  0.00  0.00    +0.162 C 
ATOM      5  O   UNL     1      -3.169   2.020  23.687  0.00  0.00    -0.350 OA
ATOM      6  C   UNL     1      -3.400   2.165  24.465  0.00  0.00    +0.169 C 
ENDROOT
BRANCH   6   7
ATOM      7  C   UNL     1      -3.346   2.885  24.861  0.00  0.00    +0.147 C 
BRANCH   7   8
ATOM      8  N   UNL     1      -2.684   3.366  24.754  0.00  0.00    -0.203 NA
ATOM      9  C   UNL     1      -2.555   4.009  25.256  0.00  0.00    +0.241 C 
ATOM     10  O   UNL     1      -3.088   4.170  25.864  0.00  0.00    -0.273 OA
BRANCH   9  11
ATOM     11  C   UNL     1      -1.893   4.490  25.148  0.00  0.00    +0.078 C 
ATOM     12  C   UNL     1      -1.116   4.230  25.052  0.00  0.00    +0.009 C 
ATOM     13  C   UNL     1      -0.635   4.894  24.963  0.00  0.00    +0.001 C 
ATOM     14  C   UNL     1      -1.115   5.564  25.004  0.00  0.00    +0.001 C 
ATOM     15  C   UNL     1      -1.892   5.314  25.118  0.00  0.00    +0.009 C 
ENDBRANCH   9  11
ENDBRANCH   7   8
ENDBRANCH   6   7
BRANCH   3  16
ATOM     16  N   UNL     1      -3.881   0.094  24.268  0.00  0.00    -0.209 NA
BRANCH  16  17
ATOM     17  C   UNL     1      -3.505  -0.494  23.827  0.00  0.00    +0.115 C 
BRANCH  17  18
ATOM     18  C   UNL     1      -3.581  -1.286  24.045  0.00  0.00    -0.005 A 
ATOM     19  C   UNL     1      -2.999  -1.644  24.509  0.00  0.00    -0.001 A 
ATOM     20  C   UNL     1      -3.075  -2.435  24.727  0.00  0.00    +0.029 A 
ATOM     21  C   UNL     1      -3.732  -2.869  24.481  0.00  0.00    +0.140 A 
ATOM     22  F   UNL     1      -3.807  -3.662  24.700  0.00  0.00    -0.204 F 
ATOM     23  C   UNL     1      -4.313  -2.512  24.018  0.00  0.00    +0.029 A 
ATOM     24  C   UNL     1      -4.237  -1.720  23.800  0.00  0.00    -0.001 A 
ENDBRANCH  17  18
ENDBRANCH  16  17
ENDBRANCH   3  16
TORSDOF 6
ENDMDL
MODEL 3
REMARK VINA RESULT:     -10.2      2.366      6.226
REMARK  Name = 
REMARK  6 active torsions:
REMARK  status: ('A' for Active; 'I' for Inactive)
REMARK    1  A    between atoms: C_3  and  N_16
REMARK    2  A    between atoms: C_6  and  C_7
REMARK    3  A    between atoms: C_7  and  N_8
REMARK    4  A    between atoms: C_9  and  C_11
REMARK    5  A    between atoms: N_16  and  C_17
REMARK    6  A    between atoms: C_17  and  C_18
REMARK                            x       y       z     vdW  Elec       q    Type
REMARK                         _______ _______ _______ _____ _____    ______ ____
ROOT
ATOM      1  O   UNL     1      -3.734   1.921  23.942  0.00  0.00    -0.219 OA
ATOM      2  C   UNL     1      -3.125   1.550  24.358  0.00  0.00    +0.199 C 
ATOM      3  C   UNL     1      -2.463   1.920  24.681  0.00  0.00    +0.135 C 
ATOM      4  C   UNL     1      -2.001   1.342  25.046  0.00  0.00    +0.162 C 
ATOM      5  O   UNL     1      -2.379   0.615  24.949  0.00  0.00    -0.350 OA
ATOM      6  C   UNL     1      -3.073   0.743  24.524  0.00  0.00    +0.169 C 
ENDROOT
BRANCH   6   7
ATOM      7  C   UNL     1      -3.620   0.166  24.303  0.00  0.00    +0.147 C 
BRANCH   7   8
ATOM      8  N   UNL     1      -3.437  -0.632  24.397  0.00  0.00    -0.203 NA
ATOM      9  C   UNL     1      -4.013  -1.207  24.258  0.00  0.00    +0.241 C 
ATOM     10  O   UNL     1      -4.772  -0.981  24.025  0.00  0.00    -0.273 OA
BRANCH   9  11
ATOM     11  C   UNL     1      -3.831  -2.006  24.353  0.00  0.00    +0.078 C 
ATOM     12  C   UNL     1      -3.454  -2.344  25.005  0.00  0.00    +0.009 C 
ATOM     13  C   UNL     1      -3.383  -3.153  24.867  0.00  0.00    +0.001 C 
ATOM     14  C   UNL     1      -3.716  -3.316  24.129  0.00  0.00    +0.001 C 
ATOM     15  C   UNL     1      -3.992  -2.608  23.812  0.00  0.00    +0.009 C 
ENDBRANCH   9  11
ENDBRANCH   7   8
ENDBRANCH   6   7
BRANCH   3  16
ATOM     16  N   UNL     1      -2.292   2.726  24.644  0.00  0.00    -0.209 NA
BRANCH  16  17
ATOM     17  C   UNL     1      -1.754   3.059  25.174  0.00  0.00    +0.115 C 
BRANCH  17  18
ATOM     18  C   UNL     1      -1.566   3.860  25.124  0.00  0.00    -0.005 A 
ATOM     19  C   UNL     1      -2.101   4.427  25.392  0.00  0.00    -0.001 A 
ATOM     20  C   UNL     1      -1.914   5.228  25.342  0.00  0.00    +0.029 A 
ATOM     21  C   UNL     1      -1.190   5.463  25.023  0.00  0.00    +0.140 A 
ATOM     22  F   UNL     1      -1.002   6.265  24.973  0.00  0.00    -0.204 F 
ATOM     23  C   UNL     1      -0.654   4.896  24.754  0.00  0.00    +0.029 A 
ATOM     24  C   UNL     1      -0.842   4.094  24.805  0.00  0.00    -0.001 A 
ENDBRANCH  17  18
ENDBRANCH  16  17
ENDBRANCH   3  16
TORSDOF 6
ENDMDL
MODEL 4
REMARK VINA RESULT:     -10.1      2.364      6.006
REMARK  Name = 
REMARK  6 active torsions:
REMARK  status: ('A' for Active; 'I' for Inactive)
REMARK    1  A    between atoms: C_3  and  N_16
REMARK    2  A    between atoms: C_6  and  C_7
REMARK    3  A    between atoms: C_7  and  N_8
REMARK    4  A    between atoms: C_9  and  C_11
REMARK    5  A    between atoms: N_16  and  C_17
REMARK    6  A    between atoms: C_17  and  C_18
REMARK                            x       y       z     vdW  Elec       q    Type
REMARK                         _______ _______ _______ _____ _____    ______ ____
ROOT
ATOM      1  O   UNL     1      -1.156   0.986  23.741  0.00  0.00    -0.219 OA
ATOM      2  C   UNL     1      -1.121   0.874  24.558  0.00  0.00    +0.199 C 
ATOM      3  C   UNL     1      -1.024   1.466  25.124  0.00  0.00    +0.135 C 
ATOM      4  C   UNL     1      -1.019   1.108  25.867  0.00  0.00    +0.162 C 
ATOM      5  O   UNL     1      -1.113   0.296  25.760  0.00  0.00    -0.350 OA
ATOM      6  C   UNL     1      -1.175   0.151  24.951  0.00  0.00    +0.169 C 
ENDROOT
BRANCH   6   7
ATOM      7  C   UNL     1      -1.275  -0.587  24.597  0.00  0.00    +0.147 C 
BRANCH   7   8
ATOM      8  N   UNL     1      -2.020  -0.940  24.582  0.00  0.00    -0.203 NA
ATOM      9  C   UNL     1      -2.095  -1.739  24.391  0.00  0.00    +0.241 C 
ATOM     10  O   UNL     1      -1.423  -2.185  24.216  0.00  0.00    -0.273 OA
BRANCH   9  11
ATOM     11  C   UNL     1      -2.840  -2.092  24.376  0.00  0.00    +0.078 C 
ATOM     12  C   UNL     1      -3.531  -1.755  24.073  0.00  0.00    +0.009 C 
ATOM     13  C   UNL     1      -4.143  -2.298  24.171  0.00  0.00    +0.001 C 
ATOM     14  C   UNL     1      -3.832  -2.971  24.533  0.00  0.00    +0.001 C 
ATOM     15  C   UNL     1      -3.028  -2.843  24.660  0.00  0.00    +0.009 C 
ENDBRANCH   9  11
ENDBRANCH   7   8
ENDBRANCH   6   7
BRANCH   3  16
ATOM     16  N   UNL     1      -0.947   2.273  24.974  0.00  0.00    -0.209 NA
BRANCH  16  17
ATOM     17  C   UNL     1      -1.030   2.818  25.588  0.00  0.00    +0.115 C 
BRANCH  17  18
ATOM     18  C   UNL     1      -1.163   3.614  25.419  0.00  0.00    -0.005 A 
ATOM     19  C   UNL     1      -0.578   4.060  25.045  0.00  0.00    -0.001 A 
ATOM     20  C   UNL     1      -0.711   4.856  24.876  0.00  0.00    +0.029 A 
ATOM     21  C   UNL     1      -1.429   5.207  25.081  0.00  0.00    +0.140 A 
ATOM     22  F   UNL     1      -1.562   6.003  24.912  0.00  0.00    -0.204 F 
ATOM     23  C   UNL     1      -2.014   4.762  25.455  0.00  0.00    +0.029 A 
ATOM     24  C   UNL     1      -1.881   3.965  25.624  0.00  0.00    -0.001 A 
ENDBRANCH  17  18
ENDBRANCH  16  17
ENDBRANCH   3  16
TORSDOF 6
ENDMDL
MODEL 5
REMARK VINA RESULT:      -7.8      4.196      6.084
REMARK  Name = 
REMARK  6 active torsions:
REMARK  status: ('A' for Active; 'I' for Inactive)
REMARK    1  A    between atoms: C_3  and  N_16
REMARK    2  A    between atoms: C_6  and  C_7
REMARK    3  A    between atoms: C_7  and  N_8
REMARK    4  A    between atoms: C_9  and  C_11
REMARK    5  A    between atoms: N_16  and  C_17
REMARK    6  A    between atoms: C_17  and  C_18
REMARK                            x       y       z     vdW  Elec       q    Type
REMARK                         _______ _______ _______ _____ _____    ______ ____
ROOT
ATOM      1  O   UNL     1       0.523   1.552  24.208  0.00  0.00    -0.219 OA
ATOM      2  C   UNL     1       0.399   0.826  23.836  0.00  0.00    +0.199 C 
ATOM      3  C   UNL     1       0.957   0.404  23.399  0.00  0.00    +0.135 C 
ATOM      4  C   UNL     1       0.599  -0.288  23.129  0.00  0.00    +0.162 C 
ATOM      5  O   UNL     1      -0.180  -0.293  23.398  0.00  0.00    -0.350 OA
ATOM      6  C   UNL     1      -0.304   0.395  23.835  0.00  0.00    +0.169 C 
ENDROOT
BRANCH   6   7
ATOM      7  C   UNL     1      -1.007   0.613  24.206  0.00  0.00    +0.147 C 
BRANCH   7   8
ATOM      8  N   UNL     1      -1.611   0.060  24.305  0.00  0.00    -0.203 NA
ATOM      9  C   UNL     1      -2.317   0.280  24.672  0.00  0.00    +0.241 C 
ATOM     10  O   UNL     1      -2.417   1.053  24.941  0.00  0.00    -0.273 OA
BRANCH   9  11
ATOM     11  C   UNL     1      -2.920  -0.273  24.771  0.00  0.00    +0.078 C 
ATOM     12  C   UNL     1      -3.560  -0.389  24.262  0.00  0.00    +0.009 C 
ATOM     13  C   UNL     1      -4.025  -0.995  24.572  0.00  0.00    +0.001 C 
ATOM     14  C   UNL     1      -3.673  -1.254  25.272  0.00  0.00    +0.001 C 
ATOM     15  C   UNL     1      -2.991  -0.809  25.394  0.00  0.00    +0.009 C 
ENDBRANCH   9  11
ENDBRANCH   7   8
ENDBRANCH   6   7
BRANCH   3  16
ATOM     16  N   UNL     1       1.737   0.634  23.258  0.00  0.00    -0.209 NA
BRANCH  16  17
ATOM     17  C   UNL     1       2.245   0.136  22.839  0.00  0.00    +0.115 C 
BRANCH  17  18
ATOM     18  C   UNL     1       3.062   0.238  22.895  0.00  0.00    -0.005 A 
ATOM     19  C   UNL     1       3.412   0.928  22.610  0.00  0.00    -0.001 A 
ATOM     20  C   UNL     1       4.229   1.030  22.666  0.00  0.00    +0.029 A 
ATOM     21  C   UNL     1       4.695   0.441  23.006  0.00  0.00    +0.140 A 
ATOM     22  F   UNL     1       5.512   0.542  23.062  0.00  0.00    -0.204 F 
ATOM     23  C   UNL     1       4.345  -0.250  23.292  0.00  0.00    +0.029 A 
ATOM     24  C   UNL     1       3.528  -0.351  23.236  0.00  0.00    -0.001 A 
ENDBRANCH  17  18
ENDBRANCH  16  17
ENDBRANCH   3  16
TORSDOF 6
ENDMDL
MODEL 6
REMARK VINA RESULT:      -7.7      3.257      4.753
REMARK  Name = 
REMARK  6 active torsions:
REMARK  status: ('A' for Active; 'I' for Inactive)
REMARK    1  A    between atoms: C_3  and  N_16
REMARK    2  A    between atoms: C_6  and  C_7
REMARK    3  A    between atoms: C_7  and  N_8
REMARK    4  A    between atoms: C_9  and  C_11
REMARK    5  A    between atoms: N_16  and  C_17
REMARK    6  A    between atoms: C_17  and  C_18
REMARK                            x       y       z     vdW  Elec       q    Type
REMARK                         _______ _______ _______ _____ _____    ______ ____
ROOT
ATOM      1  O   UNL     1      -2.128   0.304  24.682  0.00  0.00    -0.219 OA
ATOM      2  C   UNL     1      -1.807   0.974  24.321  0.00  0.00    +0.199 C 
ATOM      3  C   UNL     1      -2.192   1.693  24.205  0.00  0.00    +0.135 C 
ATOM      4  C   UNL     1      -1.668   2.204  23.826  0.00  0.00    +0.162 C 
ATOM      5  O   UNL     1      -0.958   1.801  23.708  0.00  0.00    -0.350 OA
ATOM      6  C   UNL     1      -1.044   1.040  24.014  0.00  0.00    +0.169 C 
ENDROOT
BRANCH   6   7
ATOM      7  C   UNL     1      -0.469   0.449  24.013  0.00  0.00    +0.147 C 
BRANCH   7   8
ATOM      8  N   UNL     1       0.221   0.546  23.571  0.00  0.00    -0.203 NA
ATOM      9  C   UNL     1       0.683  -0.110  23.379  0.00  0.00    +0.241 C 
ATOM     10  O   UNL     1       0.456  -0.863  23.629  0.00  0.00    -0.273 OA
BRANCH   9  11
ATOM     11  C   UNL     1       1.373  -0.014  22.936  0.00  0.00    +0.078 C 
ATOM     12  C   UNL     1       2.048   0.397  23.174  0.00  0.00    +0.009 C 
ATOM     13  C   UNL     1       2.601   0.354  22.563  0.00  0.00    +0.001 C 
ATOM     14  C   UNL     1       2.267  -0.084  21.948  0.00  0.00    +0.001 C 
ATOM     15  C   UNL     1       1.509  -0.310  22.179  0.00  0.00    +0.009 C 
ENDBRANCH   9  11
ENDBRANCH   7   8
ENDBRANCH   6   7
BRANCH   3  16
ATOM     16  N   UNL     1      -2.966   1.871  24.429  0.00  0.00    -0.209 NA
BRANCH  16  17
ATOM     17  C   UNL     1      -3.240   2.648  24.388  0.00  0.00    +0.115 C 
BRANCH  17  18
ATOM     18  C   UNL     1      -3.940   2.860  24.769  0.00  0.00    -0.005 A 
ATOM     19  C   UNL     1      -3.938   3.466  25.329  0.00  0.00    -0.001 A 
ATOM     20  C   UNL     1      -4.638   3.678  25.710  0.00  0.00    +0.029 A 
ATOM     21  C   UNL     1      -5.341   3.284  25.531  0.00  0.00    +0.140 A 
ATOM     22  F   UNL     1      -6.041   3.496  25.912  0.00  0.00    -0.204 F 
ATOM     23  C   UNL     1      -5.343   2.678  24.971  0.00  0.00    +0.029 A 
ATOM     24  C   UNL     1      -4.642   2.466  24.590  0.00  0.00    -0.001 A 
ENDBRANCH  17  18
ENDBRANCH  16  17
ENDBRANCH   3  16
TORSDOF 6
ENDMDL
MODEL 7
REMARK VINA RESULT:      -6.6     14.475     16.427
REMARK  Name = 
REMARK  6 active torsions:
REMARK  status: ('A' for Active; 'I' for Inactive)
REMARK    1  A    between atoms: C_3  and  N_16
REMARK    2  A    between atoms: C_6  and  C_7
REMARK    3  A    between atoms: C_7  and  N_8
REMARK    4  A    between atoms: C_9  and  C_11
REMARK    5  A    between atoms: N_16  and  C_17
REMARK    6  A    between atoms: C_17  and  C_18
REMARK                            x       y       z     vdW  Elec       q    Type
REMARK                         _______ _______ _______ _____ _____    ______ ____
ROOT
ATOM      1  O   UNL     1      -2.879 -10.696  14.259  0.00  0.00    -0.219 OA
ATOM      2  C   UNL     1      -3.659 -10.600  14.009  0.00  0.00    +0.199 C 
ATOM      3  C   UNL     1      -4.324 -10.570  14.495  0.00  0.00    +0.135 C 
ATOM      4  C   UNL     1      -4.987 -10.469  14.015  0.00  0.00    +0.162 C 
ATOM      5  O   UNL     1      -4.731 -10.437  13.231  0.00  0.00    -0.350 OA
ATOM      6  C   UNL     1      -3.911 -10.519  13.227  0.00  0.00    +0.169 C 
ENDROOT
BRANCH   6   7
ATOM      7  C   UNL     1      -3.426 -10.518  12.559  0.00  0.00    +0.147 C 
BRANCH   7   8
ATOM      8  N   UNL     1      -3.688 -10.168  11.860  0.00  0.00    -0.203 NA
ATOM      9  C   UNL     1      -3.218 -10.195  11.183  0.00  0.00    +0.241 C 
ATOM     10  O   UNL     1      -2.485 -10.574  11.206  0.00  0.00    -0.273 OA
BRANCH   9  11
ATOM     11  C   UNL     1      -3.480  -9.844  10.484  0.00  0.00    +0.078 C 
ATOM     12  C   UNL     1      -3.833 -10.234   9.848  0.00  0.00    +0.009 C 
ATOM     13  C   UNL     1      -4.006  -9.673   9.269  0.00  0.00    +0.001 C 
ATOM     14  C   UNL     1      -3.760  -8.937   9.547  0.00  0.00    +0.001 C 
ATOM     15  C   UNL     1      -3.435  -9.042  10.297  0.00  0.00    +0.009 C 
ENDBRANCH   9  11
ENDBRANCH   7   8
ENDBRANCH   6   7
BRANCH   3  16
ATOM     16  N   UNL     1      -4.326 -10.629  15.318  0.00  0.00    -0.209 NA
BRANCH  16  17
ATOM     17  C   UNL     1      -4.953 -10.316  15.753  0.00  0.00    +0.115 C 
BRANCH  17  18
ATOM     18  C   UNL     1      -4.989 -10.432  16.569  0.00  0.00    -0.005 A 
ATOM     19  C   UNL     1      -5.700 -10.319  16.971  0.00  0.00    -0.001 A 
ATOM     20  C   UNL     1      -5.736 -10.435  17.787  0.00  0.00    +0.029 A 
ATOM     21  C   UNL     1      -5.060 -10.665  18.200  0.00  0.00    +0.140 A 
ATOM     22  F   UNL     1      -5.095 -10.781  19.017  0.00  0.00    -0.204 F 
ATOM     23  C   UNL     1      -4.349 -10.778  17.799  0.00  0.00    +0.029 A 
ATOM     24  C   UNL     1      -4.313 -10.662  16.982  0.00  0.00    -0.001 A 
ENDBRANCH  17  18
ENDBRANCH  16  17
ENDBRANCH   3  16
TORSDOF 6
ENDMDL
MODEL 8
REMARK VINA RESULT:      -6.5     19.808     20.977
REMARK  Name = 
REMARK  6 active torsions:
REMARK  status: ('A' for Active; 'I' for Inactive)
REMARK    1  A    between atoms: C_3  and  N_16
REMARK    2  A    between atoms: C_6  and  C_7
REMARK    3  A    between atoms: C_7  and  N_8
REMARK    4  A    between atoms: C_9  and  C_11
REMARK    5  A    between atoms: N_16  and  C_17
REMARK    6  A    between atoms: C_17  and  C_18
REMARK                            x       y       z     vdW  Elec       q    Type
REMARK                         _______ _______ _______ _____ _____    ______ ____
ROOT
ATOM      1  O   UNL     1      16.987  -4.819  25.520  0.00  0.00    -0.219 OA
ATOM      2  C   UNL     1      17.094  -5.228  24.811  0.00  0.00    +0.199 C 
ATOM      3  C   UNL     1      17.166  -4.890  24.062  0.00  0.00    +0.135 C 
ATOM      4  C   UNL     1      17.265  -5.500  23.516  0.00  0.00    +0.162 C 
ATOM      5  O   UNL     1      17.254  -6.215  23.927  0.00  0.00    -0.350 OA
ATOM      6  C   UNL     1      17.149  -6.047  24.728  0.00  0.00    +0.169 C 
ENDROOT
BRANCH   6   7
ATOM      7  C   UNL     1      17.105  -6.601  25.337  0.00  0.00    +0.147 C 
BRANCH   7   8
ATOM      8  N   UNL     1      16.695  -7.307  25.224  0.00  0.00    -0.203 NA
ATOM      9  C   UNL     1      16.680  -7.876  25.822  0.00  0.00    +0.241 C 
ATOM     10  O   UNL     1      17.076  -7.738  26.532  0.00  0.00    -0.273 OA
BRANCH   9  11
ATOM     11  C   UNL     1      16.270  -8.583  25.709  0.00  0.00    +0.078 C 
ATOM     12  C   UNL     1      16.572  -9.270  25.365  0.00  0.00    +0.009 C 
ATOM     13  C   UNL     1      15.975  -9.838  25.363  0.00  0.00    +0.001 C 
ATOM     14  C   UNL     1      15.304  -9.503  25.706  0.00  0.00    +0.001 C 
ATOM     15  C   UNL     1      15.486  -8.728  25.919  0.00  0.00    +0.009 C 
ENDBRANCH   9  11
ENDBRANCH   7   8
ENDBRANCH   6   7
BRANCH   3  16
ATOM     16  N   UNL     1      17.143  -4.083  23.890  0.00  0.00    -0.209 NA
BRANCH  16  17
ATOM     17  C   UNL     1      16.840  -3.824  23.168  0.00  0.00    +0.115 C 
BRANCH  17  18
ATOM     18  C   UNL     1      16.745  -3.017  23.026  0.00  0.00    -0.005 A 
ATOM     19  C   UNL     1      15.992  -2.705  22.901  0.00  0.00    -0.001 A 
ATOM     20  C   UNL     1      15.897  -1.898  22.759  0.00  0.00    +0.029 A 
ATOM     21  C   UNL     1      16.556  -1.403  22.742  0.00  0.00    +0.140 A 
ATOM     22  F   UNL     1      16.462  -0.595  22.600  0.00  0.00    -0.204 F 
ATOM     23  C   UNL     1      17.310  -1.714  22.867  0.00  0.00    +0.029 A 
ATOM     24  C   UNL     1      17.404  -2.521  23.009  0.00  0.00    -0.001 A 
ENDBRANCH  17  18
ENDBRANCH  16  17
ENDBRANCH   3  16
TORSDOF 6
ENDMDL
