MODEL 1
REMARK VINA RESULT:     -13.3      0.000      0.000
REMARK  Name = 
REMARK  7 active torsions:
REMARK  status: ('A' for Active; 'I' for Inactive)
REMARK    1  A    between atoms: C_4  and  C_19
REMARK    2  A    between atoms: N_5  and  C_6
REMARK    3  A    between atoms: C_6  and  C_7
REMARK    4  A    between atoms: C_11  and  O_12
REMARK    5  A    between atoms: O_12  and  C_13
REMARK    6  A    between atoms: C_21  and  C_22
REMARK    7  A    between atoms: C_22  and  C_23
REMARK                            x       y       z     vdW  Elec       q    Type
REMARK                         _______ _______ _______ _____ _____    ______ ____
ROOT
ATOM      1  O   UNL     1      -6.799   1.665  25.209  0.00  0.00    -0.222 OA
ATOM      2  C   UNL     1      -5.996   1.791  25.069  0.00  0.00    +0.170 C 
ATOM      3  C   UNL     1      -5.611   2.521  25.082  0.00  0.00    +0.060 C 
ATOM      4  C   UNL     1      -4.814   2.392  24.911  0.00  0.00    +0.140 C 
ATOM      5  N   UNL     1      -4.707   1.582  24.793  0.00  0.00    -0.260 NA
ATOM     18  C   UNL     1      -5.438   1.211  24.890  0.00  0.00    +0.106 C 
ENDROOT
BRANCH   4  19
ATOM     19  C   UNL     1      -4.227   2.970  24.867  0.00  0.00    +0.251 A 
ATOM     20  N   UNL     1      -3.748   3.223  25.489  0.00  0.00    -0.193 NA
ATOM     21  C   UNL     1      -3.242   3.806  25.198  0.00  0.00    +0.185 A 
ATOM     29  N   UNL     1      -3.408   3.914  24.398  0.00  0.00    -0.060 NA
ATOM     30  O   UNL     1      -4.017   3.397  24.193  0.00  0.00    -0.336 OA
BRANCH  21  22
ATOM     22  C   UNL     1      -2.669   4.211  25.633  0.00  0.00    +0.095 C 
BRANCH  22  23
ATOM     23  C   UNL     1      -1.869   4.056  25.508  0.00  0.00    -0.014 A 
ATOM     24  C   UNL     1      -1.415   4.573  25.054  0.00  0.00    -0.004 A 
ATOM     25  C   UNL     1      -0.614   4.418  24.928  0.00  0.00    -0.000 A 
ATOM     26  C   UNL     1      -0.269   3.744  25.257  0.00  0.00    -0.000 A 
ATOM     27  C   UNL     1      -0.724   3.227  25.711  0.00  0.00    -0.000 A 
ATOM     28  C   UNL     1      -1.523   3.383  25.836  0.00  0.00    -0.004 A 
ENDBRANCH  22  23
ENDBRANCH  21  22
ENDBRANCH   4  19
BRANCH   5   6
ATOM      6  C   UNL     1      -3.995   1.209  24.610  0.00  0.00    +0.100 C 
BRANCH   6   7
ATOM      7  C   UNL     1      -3.905   0.400  24.747  0.00  0.00    -0.003 A 
ATOM      8  C   UNL     1      -3.734   0.127  25.506  0.00  0.00    -0.003 A 
ATOM      9  C   UNL     1      -3.644  -0.681  25.644  0.00  0.00    +0.003 A 
ATOM     10  C   UNL     1      -3.725  -1.217  25.021  0.00  0.00    +0.037 A 
ATOM     11  C   UNL     1      -3.896  -0.944  24.262  0.00  0.00    +0.147 A 
ATOM     17  C   UNL     1      -3.986  -0.135  24.125  0.00  0.00    +0.034 A 
BRANCH  11  12
ATOM     12  O   UNL     1      -3.978  -1.480  23.640  0.00  0.00    -0.404 OA
BRANCH  12  13
ATOM     13  C   UNL     1      -4.141  -2.273  23.797  0.00  0.00    +0.575 C 
ATOM     14  F   UNL     1      -4.304  -3.066  23.955  0.00  0.00    -0.133 F 
ATOM     15  F   UNL     1      -4.949  -2.113  23.771  0.00  0.00    -0.133 F 
ATOM     16  F   UNL     1      -3.333  -2.434  23.824  0.00  0.00    -0.133 F 
ENDBRANCH  12  13
ENDBRANCH  11  12
ENDBRANCH   6   7
ENDBRANCH   5   6
TORSDOF 7
ENDMDL
MODEL 2
REMARK VINA RESULT:     -12.7      2.425      4.822
REMARK  Name = 
REMARK  7 active torsions:
REMARK  status: ('A' for Active; 'I' for Inactive)
REMARK    1  A    between atoms: C_4  and  C_19
REMARK    2  A    between atoms: N_5  and  C_6
REMARK    3  A    between atoms: C_6  and  C_7
REMARK    4  A    between atoms: C_11  and  O_12
REMARK    5  A    between atoms: O_12  and  C_13
REMARK    6  A    between atoms: C_21  and  C_22
REMARK    7  A    between atoms: C_22  and  C_23
REMARK                            x       y       z     vdW  Elec       q    Type
REMARK                         _______ _______ _______ _____ _____    ______ ____
ROOT
ATOM      1  O   UNL     1      -0.530   3.415  25.798  0.00  0.00    -0.222 OA
ATOM      2  C   UNL     1      -0.885   2.762  25.440  0.00  0.00    +0.170 C 
ATOM      3  C   UNL     1      -0.608   1.984  25.466  0.00  0.00    +0.060 C 
ATOM      4  C   UNL     1      -1.131   1.513  25.036  0.00  0.00    +0.140 C 
ATOM      5  N   UNL     1      -1.730   1.999  24.744  0.00  0.00    -0.260 NA
ATOM     18  C   UNL     1      -1.578   2.770  24.994  0.00  0.00    +0.106 C 
ENDROOT
BRANCH   4  19
ATOM     19  C   UNL     1      -1.065   0.699  24.918  0.00  0.00    +0.251 A 
ATOM     20  N   UNL     1      -1.399   0.112  25.391  0.00  0.00    -0.193 NA
ATOM     21  C   UNL     1      -1.194  -0.620  25.071  0.00  0.00    +0.185 A 
ATOM     29  N   UNL     1      -0.733  -0.486  24.400  0.00  0.00    -0.060 NA
ATOM     30  O   UNL     1      -0.653   0.330  24.306  0.00  0.00    -0.336 OA
BRANCH  21  22
ATOM     22  C   UNL     1      -1.411  -1.358  25.370  0.00  0.00    +0.095 C 
BRANCH  22  23
ATOM     23  C   UNL     1      -2.139  -1.688  25.164  0.00  0.00    -0.014 A 
ATOM     24  C   UNL     1      -2.191  -2.204  24.523  0.00  0.00    -0.004 A 
ATOM     25  C   UNL     1      -2.919  -2.534  24.318  0.00  0.00    -0.000 A 
ATOM     26  C   UNL     1      -3.594  -2.348  24.754  0.00  0.00    -0.000 A 
ATOM     27  C   UNL     1      -3.541  -1.831  25.396  0.00  0.00    -0.000 A 
ATOM     28  C   UNL     1      -2.814  -1.502  25.600  0.00  0.00    -0.004 A 
ENDBRANCH  22  23
ENDBRANCH  21  22
ENDBRANCH   4  19
BRANCH   5   6
ATOM      6  C   UNL     1      -2.370   1.756  24.282  0.00  0.00    +0.100 C 
BRANCH   6   7
ATOM      7  C   UNL     1      -3.072   2.190  24.289  0.00  0.00    -0.003 A 
ATOM      8  C   UNL     1      -3.187   2.796  23.742  0.00  0.00    -0.003 A 
ATOM      9  C   UNL     1      -3.889   3.230  23.749  0.00  0.00    +0.003 A 
ATOM     10  C   UNL     1      -4.476   3.056  24.302  0.00  0.00    +0.037 A 
ATOM     11  C   UNL     1      -4.361   2.450  24.849  0.00  0.00    +0.147 A 
ATOM     17  C   UNL     1      -3.658   2.016  24.842  0.00  0.00    +0.034 A 
BRANCH  11  12
ATOM     12  O   UNL     1      -4.947   2.276  25.402  0.00  0.00    -0.404 OA
BRANCH  12  13
ATOM     13  C   UNL     1      -5.663   1.949  25.155  0.00  0.00    +0.575 C 
ATOM     14  F   UNL     1      -6.379   1.622  24.907  0.00  0.00    -0.133 F 
ATOM     15  F   UNL     1      -5.996   2.702  25.120  0.00  0.00    -0.133 F 
ATOM     16  F   UNL     1      -5.331   1.195  25.190  0.00  0.00    -0.133 F 
ENDBRANCH  12  13
ENDBRANCH  11  12
ENDBRANCH   6   7
ENDBRANCH   5   6
TORSDOF 7
ENDMDL
MODEL 3
REMARK VINA RESULT:     -12.7      3.511      6.069
REMARK  Name = 
REMARK  7 active torsions:
REMARK  status: ('A' for Active; 'I' for Inactive)
REMARK    1  A    between atoms: C_4  and  C_19
REMARK    2  A    between atoms: N_5  and  C_6
REMARK    3  A    between atoms: C_6  and  C_7
REMARK    4  A    between atoms: C_11  and  O_12
REMARK    5  A    between atoms: O_12  and  C_13
REMARK    6  A    between atoms: C_21  and  C_22
REMARK    7  A    between atoms: C_22  and  C_23
REMARK                            x       y       z     vdW  Elec       q    Type
REMARK                         _______ _______ _______ _____ _____    ______ ____
ROOT
ATOM      1  O   UNL     1       0.724   0.448  23.223  0.00  0.00    -0.222 OA
ATOM      2  C   UNL     1       0.147   0.480  23.811  0.00  0.00    +0.170 C 
ATOM      3  C   UNL     1      -0.288  -0.160  24.098  0.00  0.00    +0.060 C 
ATOM      4  C   UNL     1      -0.801   0.121  24.681  0.00  0.00    +0.140 C 
ATOM      5  N   UNL     1      -0.682   0.935  24.753  0.00  0.00    -0.260 NA
ATOM     18  C   UNL     1      -0.096   1.156  24.216  0.00  0.00    +0.106 C 
ENDROOT
BRANCH   4  19
ATOM     19  C   UNL     1      -1.337  -0.331  25.114  0.00  0.00    +0.251 A 
ATOM     20  N   UNL     1      -2.140  -0.422  24.948  0.00  0.00    -0.193 NA
ATOM     21  C   UNL     1      -2.463  -0.920  25.522  0.00  0.00    +0.185 A 
ATOM     29  N   UNL     1      -1.861  -1.136  26.042  0.00  0.00    -0.060 NA
ATOM     30  O   UNL     1      -1.165  -0.772  25.790  0.00  0.00    -0.336 OA
BRANCH  21  22
ATOM     22  C   UNL     1      -3.252  -1.159  25.567  0.00  0.00    +0.095 C 
BRANCH  22  23
ATOM     23  C   UNL     1      -3.567  -1.654  24.987  0.00  0.00    -0.014 A 
ATOM     24  C   UNL     1      -3.423  -2.465  25.015  0.00  0.00    -0.004 A 
ATOM     25  C   UNL     1      -3.738  -2.960  24.435  0.00  0.00    -0.000 A 
ATOM     26  C   UNL     1      -4.197  -2.643  23.827  0.00  0.00    -0.000 A 
ATOM     27  C   UNL     1      -4.341  -1.831  23.799  0.00  0.00    -0.000 A 
ATOM     28  C   UNL     1      -4.026  -1.337  24.379  0.00  0.00    -0.004 A 
ENDBRANCH  22  23
ENDBRANCH  21  22
ENDBRANCH   4  19
BRANCH   5   6
ATOM      6  C   UNL     1      -1.079   1.438  25.272  0.00  0.00    +0.100 C 
BRANCH   6   7
ATOM      7  C   UNL     1      -0.811   2.211  25.384  0.00  0.00    -0.003 A 
ATOM      8  C   UNL     1      -0.182   2.359  25.896  0.00  0.00    -0.003 A 
ATOM      9  C   UNL     1       0.086   3.131  26.009  0.00  0.00    +0.003 A 
ATOM     10  C   UNL     1      -0.276   3.755  25.608  0.00  0.00    +0.037 A 
ATOM     11  C   UNL     1      -0.905   3.607  25.096  0.00  0.00    +0.147 A 
ATOM     17  C   UNL     1      -1.173   2.835  24.983  0.00  0.00    +0.034 A 
BRANCH  11  12
ATOM     12  O   UNL     1      -1.266   4.231  24.695  0.00  0.00    -0.404 OA
BRANCH  12  13
ATOM     13  C   UNL     1      -1.362   4.961  25.069  0.00  0.00    +0.575 C 
ATOM     14  F   UNL     1      -1.457   5.690  25.442  0.00  0.00    -0.133 F 
ATOM     15  F   UNL     1      -2.055   4.689  25.422  0.00  0.00    -0.133 F 
ATOM     16  F   UNL     1      -0.668   5.232  24.715  0.00  0.00    -0.133 F 
ENDBRANCH  12  13
ENDBRANCH  11  12
ENDBRANCH   6   7
ENDBRANCH   5   6
TORSDOF 7
ENDMDL
MODEL 4
REMARK VINA RESULT:     -12.5      1.900      3.361
REMARK  Name = 
REMARK  7 active torsions:
REMARK  status: ('A' for Active; 'I' for Inactive)
REMARK    1  A    between atoms: C_4  and  C_19
REMARK    2  A    between atoms: N_5  and  C_6
REMARK    3  A    between atoms: C_6  and  C_7
REMARK    4  A    between atoms: C_11  and  O_12
REMARK    5  A    between atoms: O_12  and  C_13
REMARK    6  A    between atoms: C_21  and  C_22
REMARK    7  A    between atoms: C_22  and  C_23
REMARK                            x       y       z     vdW  Elec       q    Type
REMARK                         _______ _______ _______ _____ _____    ______ ____
ROOT
ATOM      1  O   UNL     1       0.230   0.407  23.353  0.00  0.00    -0.222 OA
ATOM      2  C   UNL     1      -0.409   0.590  23.841  0.00  0.00    +0.170 C 
ATOM      3  C   UNL     1      -0.773   1.329  23.908  0.00  0.00    +0.060 C 
ATOM      4  C   UNL     1      -1.386   1.262  24.456  0.00  0.00    +0.140 C 
ATOM      5  N   UNL     1      -1.401   0.484  24.728  0.00  0.00    -0.260 NA
ATOM     18  C   UNL     1      -0.798   0.069  24.348  0.00  0.00    +0.106 C 
ENDROOT
BRANCH   4  19
ATOM     19  C   UNL     1      -1.894   1.868  24.691  0.00  0.00    +0.251 A 
ATOM     20  N   UNL     1      -2.581   2.104  24.300  0.00  0.00    -0.193 NA
ATOM     21  C   UNL     1      -2.915   2.727  24.726  0.00  0.00    +0.185 A 
ATOM     29  N   UNL     1      -2.435   2.875  25.381  0.00  0.00    -0.060 NA
ATOM     30  O   UNL     1      -1.804   2.345  25.359  0.00  0.00    -0.336 OA
BRANCH  21  22
ATOM     22  C   UNL     1      -3.608   3.130  24.532  0.00  0.00    +0.095 C 
BRANCH  22  23
ATOM     23  C   UNL     1      -4.333   2.875  24.833  0.00  0.00    -0.014 A 
ATOM     24  C   UNL     1      -4.610   3.176  25.548  0.00  0.00    -0.004 A 
ATOM     25  C   UNL     1      -5.335   2.921  25.850  0.00  0.00    -0.000 A 
ATOM     26  C   UNL     1      -5.781   2.365  25.435  0.00  0.00    -0.000 A 
ATOM     27  C   UNL     1      -5.502   2.063  24.719  0.00  0.00    -0.000 A 
ATOM     28  C   UNL     1      -4.778   2.318  24.419  0.00  0.00    -0.004 A 
ENDBRANCH  22  23
ENDBRANCH  21  22
ENDBRANCH   4  19
BRANCH   5   6
ATOM      6  C   UNL     1      -1.927   0.174  25.283  0.00  0.00    +0.100 C 
BRANCH   6   7
ATOM      7  C   UNL     1      -2.203  -0.600  25.204  0.00  0.00    -0.003 A 
ATOM      8  C   UNL     1      -1.695  -1.235  25.340  0.00  0.00    -0.003 A 
ATOM      9  C   UNL     1      -1.970  -2.008  25.261  0.00  0.00    +0.003 A 
ATOM     10  C   UNL     1      -2.754  -2.147  25.046  0.00  0.00    +0.037 A 
ATOM     11  C   UNL     1      -3.263  -1.512  24.910  0.00  0.00    +0.147 A 
ATOM     17  C   UNL     1      -2.987  -0.738  24.989  0.00  0.00    +0.034 A 
BRANCH  11  12
ATOM     12  O   UNL     1      -4.047  -1.650  24.695  0.00  0.00    -0.404 OA
BRANCH  12  13
ATOM     13  C   UNL     1      -4.234  -1.829  23.911  0.00  0.00    +0.575 C 
ATOM     14  F   UNL     1      -4.420  -2.007  23.127  0.00  0.00    -0.133 F 
ATOM     15  F   UNL     1      -4.162  -2.633  24.076  0.00  0.00    -0.133 F 
ATOM     16  F   UNL     1      -4.306  -1.024  23.745  0.00  0.00    -0.133 F 
ENDBRANCH  12  13
ENDBRANCH  11  12
ENDBRANCH   6   7
ENDBRANCH   5   6
TORSDOF 7
ENDMDL
MODEL 5
REMARK VINA RESULT:     -12.5      2.059      3.193
REMARK  Name = 
REMARK  7 active torsions:
REMARK  status: ('A' for Active; 'I' for Inactive)
REMARK    1  A    between atoms: C_4  and  C_19
REMARK    2  A    between atoms: N_5  and  C_6
REMARK    3  A    between atoms: C_6  and  C_7
REMARK    4  A    between atoms: C_11  and  O_12
REMARK    5  A    between atoms: O_12  and  C_13
REMARK    6  A    between atoms: C_21  and  C_22
REMARK    7  A    between atoms: C_22  and  C_23
REMARK                            x       y       z     vdW  Elec       q    Type
REMARK                         _______ _______ _______ _____ _____    ______ ____
ROOT
ATOM      1  O   UNL     1       0.239  -0.650  23.603  0.00  0.00    -0.222 OA
ATOM      2  C   UNL     1      -0.247  -0.189  24.084  0.00  0.00    +0.170 C 
ATOM      3  C   UNL     1      -0.074   0.566  24.368  0.00  0.00    +0.060 C 
ATOM      4  C   UNL     1      -0.712   0.819  24.826  0.00  0.00    +0.140 C 
ATOM      5  N   UNL     1      -1.279   0.220  24.826  0.00  0.00    -0.260 NA
ATOM     18  C   UNL     1      -0.992  -0.403  24.367  0.00  0.00    +0.106 C 
ENDROOT
BRANCH   4  19
ATOM     19  C   UNL     1      -0.772   1.544  25.215  0.00  0.00    +0.251 A 
ATOM     20  N   UNL     1      -1.102   2.234  24.908  0.00  0.00    -0.193 NA
ATOM     21  C   UNL     1      -1.046   2.822  25.484  0.00  0.00    +0.185 A 
ATOM     29  N   UNL     1      -0.681   2.495  26.148  0.00  0.00    -0.060 NA
ATOM     30  O   UNL     1      -0.511   1.705  25.982  0.00  0.00    -0.336 OA
BRANCH  21  22
ATOM     22  C   UNL     1      -1.309   3.600  25.410  0.00  0.00    +0.095 C 
BRANCH  22  23
ATOM     23  C   UNL     1      -2.116   3.769  25.443  0.00  0.00    -0.014 A 
ATOM     24  C   UNL     1      -2.484   3.883  26.171  0.00  0.00    -0.004 A 
ATOM     25  C   UNL     1      -3.291   4.051  26.204  0.00  0.00    -0.000 A 
ATOM     26  C   UNL     1      -3.729   4.105  25.508  0.00  0.00    -0.000 A 
ATOM     27  C   UNL     1      -3.361   3.990  24.778  0.00  0.00    -0.000 A 
ATOM     28  C   UNL     1      -2.555   3.822  24.746  0.00  0.00    -0.004 A 
ENDBRANCH  22  23
ENDBRANCH  21  22
ENDBRANCH   4  19
BRANCH   5   6
ATOM      6  C   UNL     1      -2.006   0.241  25.215  0.00  0.00    +0.100 C 
BRANCH   6   7
ATOM      7  C   UNL     1      -2.657  -0.156  24.897  0.00  0.00    -0.003 A 
ATOM      8  C   UNL     1      -3.103   0.195  24.299  0.00  0.00    -0.003 A 
ATOM      9  C   UNL     1      -3.752  -0.201  23.982  0.00  0.00    +0.003 A 
ATOM     10  C   UNL     1      -3.956  -0.950  24.262  0.00  0.00    +0.037 A 
ATOM     11  C   UNL     1      -3.510  -1.302  24.860  0.00  0.00    +0.147 A 
ATOM     17  C   UNL     1      -2.859  -0.905  25.178  0.00  0.00    +0.034 A 
BRANCH  11  12
ATOM     12  O   UNL     1      -3.713  -2.051  25.140  0.00  0.00    -0.404 OA
BRANCH  12  13
ATOM     13  C   UNL     1      -3.613  -2.713  24.657  0.00  0.00    +0.575 C 
ATOM     14  F   UNL     1      -3.514  -3.374  24.175  0.00  0.00    -0.133 F 
ATOM     15  F   UNL     1      -4.350  -2.573  24.314  0.00  0.00    -0.133 F 
ATOM     16  F   UNL     1      -2.877  -2.853  25.000  0.00  0.00    -0.133 F 
ENDBRANCH  12  13
ENDBRANCH  11  12
ENDBRANCH   6   7
ENDBRANCH   5   6
TORSDOF 7
ENDMDL
MODEL 6
REMARK VINA RESULT:     -12.4      2.398      3.551
REMARK  Name = 
REMARK  7 active torsions:
REMARK  status: ('A' for Active; 'I' for Inactive)
REMARK    1  A    between atoms: C_4  and  C_19
REMARK    2  A    between atoms: N_5  and  C_6
REMARK    3  A    between atoms: C_6  and  C_7
REMARK    4  A    between atoms: C_11  and  O_12
REMARK    5  A    between atoms: O_12  and  C_13
REMARK    6  A    between atoms: C_21  and  C_22
REMARK    7  A    between atoms: C_22  and  C_23
REMARK                            x       y       z     vdW  Elec       q    Type
REMARK                         _______ _______ _______ _____ _____    ______ ____
ROOT
ATOM      1  O   UNL     1      -0.931  -1.987  25.372  0.00  0.00    -0.222 OA
ATOM      2  C   UNL     1      -1.091  -1.214  25.132  0.00  0.00    +0.170 C 
ATOM      3  C   UNL     1      -0.591  -0.563  25.225  0.00  0.00    +0.060 C 
ATOM      4  C   UNL     1      -0.970   0.097  24.907  0.00  0.00    +0.140 C 
ATOM      5  N   UNL     1      -1.703  -0.145  24.617  0.00  0.00    -0.260 NA
ATOM     18  C   UNL     1      -1.778  -0.955  24.756  0.00  0.00    +0.106 C 
ENDROOT
BRANCH   4  19
ATOM     19  C   UNL     1      -0.668   0.864  24.883  0.00  0.00    +0.251 A 
ATOM     20  N   UNL     1      -0.726   1.427  25.484  0.00  0.00    -0.193 NA
ATOM     21  C   UNL     1      -0.348   2.114  25.225  0.00  0.00    +0.185 A 
ATOM     29  N   UNL     1      -0.058   1.976  24.466  0.00  0.00    -0.060 NA
ATOM     30  O   UNL     1      -0.255   1.204  24.254  0.00  0.00    -0.336 OA
BRANCH  21  22
ATOM     22  C   UNL     1      -0.275   2.816  25.652  0.00  0.00    +0.095 C 
BRANCH  22  23
ATOM     23  C   UNL     1      -0.822   3.424  25.545  0.00  0.00    -0.014 A 
ATOM     24  C   UNL     1      -1.532   3.417  25.963  0.00  0.00    -0.004 A 
ATOM     25  C   UNL     1      -2.080   4.025  25.855  0.00  0.00    -0.000 A 
ATOM     26  C   UNL     1      -1.916   4.639  25.329  0.00  0.00    -0.000 A 
ATOM     27  C   UNL     1      -1.204   4.646  24.911  0.00  0.00    -0.000 A 
ATOM     28  C   UNL     1      -0.658   4.038  25.019  0.00  0.00    -0.004 A 
ENDBRANCH  22  23
ENDBRANCH  21  22
ENDBRANCH   4  19
BRANCH   5   6
ATOM      6  C   UNL     1      -2.264   0.338  24.253  0.00  0.00    +0.100 C 
BRANCH   6   7
ATOM      7  C   UNL     1      -3.068   0.161  24.319  0.00  0.00    -0.003 A 
ATOM      8  C   UNL     1      -3.391  -0.459  23.882  0.00  0.00    -0.003 A 
ATOM      9  C   UNL     1      -4.194  -0.636  23.948  0.00  0.00    +0.003 A 
ATOM     10  C   UNL     1      -4.674  -0.192  24.453  0.00  0.00    +0.037 A 
ATOM     11  C   UNL     1      -4.350   0.427  24.890  0.00  0.00    +0.147 A 
ATOM     17  C   UNL     1      -3.547   0.604  24.824  0.00  0.00    +0.034 A 
BRANCH  11  12
ATOM     12  O   UNL     1      -4.829   0.871  25.395  0.00  0.00    -0.404 OA
BRANCH  12  13
ATOM     13  C   UNL     1      -5.144   1.589  25.138  0.00  0.00    +0.575 C 
ATOM     14  F   UNL     1      -5.459   2.306  24.881  0.00  0.00    -0.133 F 
ATOM     15  F   UNL     1      -4.521   1.991  25.497  0.00  0.00    -0.133 F 
ATOM     16  F   UNL     1      -5.768   1.187  24.778  0.00  0.00    -0.133 F 
ENDBRANCH  12  13
ENDBRANCH  11  12
ENDBRANCH   6   7
ENDBRANCH   5   6
TORSDOF 7
ENDMDL
MODEL 7
REMARK VINA RESULT:     -12.4      3.056      5.624
REMARK  Name = 
REMARK  7 active torsions:
REMARK  status: ('A' for Active; 'I' for Inactive)
REMARK    1  A    between atoms: C_4  and  C_19
REMARK    2  A    between atoms: N_5  and  C_6
REMARK    3  A    between atoms: C_6  and  C_7
REMARK    4  A    between atoms: C_11  and  O_12
REMARK    5  A    between atoms: O_12  and  C_13
REMARK    6  A    between atoms: C_21  and  C_22
REMARK    7  A    between atoms: C_22  and  C_23
REMARK                            x       y       z     vdW  Elec       q    Type
REMARK                         _______ _______ _______ _____ _____    ______ ____
ROOT
ATOM      1  O   UNL     1      -2.767   2.455  22.085  0.00  0.00    -0.222 OA
ATOM      2  C   UNL     1      -2.778   2.165  22.857  0.00  0.00    +0.170 C 
ATOM      3  C   UNL     1      -2.731   1.370  23.077  0.00  0.00    +0.060 C 
ATOM      4  C   UNL     1      -2.761   1.332  23.901  0.00  0.00    +0.140 C 
ATOM      5  N   UNL     1      -2.827   2.102  24.190  0.00  0.00    -0.260 NA
ATOM     18  C   UNL     1      -2.837   2.616  23.544  0.00  0.00    +0.106 C 
ENDROOT
BRANCH   4  19
ATOM     19  C   UNL     1      -2.732   0.644  24.355  0.00  0.00    +0.251 A 
ATOM     20  N   UNL     1      -3.371   0.156  24.540  0.00  0.00    -0.193 NA
ATOM     21  C   UNL     1      -3.091  -0.466  25.003  0.00  0.00    +0.185 A 
ATOM     29  N   UNL     1      -2.279  -0.363  25.105  0.00  0.00    -0.060 NA
ATOM     30  O   UNL     1      -2.057   0.322  24.704  0.00  0.00    -0.336 OA
BRANCH  21  22
ATOM     22  C   UNL     1      -3.544  -1.083  25.311  0.00  0.00    +0.095 C 
BRANCH  22  23
ATOM     23  C   UNL     1      -3.652  -1.774  24.874  0.00  0.00    -0.014 A 
ATOM     24  C   UNL     1      -3.216  -2.449  25.055  0.00  0.00    -0.004 A 
ATOM     25  C   UNL     1      -3.324  -3.140  24.618  0.00  0.00    -0.000 A 
ATOM     26  C   UNL     1      -3.869  -3.155  23.999  0.00  0.00    -0.000 A 
ATOM     27  C   UNL     1      -4.305  -2.478  23.817  0.00  0.00    -0.000 A 
ATOM     28  C   UNL     1      -4.197  -1.789  24.254  0.00  0.00    -0.004 A 
ENDBRANCH  22  23
ENDBRANCH  21  22
ENDBRANCH   4  19
BRANCH   5   6
ATOM      6  C   UNL     1      -2.874   2.319  24.984  0.00  0.00    +0.100 C 
BRANCH   6   7
ATOM      7  C   UNL     1      -2.811   3.114  25.199  0.00  0.00    -0.003 A 
ATOM      8  C   UNL     1      -3.491   3.570  25.296  0.00  0.00    -0.003 A 
ATOM      9  C   UNL     1      -3.428   4.363  25.511  0.00  0.00    +0.003 A 
ATOM     10  C   UNL     1      -2.684   4.702  25.629  0.00  0.00    +0.037 A 
ATOM     11  C   UNL     1      -2.004   4.245  25.532  0.00  0.00    +0.147 A 
ATOM     17  C   UNL     1      -2.067   3.451  25.317  0.00  0.00    +0.034 A 
BRANCH  11  12
ATOM     12  O   UNL     1      -1.261   4.582  25.650  0.00  0.00    -0.404 OA
BRANCH  12  13
ATOM     13  C   UNL     1      -0.907   5.021  25.047  0.00  0.00    +0.575 C 
ATOM     14  F   UNL     1      -0.554   5.459  24.444  0.00  0.00    -0.133 F 
ATOM     15  F   UNL     1      -0.478   4.356  24.814  0.00  0.00    -0.133 F 
ATOM     16  F   UNL     1      -1.335   5.686  25.279  0.00  0.00    -0.133 F 
ENDBRANCH  12  13
ENDBRANCH  11  12
ENDBRANCH   6   7
ENDBRANCH   5   6
TORSDOF 7
ENDMDL
MODEL 8
REMARK VINA RESULT:     -12.3      3.050      5.214
REMARK  Name = 
REMARK  7 active torsions:
REMARK  status: ('A' for Active; 'I' for Inactive)
REMARK    1  A    between atoms: C_4  and  C_19
REMARK    2  A    between atoms: N_5  and  C_6
REMARK    3  A    between atoms: C_6  and  C_7
REMARK    4  A    between atoms: C_11  and  O_12
REMARK    5  A    between atoms: O_12  and  C_13
REMARK    6  A    between atoms: C_21  and  C_22
REMARK    7  A    between atoms: C_22  and  C_23
REMARK                            x       y       z     vdW  Elec       q    Type
REMARK                         _______ _______ _______ _____ _____    ______ ____
ROOT
ATOM      1  O   UNL     1       0.050  -0.490  23.882  0.00  0.00    -0.222 OA
ATOM      2  C   UNL     1      -0.574  -0.134  24.289  0.00  0.00    +0.170 C 
ATOM      3  C   UNL     1      -1.364  -0.370  24.266  0.00  0.00    +0.060 C 
ATOM      4  C   UNL     1      -1.796   0.138  24.754  0.00  0.00    +0.140 C 
ATOM      5  N   UNL     1      -1.271   0.687  25.077  0.00  0.00    -0.260 NA
ATOM     18  C   UNL     1      -0.516   0.518  24.790  0.00  0.00    +0.106 C 
ENDROOT
BRANCH   4  19
ATOM     19  C   UNL     1      -2.608   0.103  24.893  0.00  0.00    +0.251 A 
ATOM     20  N   UNL     1      -3.189   0.516  24.479  0.00  0.00    -0.193 NA
ATOM     21  C   UNL     1      -3.922   0.316  24.802  0.00  0.00    +0.185 A 
ATOM     29  N   UNL     1      -3.793  -0.221  25.414  0.00  0.00    -0.060 NA
ATOM     30  O   UNL     1      -2.981  -0.353  25.471  0.00  0.00    -0.336 OA
BRANCH  21  22
ATOM     22  C   UNL     1      -4.655   0.603  24.554  0.00  0.00    +0.095 C 
BRANCH  22  23
ATOM     23  C   UNL     1      -4.923   1.336  24.822  0.00  0.00    -0.014 A 
ATOM     24  C   UNL     1      -4.717   2.024  24.418  0.00  0.00    -0.004 A 
ATOM     25  C   UNL     1      -4.985   2.756  24.686  0.00  0.00    -0.000 A 
ATOM     26  C   UNL     1      -5.461   2.800  25.359  0.00  0.00    -0.000 A 
ATOM     27  C   UNL     1      -5.667   2.111  25.763  0.00  0.00    -0.000 A 
ATOM     28  C   UNL     1      -5.399   1.379  25.495  0.00  0.00    -0.004 A 
ENDBRANCH  22  23
ENDBRANCH  21  22
ENDBRANCH   4  19
BRANCH   5   6
ATOM      6  C   UNL     1      -1.467   1.297  25.596  0.00  0.00    +0.100 C 
BRANCH   6   7
ATOM      7  C   UNL     1      -1.015   1.988  25.612  0.00  0.00    -0.003 A 
ATOM      8  C   UNL     1      -0.336   2.026  26.078  0.00  0.00    -0.003 A 
ATOM      9  C   UNL     1       0.115   2.716  26.094  0.00  0.00    +0.003 A 
ATOM     10  C   UNL     1      -0.112   3.369  25.642  0.00  0.00    +0.037 A 
ATOM     11  C   UNL     1      -0.791   3.330  25.175  0.00  0.00    +0.147 A 
ATOM     17  C   UNL     1      -1.243   2.639  25.160  0.00  0.00    +0.034 A 
BRANCH  11  12
ATOM     12  O   UNL     1      -1.020   3.981  24.723  0.00  0.00    -0.404 OA
BRANCH  12  13
ATOM     13  C   UNL     1      -1.286   4.668  25.096  0.00  0.00    +0.575 C 
ATOM     14  F   UNL     1      -1.552   5.354  25.468  0.00  0.00    -0.133 F 
ATOM     15  F   UNL     1      -2.045   4.350  25.140  0.00  0.00    -0.133 F 
ATOM     16  F   UNL     1      -0.527   4.986  25.052  0.00  0.00    -0.133 F 
ENDBRANCH  12  13
ENDBRANCH  11  12
ENDBRANCH   6   7
ENDBRANCH   5   6
TORSDOF 7
ENDMDL
MODEL 9
REMARK VINA RESULT:     -12.3      2.402      4.600
REMARK  Name = 
REMARK  7 active torsions:
REMARK  status: ('A' for Active; 'I' for Inactive)
REMARK    1  A    between atoms: C_4  and  C_19
REMARK    2  A    between atoms: N_5  and  C_6
REMARK    3  A    between atoms: C_6  and  C_7
REMARK    4  A    between atoms: C_11  and  O_12
REMARK    5  A    between atoms: O_12  and  C_13
REMARK    6  A    between atoms: C_21  and  C_22
REMARK    7  A    between atoms: C_22  and  C_23
REMARK                            x       y       z     vdW  Elec       q    Type
REMARK                         _______ _______ _______ _____ _____    ______ ____
ROOT
ATOM      1  O   UNL     1      -5.754   3.272  25.910  0.00  0.00    -0.222 OA
ATOM      2  C   UNL     1      -5.182   2.777  25.581  0.00  0.00    +0.170 C 
ATOM      3  C   UNL     1      -5.254   1.964  25.460  0.00  0.00    +0.060 C 
ATOM      4  C   UNL     1      -4.553   1.693  25.120  0.00  0.00    +0.140 C 
ATOM      5  N   UNL     1      -4.047   2.339  25.031  0.00  0.00    -0.260 NA
ATOM     18  C   UNL     1      -4.436   3.009  25.316  0.00  0.00    +0.106 C 
ENDROOT
BRANCH   4  19
ATOM     19  C   UNL     1      -4.387   0.914  24.907  0.00  0.00    +0.251 A 
ATOM     20  N   UNL     1      -4.142   0.313  25.416  0.00  0.00    -0.193 NA
ATOM     21  C   UNL     1      -4.041  -0.373  24.969  0.00  0.00    +0.185 A 
ATOM     29  N   UNL     1      -4.224  -0.197  24.185  0.00  0.00    -0.060 NA
ATOM     30  O   UNL     1      -4.438   0.598  24.146  0.00  0.00    -0.336 OA
BRANCH  21  22
ATOM     22  C   UNL     1      -3.799  -1.108  25.258  0.00  0.00    +0.095 C 
BRANCH  22  23
ATOM     23  C   UNL     1      -3.035  -1.380  25.105  0.00  0.00    -0.014 A 
ATOM     24  C   UNL     1      -2.395  -1.066  25.518  0.00  0.00    -0.004 A 
ATOM     25  C   UNL     1      -1.632  -1.339  25.365  0.00  0.00    -0.000 A 
ATOM     26  C   UNL     1      -1.510  -1.925  24.798  0.00  0.00    -0.000 A 
ATOM     27  C   UNL     1      -2.151  -2.239  24.384  0.00  0.00    -0.000 A 
ATOM     28  C   UNL     1      -2.913  -1.967  24.537  0.00  0.00    -0.004 A 
ENDBRANCH  22  23
ENDBRANCH  21  22
ENDBRANCH   4  19
BRANCH   5   6
ATOM      6  C   UNL     1      -3.286   2.318  24.713  0.00  0.00    +0.100 C 
BRANCH   6   7
ATOM      7  C   UNL     1      -2.716   2.857  24.971  0.00  0.00    -0.003 A 
ATOM      8  C   UNL     1      -2.724   3.632  24.691  0.00  0.00    -0.003 A 
ATOM      9  C   UNL     1      -2.155   4.170  24.948  0.00  0.00    +0.003 A 
ATOM     10  C   UNL     1      -1.576   3.932  25.487  0.00  0.00    +0.037 A 
ATOM     11  C   UNL     1      -1.568   3.156  25.767  0.00  0.00    +0.147 A 
ATOM     17  C   UNL     1      -2.138   2.618  25.509  0.00  0.00    +0.034 A 
BRANCH  11  12
ATOM     12  O   UNL     1      -0.990   2.918  26.305  0.00  0.00    -0.404 OA
BRANCH  12  13
ATOM     13  C   UNL     1      -0.313   2.529  26.037  0.00  0.00    +0.575 C 
ATOM     14  F   UNL     1       0.363   2.140  25.769  0.00  0.00    -0.133 F 
ATOM     15  F   UNL     1       0.041   3.256  25.877  0.00  0.00    -0.133 F 
ATOM     16  F   UNL     1      -0.667   1.802  26.197  0.00  0.00    -0.133 F 
ENDBRANCH  12  13
ENDBRANCH  11  12
ENDBRANCH   6   7
ENDBRANCH   5   6
TORSDOF 7
ENDMDL
