MODEL 1
REMARK VINA RESULT:     -12.0      0.000      0.000
REMARK  Name = 
REMARK  5 active torsions:
REMARK  status: ('A' for Active; 'I' for Inactive)
REMARK    1  A    between atoms: C_3  and  C_8
REMARK    2  A    between atoms: C_11  and  C_13
REMARK    3  A    between atoms: N_17  and  C_18
REMARK    4  A    between atoms: C_18  and  C_19
REMARK    5  A    between atoms: C_22  and  C_25
REMARK                            x       y       z     vdW  Elec       q    Type
REMARK                         _______ _______ _______ _____ _____    ______ ____
ROOT
ATOM     13  C   UNL     1      -4.495   1.931  24.895  0.00  0.00    +0.138 C 
ATOM     14  C   UNL     1      -5.190   2.107  25.304  0.00  0.00    +0.027 C 
ATOM     15  C   UNL     1      -5.572   1.397  25.477  0.00  0.00    +0.019 C 
ATOM     16  C   UNL     1      -5.113   0.781  25.174  0.00  0.00    +0.073 C 
ATOM     17  N   UNL     1      -4.447   1.111  24.815  0.00  0.00    -0.263 NA
ENDROOT
BRANCH  13  11
ATOM      8  C   UNL     1      -2.911   3.320  24.555  0.00  0.00    +0.208 A 
ATOM      9  N   UNL     1      -3.286   3.323  23.819  0.00  0.00    -0.056 NA
ATOM     10  O   UNL     1      -3.925   2.802  23.858  0.00  0.00    -0.336 OA
ATOM     11  C   UNL     1      -3.945   2.479  24.616  0.00  0.00    +0.251 A 
ATOM     12  N   UNL     1      -3.318   2.799  25.047  0.00  0.00    -0.189 NA
BRANCH   8   3
ATOM      1  N   UNL     1      -1.405   2.785  24.143  0.00  0.00    -0.107 NA
ATOM      2  C   UNL     1      -1.493   3.494  24.555  0.00  0.00    +0.176 A 
ATOM      3  C   UNL     1      -2.245   3.762  24.761  0.00  0.00    +0.093 A 
ATOM      4  C   UNL     1      -2.333   4.472  25.173  0.00  0.00    +0.107 A 
ATOM      5  N   UNL     1      -1.667   4.913  25.379  0.00  0.00    -0.222 NA
ATOM      6  C   UNL     1      -0.914   4.645  25.173  0.00  0.00    +0.200 A 
ATOM      7  N   UNL     1      -0.827   3.936  24.761  0.00  0.00    -0.206 NA
ENDBRANCH   8   3
ENDBRANCH  13  11
BRANCH  17  18
ATOM     18  C   UNL     1      -3.841   0.695  24.441  0.00  0.00    +0.099 C 
BRANCH  18  19
ATOM     19  C   UNL     1      -3.794  -0.124  24.521  0.00  0.00    -0.006 A 
ATOM     20  C   UNL     1      -3.365  -0.454  25.143  0.00  0.00    -0.003 A 
ATOM     21  C   UNL     1      -3.317  -1.275  25.222  0.00  0.00    +0.006 A 
ATOM     22  C   UNL     1      -3.699  -1.764  24.678  0.00  0.00    +0.080 A 
ATOM     23  C   UNL     1      -4.128  -1.434  24.056  0.00  0.00    +0.006 A 
ATOM     24  C   UNL     1      -4.175  -0.614  23.977  0.00  0.00    -0.003 A 
BRANCH  22  25
ATOM     25  C   UNL     1      -3.651  -2.584  24.758  0.00  0.00    +0.388 C 
ATOM     26  O   UNL     1      -3.791  -3.071  24.106  0.00  0.00    -0.241 OA
ATOM     27  O   UNL     1      -3.463  -2.917  25.489  0.00  0.00    -0.241 OA
ENDBRANCH  22  25
ENDBRANCH  18  19
ENDBRANCH  17  18
TORSDOF 5
ENDMDL
MODEL 2
REMARK VINA RESULT:     -10.9      1.890      5.137
REMARK  Name = 
REMARK  5 active torsions:
REMARK  status: ('A' for Active; 'I' for Inactive)
REMARK    1  A    between atoms: C_3  and  C_8
REMARK    2  A    between atoms: C_11  and  C_13
REMARK    3  A    between atoms: N_17  and  C_18
REMARK    4  A    between atoms: C_18  and  C_19
REMARK    5  A    between atoms: C_22  and  C_25
REMARK                            x       y       z     vdW  Elec       q    Type
REMARK                         _______ _______ _______ _____ _____    ______ ____
ROOT
ATOM     13  C   UNL     1      -4.429   1.453  24.814  0.00  0.00    +0.138 C 
ATOM     14  C   UNL     1      -5.164   1.761  24.599  0.00  0.00    +0.027 C 
ATOM     15  C   UNL     1      -5.073   2.570  24.466  0.00  0.00    +0.019 C 
ATOM     16  C   UNL     1      -4.281   2.763  24.599  0.00  0.00    +0.073 C 
ATOM     17  N   UNL     1      -3.883   2.072  24.813  0.00  0.00    -0.263 NA
ENDROOT
BRANCH  13  11
ATOM      8  C   UNL     1      -3.980  -0.633  24.875  0.00  0.00    +0.208 A 
ATOM      9  N   UNL     1      -4.061  -0.464  25.678  0.00  0.00    -0.056 NA
ATOM     10  O   UNL     1      -4.239   0.339  25.753  0.00  0.00    -0.336 OA
ATOM     11  C   UNL     1      -4.268   0.665  24.996  0.00  0.00    +0.251 A 
ATOM     12  N   UNL     1      -4.108   0.064  24.453  0.00  0.00    -0.189 NA
BRANCH   8   3
ATOM      1  N   UNL     1      -2.539  -1.359  25.216  0.00  0.00    -0.107 NA
ATOM      2  C   UNL     1      -3.082  -1.733  24.721  0.00  0.00    +0.176 A 
ATOM      3  C   UNL     1      -3.803  -1.370  24.550  0.00  0.00    +0.093 A 
ATOM      4  C   UNL     1      -4.347  -1.744  24.054  0.00  0.00    +0.107 A 
ATOM      5  N   UNL     1      -4.169  -2.481  23.730  0.00  0.00    -0.222 NA
ATOM      6  C   UNL     1      -3.448  -2.845  23.900  0.00  0.00    +0.200 A 
ATOM      7  N   UNL     1      -2.905  -2.470  24.396  0.00  0.00    -0.206 NA
ENDBRANCH   8   3
ENDBRANCH  13  11
BRANCH  17  18
ATOM     18  C   UNL     1      -3.081   2.012  24.996  0.00  0.00    +0.099 C 
BRANCH  18  19
ATOM     19  C   UNL     1      -2.612   2.689  25.020  0.00  0.00    -0.006 A 
ATOM     20  C   UNL     1      -2.168   2.908  24.360  0.00  0.00    -0.003 A 
ATOM     21  C   UNL     1      -1.698   3.586  24.384  0.00  0.00    +0.006 A 
ATOM     22  C   UNL     1      -1.672   4.044  25.069  0.00  0.00    +0.080 A 
ATOM     23  C   UNL     1      -2.115   3.825  25.730  0.00  0.00    +0.006 A 
ATOM     24  C   UNL     1      -2.585   3.148  25.705  0.00  0.00    -0.003 A 
BRANCH  22  25
ATOM     25  C   UNL     1      -1.201   4.722  25.094  0.00  0.00    +0.388 C 
ATOM     26  O   UNL     1      -1.548   5.461  25.216  0.00  0.00    -0.241 OA
ATOM     27  O   UNL     1      -0.384   4.660  24.995  0.00  0.00    -0.241 OA
ENDBRANCH  22  25
ENDBRANCH  18  19
ENDBRANCH  17  18
TORSDOF 5
ENDMDL
MODEL 3
REMARK VINA RESULT:     -10.8      1.846      2.734
REMARK  Name = 
REMARK  5 active torsions:
REMARK  status: ('A' for Active; 'I' for Inactive)
REMARK    1  A    between atoms: C_3  and  C_8
REMARK    2  A    between atoms: C_11  and  C_13
REMARK    3  A    between atoms: N_17  and  C_18
REMARK    4  A    between atoms: C_18  and  C_19
REMARK    5  A    between atoms: C_22  and  C_25
REMARK                            x       y       z     vdW  Elec       q    Type
REMARK                         _______ _______ _______ _____ _____    ______ ____
ROOT
ATOM     13  C   UNL     1      -0.544   0.899  24.667  0.00  0.00    +0.138 C 
ATOM     14  C   UNL     1       0.096   0.732  24.173  0.00  0.00    +0.027 C 
ATOM     15  C   UNL     1      -0.008  -0.027  23.867  0.00  0.00    +0.019 C 
ATOM     16  C   UNL     1      -0.713  -0.330  24.172  0.00  0.00    +0.073 C 
ATOM     17  N   UNL     1      -1.043   0.242  24.666  0.00  0.00    -0.263 NA
ENDROOT
BRANCH  13  11
ATOM      8  C   UNL     1      -0.947   2.869  25.382  0.00  0.00    +0.208 A 
ATOM      9  N   UNL     1      -0.743   2.484  26.083  0.00  0.00    -0.056 NA
ATOM     10  O   UNL     1      -0.567   1.699  25.900  0.00  0.00    -0.336 OA
ATOM     11  C   UNL     1      -0.662   1.599  25.087  0.00  0.00    +0.251 A 
ATOM     12  N   UNL     1      -0.898   2.322  24.767  0.00  0.00    -0.189 NA
BRANCH   8   3
ATOM      1  N   UNL     1      -2.455   3.358  25.841  0.00  0.00    -0.107 NA
ATOM      2  C   UNL     1      -1.917   3.906  25.539  0.00  0.00    +0.176 A 
ATOM      3  C   UNL     1      -1.164   3.662  25.310  0.00  0.00    +0.093 A 
ATOM      4  C   UNL     1      -0.626   4.210  25.008  0.00  0.00    +0.107 A 
ATOM      5  N   UNL     1      -0.842   5.003  24.936  0.00  0.00    -0.222 NA
ATOM      6  C   UNL     1      -1.597   5.248  25.166  0.00  0.00    +0.200 A 
ATOM      7  N   UNL     1      -2.134   4.699  25.467  0.00  0.00    -0.206 NA
ENDBRANCH   8   3
ENDBRANCH  13  11
BRANCH  17  18
ATOM     18  C   UNL     1      -1.750   0.171  25.086  0.00  0.00    +0.099 C 
BRANCH  18  19
ATOM     19  C   UNL     1      -2.288  -0.422  24.889  0.00  0.00    -0.006 A 
ATOM     20  C   UNL     1      -2.229  -1.166  25.240  0.00  0.00    -0.003 A 
ATOM     21  C   UNL     1      -2.768  -1.760  25.043  0.00  0.00    +0.006 A 
ATOM     22  C   UNL     1      -3.366  -1.608  24.495  0.00  0.00    +0.080 A 
ATOM     23  C   UNL     1      -3.425  -0.864  24.145  0.00  0.00    +0.006 A 
ATOM     24  C   UNL     1      -2.887  -0.271  24.341  0.00  0.00    -0.003 A 
BRANCH  22  25
ATOM     25  C   UNL     1      -3.905  -2.202  24.299  0.00  0.00    +0.388 C 
ATOM     26  O   UNL     1      -3.758  -2.983  24.521  0.00  0.00    -0.241 OA
ATOM     27  O   UNL     1      -4.590  -2.013  23.879  0.00  0.00    -0.241 OA
ENDBRANCH  22  25
ENDBRANCH  18  19
ENDBRANCH  17  18
TORSDOF 5
ENDMDL
MODEL 4
REMARK VINA RESULT:     -10.6      2.463      5.726
REMARK  Name = 
REMARK  5 active torsions:
REMARK  status: ('A' for Active; 'I' for Inactive)
REMARK    1  A    between atoms: C_3  and  C_8
REMARK    2  A    between atoms: C_11  and  C_13
REMARK    3  A    between atoms: N_17  and  C_18
REMARK    4  A    between atoms: C_18  and  C_19
REMARK    5  A    between atoms: C_22  and  C_25
REMARK                            x       y       z     vdW  Elec       q    Type
REMARK                         _______ _______ _______ _____ _____    ______ ____
ROOT
ATOM     13  C   UNL     1      -0.709   0.358  24.521  0.00  0.00    +0.138 C 
ATOM     14  C   UNL     1      -0.069   0.194  24.026  0.00  0.00    +0.027 C 
ATOM     15  C   UNL     1       0.357   0.893  23.920  0.00  0.00    +0.019 C 
ATOM     16  C   UNL     1      -0.020   1.489  24.349  0.00  0.00    +0.073 C 
ATOM     17  N   UNL     1      -0.679   1.158  24.720  0.00  0.00    -0.263 NA
ENDROOT
BRANCH  13  11
ATOM      8  C   UNL     1      -2.319  -1.019  24.778  0.00  0.00    +0.208 A 
ATOM      9  N   UNL     1      -1.991  -1.015  25.535  0.00  0.00    -0.056 NA
ATOM     10  O   UNL     1      -1.348  -0.498  25.531  0.00  0.00    -0.336 OA
ATOM     11  C   UNL     1      -1.278  -0.183  24.772  0.00  0.00    +0.251 A 
ATOM     12  N   UNL     1      -1.879  -0.506  24.306  0.00  0.00    -0.189 NA
BRANCH   8   3
ATOM      1  N   UNL     1      -2.191  -2.654  24.597  0.00  0.00    -0.107 NA
ATOM      2  C   UNL     1      -2.909  -2.277  24.445  0.00  0.00    +0.176 A 
ATOM      3  C   UNL     1      -2.973  -1.460  24.535  0.00  0.00    +0.093 A 
ATOM      4  C   UNL     1      -3.691  -1.083  24.384  0.00  0.00    +0.107 A 
ATOM      5  N   UNL     1      -4.345  -1.524  24.141  0.00  0.00    -0.222 NA
ATOM      6  C   UNL     1      -4.281  -2.342  24.051  0.00  0.00    +0.200 A 
ATOM      7  N   UNL     1      -3.562  -2.718  24.203  0.00  0.00    -0.206 NA
ENDBRANCH   8   3
ENDBRANCH  13  11
BRANCH  17  18
ATOM     18  C   UNL     1      -1.213   1.557  25.206  0.00  0.00    +0.099 C 
BRANCH  18  19
ATOM     19  C   UNL     1      -1.243   2.381  25.196  0.00  0.00    -0.006 A 
ATOM     20  C   UNL     1      -1.760   2.769  24.684  0.00  0.00    -0.003 A 
ATOM     21  C   UNL     1      -1.790   3.594  24.675  0.00  0.00    +0.006 A 
ATOM     22  C   UNL     1      -1.303   4.030  25.178  0.00  0.00    +0.080 A 
ATOM     23  C   UNL     1      -0.785   3.641  25.689  0.00  0.00    +0.006 A 
ATOM     24  C   UNL     1      -0.755   2.818  25.699  0.00  0.00    -0.003 A 
BRANCH  22  25
ATOM     25  C   UNL     1      -1.333   4.855  25.168  0.00  0.00    +0.388 C 
ATOM     26  O   UNL     1      -0.705   5.287  24.850  0.00  0.00    -0.241 OA
ATOM     27  O   UNL     1      -1.990   5.246  25.477  0.00  0.00    -0.241 OA
ENDBRANCH  22  25
ENDBRANCH  18  19
ENDBRANCH  17  18
TORSDOF 5
ENDMDL
MODEL 5
REMARK VINA RESULT:     -10.0      3.033      4.684
REMARK  Name = 
REMARK  5 active torsions:
REMARK  status: ('A' for Active; 'I' for Inactive)
REMARK    1  A    between atoms: C_3  and  C_8
REMARK    2  A    between atoms: C_11  and  C_13
REMARK    3  A    between atoms: N_17  and  C_18
REMARK    4  A    between atoms: C_18  and  C_19
REMARK    5  A    between atoms: C_22  and  C_25
REMARK                            x       y       z     vdW  Elec       q    Type
REMARK                         _______ _______ _______ _____ _____    ______ ____
ROOT
ATOM     13  C   UNL     1      -0.937   3.777  25.096  0.00  0.00    +0.138 C 
ATOM     14  C   UNL     1      -0.659   4.513  24.846  0.00  0.00    +0.027 C 
ATOM     15  C   UNL     1      -1.266   5.062  24.947  0.00  0.00    +0.019 C 
ATOM     16  C   UNL     1      -1.919   4.667  25.261  0.00  0.00    +0.073 C 
ATOM     17  N   UNL     1      -1.715   3.872  25.353  0.00  0.00    -0.263 NA
ENDROOT
BRANCH  13  11
ATOM      8  C   UNL     1       0.001   1.900  24.704  0.00  0.00    +0.208 A 
ATOM      9  N   UNL     1       0.289   2.067  25.459  0.00  0.00    -0.056 NA
ATOM     10  O   UNL     1      -0.027   2.791  25.698  0.00  0.00    -0.336 OA
ATOM     11  C   UNL     1      -0.511   3.071  25.091  0.00  0.00    +0.251 A 
ATOM     12  N   UNL     1      -0.493   2.520  24.477  0.00  0.00    -0.189 NA
BRANCH   8   3
ATOM      1  N   UNL     1      -0.802   0.486  24.985  0.00  0.00    -0.107 NA
ATOM      2  C   UNL     1      -0.225   0.523  24.397  0.00  0.00    +0.176 A 
ATOM      3  C   UNL     1       0.176   1.230  24.256  0.00  0.00    +0.093 A 
ATOM      4  C   UNL     1       0.753   1.267  23.667  0.00  0.00    +0.107 A 
ATOM      5  N   UNL     1       0.929   0.597  23.219  0.00  0.00    -0.222 NA
ATOM      6  C   UNL     1       0.527  -0.110  23.360  0.00  0.00    +0.200 A 
ATOM      7  N   UNL     1      -0.049  -0.147  23.948  0.00  0.00    -0.206 NA
ENDBRANCH   8   3
ENDBRANCH  13  11
BRANCH  17  18
ATOM     18  C   UNL     1      -2.204   3.278  25.649  0.00  0.00    +0.099 C 
BRANCH  18  19
ATOM     19  C   UNL     1      -3.024   3.361  25.613  0.00  0.00    -0.006 A 
ATOM     20  C   UNL     1      -3.426   3.743  26.223  0.00  0.00    -0.003 A 
ATOM     21  C   UNL     1      -4.247   3.827  26.188  0.00  0.00    +0.006 A 
ATOM     22  C   UNL     1      -4.664   3.529  25.541  0.00  0.00    +0.080 A 
ATOM     23  C   UNL     1      -4.261   3.147  24.931  0.00  0.00    +0.006 A 
ATOM     24  C   UNL     1      -3.441   3.064  24.967  0.00  0.00    -0.003 A 
BRANCH  22  25
ATOM     25  C   UNL     1      -5.484   3.613  25.506  0.00  0.00    +0.388 C 
ATOM     26  O   UNL     1      -5.828   4.355  25.617  0.00  0.00    -0.241 OA
ATOM     27  O   UNL     1      -5.959   2.955  25.359  0.00  0.00    -0.241 OA
ENDBRANCH  22  25
ENDBRANCH  18  19
ENDBRANCH  17  18
TORSDOF 5
ENDMDL
MODEL 6
REMARK VINA RESULT:      -9.8      1.971      3.293
REMARK  Name = 
REMARK  5 active torsions:
REMARK  status: ('A' for Active; 'I' for Inactive)
REMARK    1  A    between atoms: C_3  and  C_8
REMARK    2  A    between atoms: C_11  and  C_13
REMARK    3  A    between atoms: N_17  and  C_18
REMARK    4  A    between atoms: C_18  and  C_19
REMARK    5  A    between atoms: C_22  and  C_25
REMARK                            x       y       z     vdW  Elec       q    Type
REMARK                         _______ _______ _______ _____ _____    ______ ____
ROOT
ATOM     13  C   UNL     1      -1.458   2.551  25.324  0.00  0.00    +0.138 C 
ATOM     14  C   UNL     1      -0.940   2.970  25.812  0.00  0.00    +0.027 C 
ATOM     15  C   UNL     1      -0.269   2.505  25.930  0.00  0.00    +0.019 C 
ATOM     16  C   UNL     1      -0.372   1.798  25.515  0.00  0.00    +0.073 C 
ATOM     17  N   UNL     1      -1.107   1.827  25.141  0.00  0.00    -0.263 NA
ENDROOT
BRANCH  13  11
ATOM      8  C   UNL     1      -3.506   3.063  25.012  0.00  0.00    +0.208 A 
ATOM      9  N   UNL     1      -3.161   3.360  24.324  0.00  0.00    -0.056 NA
ATOM     10  O   UNL     1      -2.351   3.204  24.357  0.00  0.00    -0.336 OA
ATOM     11  C   UNL     1      -2.196   2.811  25.065  0.00  0.00    +0.251 A 
ATOM     12  N   UNL     1      -2.910   2.724  25.470  0.00  0.00    -0.189 NA
BRANCH   8   3
ATOM      1  N   UNL     1      -4.561   1.964  24.377  0.00  0.00    -0.107 NA
ATOM      2  C   UNL     1      -4.834   2.550  24.890  0.00  0.00    +0.176 A 
ATOM      3  C   UNL     1      -4.307   3.099  25.207  0.00  0.00    +0.093 A 
ATOM      4  C   UNL     1      -4.580   3.685  25.721  0.00  0.00    +0.107 A 
ATOM      5  N   UNL     1      -5.381   3.721  25.916  0.00  0.00    -0.222 NA
ATOM      6  C   UNL     1      -5.909   3.171  25.598  0.00  0.00    +0.200 A 
ATOM      7  N   UNL     1      -5.635   2.586  25.085  0.00  0.00    -0.206 NA
ENDBRANCH   8   3
ENDBRANCH  13  11
BRANCH  17  18
ATOM     18  C   UNL     1      -1.433   1.236  24.667  0.00  0.00    +0.099 C 
BRANCH  18  19
ATOM     19  C   UNL     1      -1.233   0.447  24.796  0.00  0.00    -0.006 A 
ATOM     20  C   UNL     1      -1.618   0.015  25.384  0.00  0.00    -0.003 A 
ATOM     21  C   UNL     1      -1.418  -0.776  25.513  0.00  0.00    +0.006 A 
ATOM     22  C   UNL     1      -0.833  -1.133  25.054  0.00  0.00    +0.080 A 
ATOM     23  C   UNL     1      -0.449  -0.701  24.466  0.00  0.00    +0.006 A 
ATOM     24  C   UNL     1      -0.648   0.088  24.337  0.00  0.00    -0.003 A 
BRANCH  22  25
ATOM     25  C   UNL     1      -0.633  -1.924  25.183  0.00  0.00    +0.388 C 
ATOM     26  O   UNL     1       0.080  -2.114  25.553  0.00  0.00    -0.241 OA
ATOM     27  O   UNL     1      -1.147  -2.523  24.943  0.00  0.00    -0.241 OA
ENDBRANCH  22  25
ENDBRANCH  18  19
ENDBRANCH  17  18
TORSDOF 5
ENDMDL
MODEL 7
REMARK VINA RESULT:      -9.8      2.590      4.517
REMARK  Name = 
REMARK  5 active torsions:
REMARK  status: ('A' for Active; 'I' for Inactive)
REMARK    1  A    between atoms: C_3  and  C_8
REMARK    2  A    between atoms: C_11  and  C_13
REMARK    3  A    between atoms: N_17  and  C_18
REMARK    4  A    between atoms: C_18  and  C_19
REMARK    5  A    between atoms: C_22  and  C_25
REMARK                            x       y       z     vdW  Elec       q    Type
REMARK                         _______ _______ _______ _____ _____    ______ ____
ROOT
ATOM     13  C   UNL     1      -2.190   1.854  23.371  0.00  0.00    +0.138 C 
ATOM     14  C   UNL     1      -2.318   1.894  22.556  0.00  0.00    +0.027 C 
ATOM     15  C   UNL     1      -2.967   2.386  22.424  0.00  0.00    +0.019 C 
ATOM     16  C   UNL     1      -3.241   2.650  23.156  0.00  0.00    +0.073 C 
ATOM     17  N   UNL     1      -2.761   2.321  23.742  0.00  0.00    -0.263 NA
ENDROOT
BRANCH  13  11
ATOM      8  C   UNL     1      -0.934   0.429  24.345  0.00  0.00    +0.208 A 
ATOM      9  N   UNL     1      -0.435   1.085  24.311  0.00  0.00    -0.056 NA
ATOM     10  O   UNL     1      -0.845   1.699  23.942  0.00  0.00    -0.336 OA
ATOM     11  C   UNL     1      -1.597   1.422  23.748  0.00  0.00    +0.251 A 
ATOM     12  N   UNL     1      -1.652   0.637  23.997  0.00  0.00    -0.189 NA
BRANCH   8   3
ATOM      1  N   UNL     1       0.170  -0.546  23.601  0.00  0.00    -0.107 NA
ATOM      2  C   UNL     1      -0.196  -0.793  24.298  0.00  0.00    +0.176 A 
ATOM      3  C   UNL     1      -0.748  -0.306  24.670  0.00  0.00    +0.093 A 
ATOM      4  C   UNL     1      -1.114  -0.553  25.367  0.00  0.00    +0.107 A 
ATOM      5  N   UNL     1      -0.927  -1.288  25.692  0.00  0.00    -0.222 NA
ATOM      6  C   UNL     1      -0.375  -1.776  25.320  0.00  0.00    +0.200 A 
ATOM      7  N   UNL     1      -0.009  -1.528  24.623  0.00  0.00    -0.206 NA
ENDBRANCH   8   3
ENDBRANCH  13  11
BRANCH  17  18
ATOM     18  C   UNL     1      -2.838   2.439  24.554  0.00  0.00    +0.099 C 
BRANCH  18  19
ATOM     19  C   UNL     1      -3.558   2.686  24.869  0.00  0.00    -0.006 A 
ATOM     20  C   UNL     1      -3.667   3.476  25.080  0.00  0.00    -0.003 A 
ATOM     21  C   UNL     1      -4.389   3.724  25.395  0.00  0.00    +0.006 A 
ATOM     22  C   UNL     1      -5.001   3.181  25.498  0.00  0.00    +0.080 A 
ATOM     23  C   UNL     1      -4.893   2.391  25.287  0.00  0.00    +0.006 A 
ATOM     24  C   UNL     1      -4.172   2.144  24.972  0.00  0.00    -0.003 A 
BRANCH  22  25
ATOM     25  C   UNL     1      -5.723   3.429  25.813  0.00  0.00    +0.388 C 
ATOM     26  O   UNL     1      -6.162   2.919  26.291  0.00  0.00    -0.241 OA
ATOM     27  O   UNL     1      -6.004   4.187  25.650  0.00  0.00    -0.241 OA
ENDBRANCH  22  25
ENDBRANCH  18  19
ENDBRANCH  17  18
TORSDOF 5
ENDMDL
