MODEL 1
REMARK VINA RESULT:      -8.5      0.000      0.000
REMARK  Name = 
REMARK  4 active torsions:
REMARK  status: ('A' for Active; 'I' for Inactive)
REMARK    1  A    between atoms: O_2  and  C_3
REMARK    2  A    between atoms: C_5  and  O_6
REMARK    3  A    between atoms: C_8  and  C_11
REMARK    4  A    between atoms: C_26  and  C_28
REMARK                            x       y       z     vdW  Elec       q    Type
REMARK                         _______ _______ _______ _____ _____    ______ ____
ROOT
ATOM     11  C   UNL     1       0.696  -0.076  23.542  0.00  0.00    +0.003 A 
ATOM     12  C   UNL     1       0.111   0.497  23.644  0.00  0.00    +0.006 A 
ATOM     13  C   UNL     1      -0.614   0.290  23.980  0.00  0.00    +0.069 A 
ATOM     14  C   UNL     1      -0.754  -0.489  24.212  0.00  0.00    +0.078 A 
ATOM     15  N   UNL     1      -1.433  -0.809  24.555  0.00  0.00    -0.178 NA
ATOM     16  C   UNL     1      -2.139  -0.430  24.750  0.00  0.00    +0.265 C 
ATOM     17  O   UNL     1      -2.720  -0.907  25.089  0.00  0.00    -0.271 OA
ATOM     18  C   UNL     1      -2.341   0.364  24.650  0.00  0.00    +0.174 C 
ATOM     19  C   UNL     1      -3.106   0.517  24.920  0.00  0.00    +0.123 C 
ATOM     20  N   UNL     1      -3.416   1.279  24.870  0.00  0.00    -0.272 N 
ATOM     21  C   UNL     1      -2.962   1.889  24.551  0.00  0.00    +0.115 C 
ATOM     22  C   UNL     1      -2.196   1.737  24.281  0.00  0.00    +0.116 C 
ATOM     23  N   UNL     1      -1.887   0.974  24.331  0.00  0.00    -0.266 N 
ATOM     24  C   UNL     1      -1.118   0.941  24.033  0.00  0.00    +0.251 C 
ATOM     25  O   UNL     1      -0.813   1.653  23.750  0.00  0.00    -0.270 OA
ATOM     26  C   UNL     1      -4.181   1.432  25.140  0.00  0.00    +0.249 C 
ATOM     27  O   UNL     1      -4.635   0.821  25.459  0.00  0.00    -0.270 OA
ATOM     35  C   UNL     1      -0.169  -1.061  24.109  0.00  0.00    +0.017 A 
ATOM     36  C   UNL     1       0.556  -0.855  23.774  0.00  0.00    +0.001 A 
ENDROOT
BRANCH  26  28
ATOM     28  C   UNL     1      -4.490   2.194  25.090  0.00  0.00    +0.056 A 
ATOM     29  C   UNL     1      -4.901   2.430  24.414  0.00  0.00    +0.005 A 
ATOM     30  C   UNL     1      -5.211   3.193  24.364  0.00  0.00    +0.002 A 
ATOM     31  C   UNL     1      -5.111   3.720  24.990  0.00  0.00    +0.030 A 
ATOM     32  C   UNL     1      -4.701   3.485  25.666  0.00  0.00    +0.140 A 
ATOM     33  F   UNL     1      -4.600   4.013  26.292  0.00  0.00    -0.204 F 
ATOM     34  C   UNL     1      -4.390   2.722  25.716  0.00  0.00    +0.034 A 
ENDBRANCH  26  28
BRANCH  11   8
ATOM      3  C   UNL     1       2.871   0.543  22.537  0.00  0.00    +0.142 A 
ATOM      4  C   UNL     1       2.319   0.117  22.096  0.00  0.00    +0.074 A 
ATOM      5  C   UNL     1       1.594  -0.089  22.431  0.00  0.00    +0.142 A 
ATOM      8  C   UNL     1       1.421   0.130  23.207  0.00  0.00    +0.034 A 
ATOM      9  C   UNL     1       1.973   0.556  23.649  0.00  0.00    +0.006 A 
ATOM     10  C   UNL     1       2.698   0.762  23.313  0.00  0.00    +0.037 A 
BRANCH   3   2
ATOM      1  C   UNL     1       4.259   0.849  22.682  0.00  0.00    +0.252 C 
ATOM      2  O   UNL     1       3.596   0.750  22.202  0.00  0.00    -0.471 OA
ENDBRANCH   3   2
BRANCH   5   6
ATOM      6  O   UNL     1       1.042  -0.514  21.989  0.00  0.00    -0.471 OA
ATOM      7  C   UNL     1       1.175  -0.653  21.187  0.00  0.00    +0.252 C 
ENDBRANCH   5   6
ENDBRANCH  11   8
TORSDOF 4
ENDMDL
MODEL 2
REMARK VINA RESULT:      -8.0      3.583      5.031
REMARK  Name = 
REMARK  4 active torsions:
REMARK  status: ('A' for Active; 'I' for Inactive)
REMARK    1  A    between atoms: O_2  and  C_3
REMARK    2  A    between atoms: C_5  and  O_6
REMARK    3  A    between atoms: C_8  and  C_11
REMARK    4  A    between atoms: C_26  and  C_28
REMARK                            x       y       z     vdW  Elec       q    Type
REMARK                         _______ _______ _______ _____ _____    ______ ____
ROOT
ATOM     11  C   UNL     1      -4.252  -0.469  24.753  0.00  0.00    +0.003 A 
ATOM     12  C   UNL     1      -3.671   0.114  24.692  0.00  0.00    +0.006 A 
ATOM     13  C   UNL     1      -3.850   0.895  24.891  0.00  0.00    +0.069 A 
ATOM     14  C   UNL     1      -4.607   1.091  25.152  0.00  0.00    +0.078 A 
ATOM     15  N   UNL     1      -4.898   1.831  25.377  0.00  0.00    -0.178 NA
ATOM     16  C   UNL     1      -4.503   2.555  25.396  0.00  0.00    +0.265 C 
ATOM     17  O   UNL     1      -4.950   3.200  25.650  0.00  0.00    -0.271 OA
ATOM     18  C   UNL     1      -3.719   2.718  25.196  0.00  0.00    +0.174 C 
ATOM     19  C   UNL     1      -3.544   3.519  25.295  0.00  0.00    +0.123 C 
ATOM     20  N   UNL     1      -2.788   3.799  25.125  0.00  0.00    -0.272 N 
ATOM     21  C   UNL     1      -2.206   3.281  24.856  0.00  0.00    +0.115 C 
ATOM     22  C   UNL     1      -2.380   2.479  24.756  0.00  0.00    +0.116 C 
ATOM     23  N   UNL     1      -3.138   2.200  24.927  0.00  0.00    -0.266 N 
ATOM     24  C   UNL     1      -3.196   1.387  24.791  0.00  0.00    +0.251 C 
ATOM     25  O   UNL     1      -2.509   1.020  24.520  0.00  0.00    -0.270 OA
ATOM     26  C   UNL     1      -2.612   4.600  25.224  0.00  0.00    +0.249 C 
ATOM     27  O   UNL     1      -3.195   5.119  25.493  0.00  0.00    -0.270 OA
ATOM     35  C   UNL     1      -5.187   0.508  25.213  0.00  0.00    +0.017 A 
ATOM     36  C   UNL     1      -5.009  -0.273  25.014  0.00  0.00    +0.001 A 
ENDROOT
BRANCH  26  28
ATOM     28  C   UNL     1      -1.856   4.880  25.054  0.00  0.00    +0.056 A 
ATOM     29  C   UNL     1      -1.760   5.545  24.574  0.00  0.00    +0.005 A 
ATOM     30  C   UNL     1      -1.004   5.826  24.403  0.00  0.00    +0.002 A 
ATOM     31  C   UNL     1      -0.342   5.442  24.712  0.00  0.00    +0.030 A 
ATOM     32  C   UNL     1      -0.437   4.778  25.191  0.00  0.00    +0.140 A 
ATOM     33  F   UNL     1       0.225   4.393  25.500  0.00  0.00    -0.204 F 
ATOM     34  C   UNL     1      -1.194   4.497  25.362  0.00  0.00    +0.034 A 
ENDBRANCH  26  28
BRANCH  11   8
ATOM      3  C   UNL     1      -3.720  -2.811  24.154  0.00  0.00    +0.142 A 
ATOM      4  C   UNL     1      -3.532  -2.524  24.905  0.00  0.00    +0.074 A 
ATOM      5  C   UNL     1      -3.709  -1.744  25.105  0.00  0.00    +0.142 A 
ATOM      8  C   UNL     1      -4.075  -1.250  24.554  0.00  0.00    +0.034 A 
ATOM      9  C   UNL     1      -4.263  -1.537  23.803  0.00  0.00    +0.006 A 
ATOM     10  C   UNL     1      -4.086  -2.318  23.604  0.00  0.00    +0.037 A 
BRANCH   3   2
ATOM      1  C   UNL     1      -2.841  -3.767  23.559  0.00  0.00    +0.252 C 
ATOM      2  O   UNL     1      -3.543  -3.592  23.955  0.00  0.00    -0.471 OA
ENDBRANCH   3   2
BRANCH   5   6
ATOM      6  O   UNL     1      -3.521  -1.457  25.855  0.00  0.00    -0.471 OA
ATOM      7  C   UNL     1      -3.127  -1.942  26.394  0.00  0.00    +0.252 C 
ENDBRANCH   5   6
ENDBRANCH  11   8
TORSDOF 4
ENDMDL
MODEL 3
REMARK VINA RESULT:      -7.3      2.151      6.160
REMARK  Name = 
REMARK  4 active torsions:
REMARK  status: ('A' for Active; 'I' for Inactive)
REMARK    1  A    between atoms: O_2  and  C_3
REMARK    2  A    between atoms: C_5  and  O_6
REMARK    3  A    between atoms: C_8  and  C_11
REMARK    4  A    between atoms: C_26  and  C_28
REMARK                            x       y       z     vdW  Elec       q    Type
REMARK                         _______ _______ _______ _____ _____    ______ ____
ROOT
ATOM     11  C   UNL     1      -2.517   1.594  24.637  0.00  0.00    +0.003 A 
ATOM     12  C   UNL     1      -1.744   1.697  24.369  0.00  0.00    +0.006 A 
ATOM     13  C   UNL     1      -1.264   1.040  24.233  0.00  0.00    +0.069 A 
ATOM     14  C   UNL     1      -1.558   0.280  24.366  0.00  0.00    +0.078 A 
ATOM     15  N   UNL     1      -1.174  -0.444  24.265  0.00  0.00    -0.178 NA
ATOM     16  C   UNL     1      -0.403  -0.587  24.009  0.00  0.00    +0.265 C 
ATOM     17  O   UNL     1      -0.181  -1.380  23.967  0.00  0.00    -0.271 OA
ATOM     18  C   UNL     1       0.175  -0.041  23.789  0.00  0.00    +0.174 C 
ATOM     19  C   UNL     1       0.875  -0.417  23.566  0.00  0.00    +0.123 C 
ATOM     20  N   UNL     1       1.524   0.030  23.325  0.00  0.00    -0.272 N 
ATOM     21  C   UNL     1       1.475   0.853  23.307  0.00  0.00    +0.115 C 
ATOM     22  C   UNL     1       0.775   1.230  23.530  0.00  0.00    +0.116 C 
ATOM     23  N   UNL     1       0.125   0.782  23.771  0.00  0.00    -0.266 N 
ATOM     24  C   UNL     1      -0.515   1.263  23.969  0.00  0.00    +0.251 C 
ATOM     25  O   UNL     1      -0.390   2.075  23.892  0.00  0.00    -0.270 OA
ATOM     26  C   UNL     1       2.225  -0.346  23.102  0.00  0.00    +0.249 C 
ATOM     27  O   UNL     1       2.274  -1.170  23.121  0.00  0.00    -0.270 OA
ATOM     35  C   UNL     1      -2.331   0.178  24.634  0.00  0.00    +0.017 A 
ATOM     36  C   UNL     1      -2.811   0.835  24.770  0.00  0.00    +0.001 A 
ENDROOT
BRANCH  26  28
ATOM     28  C   UNL     1       2.874   0.102  22.862  0.00  0.00    +0.056 A 
ATOM     29  C   UNL     1       2.916   0.385  22.088  0.00  0.00    +0.005 A 
ATOM     30  C   UNL     1       3.566   0.833  21.847  0.00  0.00    +0.002 A 
ATOM     31  C   UNL     1       4.174   0.997  22.380  0.00  0.00    +0.030 A 
ATOM     32  C   UNL     1       4.132   0.714  23.153  0.00  0.00    +0.140 A 
ATOM     33  F   UNL     1       4.740   0.878  23.687  0.00  0.00    -0.204 F 
ATOM     34  C   UNL     1       3.482   0.266  23.394  0.00  0.00    +0.034 A 
ENDBRANCH  26  28
BRANCH  11   8
ATOM      3  C   UNL     1      -3.958   3.565  25.047  0.00  0.00    +0.142 A 
ATOM      4  C   UNL     1      -3.937   3.217  24.298  0.00  0.00    +0.074 A 
ATOM      5  C   UNL     1      -3.457   2.560  24.162  0.00  0.00    +0.142 A 
ATOM      8  C   UNL     1      -2.998   2.251  24.773  0.00  0.00    +0.034 A 
ATOM      9  C   UNL     1      -3.018   2.599  25.522  0.00  0.00    +0.006 A 
ATOM     10  C   UNL     1      -3.499   3.256  25.658  0.00  0.00    +0.037 A 
BRANCH   3   2
ATOM      1  C   UNL     1      -5.131   4.142  25.623  0.00  0.00    +0.252 C 
ATOM      2  O   UNL     1      -4.438   4.222  25.183  0.00  0.00    -0.471 OA
ENDBRANCH   3   2
BRANCH   5   6
ATOM      6  O   UNL     1      -3.437   2.212  23.414  0.00  0.00    -0.471 OA
ATOM      7  C   UNL     1      -3.783   2.597  22.772  0.00  0.00    +0.252 C 
ENDBRANCH   5   6
ENDBRANCH  11   8
TORSDOF 4
ENDMDL
MODEL 4
REMARK VINA RESULT:      -7.1      3.220      4.868
REMARK  Name = 
REMARK  4 active torsions:
REMARK  status: ('A' for Active; 'I' for Inactive)
REMARK    1  A    between atoms: O_2  and  C_3
REMARK    2  A    between atoms: C_5  and  O_6
REMARK    3  A    between atoms: C_8  and  C_11
REMARK    4  A    between atoms: C_26  and  C_28
REMARK                            x       y       z     vdW  Elec       q    Type
REMARK                         _______ _______ _______ _____ _____    ______ ____
ROOT
ATOM     11  C   UNL     1      -1.008   2.984  25.487  0.00  0.00    +0.003 A 
ATOM     12  C   UNL     1      -1.512   2.418  25.161  0.00  0.00    +0.006 A 
ATOM     13  C   UNL     1      -1.401   1.619  25.336  0.00  0.00    +0.069 A 
ATOM     14  C   UNL     1      -0.788   1.387  25.836  0.00  0.00    +0.078 A 
ATOM     15  N   UNL     1      -0.583   0.626  26.080  0.00  0.00    -0.178 NA
ATOM     16  C   UNL     1      -0.941  -0.091  25.883  0.00  0.00    +0.265 C 
ATOM     17  O   UNL     1      -0.603  -0.764  26.220  0.00  0.00    -0.271 OA
ATOM     18  C   UNL     1      -1.592  -0.224  25.395  0.00  0.00    +0.174 C 
ATOM     19  C   UNL     1      -1.773  -1.028  25.345  0.00  0.00    +0.123 C 
ATOM     20  N   UNL     1      -2.408  -1.279  24.883  0.00  0.00    -0.272 N 
ATOM     21  C   UNL     1      -2.862  -0.729  24.471  0.00  0.00    +0.115 C 
ATOM     22  C   UNL     1      -2.682   0.075  24.520  0.00  0.00    +0.116 C 
ATOM     23  N   UNL     1      -2.047   0.327  24.982  0.00  0.00    -0.266 N 
ATOM     24  C   UNL     1      -1.961   1.148  24.956  0.00  0.00    +0.251 C 
ATOM     25  O   UNL     1      -2.509   1.549  24.488  0.00  0.00    -0.270 OA
ATOM     26  C   UNL     1      -2.589  -2.083  24.834  0.00  0.00    +0.249 C 
ATOM     27  O   UNL     1      -2.134  -2.634  25.247  0.00  0.00    -0.270 OA
ATOM     35  C   UNL     1      -0.284   1.954  26.161  0.00  0.00    +0.017 A 
ATOM     36  C   UNL     1      -0.394   2.753  25.987  0.00  0.00    +0.001 A 
ENDROOT
BRANCH  26  28
ATOM     28  C   UNL     1      -3.223  -2.335  24.372  0.00  0.00    +0.056 A 
ATOM     29  C   UNL     1      -3.144  -3.000  23.889  0.00  0.00    +0.005 A 
ATOM     30  C   UNL     1      -3.779  -3.253  23.426  0.00  0.00    +0.002 A 
ATOM     31  C   UNL     1      -4.493  -2.840  23.446  0.00  0.00    +0.030 A 
ATOM     32  C   UNL     1      -4.572  -2.176  23.928  0.00  0.00    +0.140 A 
ATOM     33  F   UNL     1      -5.287  -1.763  23.948  0.00  0.00    -0.204 F 
ATOM     34  C   UNL     1      -3.938  -1.923  24.391  0.00  0.00    +0.034 A 
ENDBRANCH  26  28
BRANCH  11   8
ATOM      3  C   UNL     1      -1.337   5.381  24.962  0.00  0.00    +0.142 A 
ATOM      4  C   UNL     1      -1.851   4.998  25.483  0.00  0.00    +0.074 A 
ATOM      5  C   UNL     1      -1.741   4.199  25.657  0.00  0.00    +0.142 A 
ATOM      8  C   UNL     1      -1.118   3.783  25.312  0.00  0.00    +0.034 A 
ATOM      9  C   UNL     1      -0.604   4.166  24.792  0.00  0.00    +0.006 A 
ATOM     10  C   UNL     1      -0.714   4.965  24.617  0.00  0.00    +0.037 A 
BRANCH   3   2
ATOM      1  C   UNL     1      -2.022   6.407  24.243  0.00  0.00    +0.252 C 
ATOM      2  O   UNL     1      -1.447   6.180  24.788  0.00  0.00    -0.471 OA
ENDBRANCH   3   2
BRANCH   5   6
ATOM      6  O   UNL     1      -2.254   3.817  26.177  0.00  0.00    -0.471 OA
ATOM      7  C   UNL     1      -2.895   4.225  26.498  0.00  0.00    +0.252 C 
ENDBRANCH   5   6
ENDBRANCH  11   8
TORSDOF 4
ENDMDL
MODEL 5
REMARK VINA RESULT:      -6.2      3.658      5.457
REMARK  Name = 
REMARK  4 active torsions:
REMARK  status: ('A' for Active; 'I' for Inactive)
REMARK    1  A    between atoms: O_2  and  C_3
REMARK    2  A    between atoms: C_5  and  O_6
REMARK    3  A    between atoms: C_8  and  C_11
REMARK    4  A    between atoms: C_26  and  C_28
REMARK                            x       y       z     vdW  Elec       q    Type
REMARK                         _______ _______ _______ _____ _____    ______ ____
ROOT
ATOM     11  C   UNL     1      -3.205   3.461  24.794  0.00  0.00    +0.003 A 
ATOM     12  C   UNL     1      -2.938   2.680  24.814  0.00  0.00    +0.006 A 
ATOM     13  C   UNL     1      -3.472   2.060  24.706  0.00  0.00    +0.069 A 
ATOM     14  C   UNL     1      -4.271   2.220  24.579  0.00  0.00    +0.078 A 
ATOM     15  N   UNL     1      -4.890   1.687  24.460  0.00  0.00    -0.178 NA
ATOM     16  C   UNL     1      -4.862   0.863  24.438  0.00  0.00    +0.265 C 
ATOM     17  O   UNL     1      -5.582   0.484  24.307  0.00  0.00    -0.271 OA
ATOM     18  C   UNL     1      -4.209   0.368  24.530  0.00  0.00    +0.174 C 
ATOM     19  C   UNL     1      -4.422  -0.427  24.470  0.00  0.00    +0.123 C 
ATOM     20  N   UNL     1      -3.848  -1.015  24.546  0.00  0.00    -0.272 N 
ATOM     21  C   UNL     1      -3.061  -0.809  24.682  0.00  0.00    +0.115 C 
ATOM     22  C   UNL     1      -2.847  -0.013  24.743  0.00  0.00    +0.116 C 
ATOM     23  N   UNL     1      -3.422   0.574  24.667  0.00  0.00    -0.266 N 
ATOM     24  C   UNL     1      -3.094   1.328  24.745  0.00  0.00    +0.251 C 
ATOM     25  O   UNL     1      -2.281   1.352  24.880  0.00  0.00    -0.270 OA
ATOM     26  C   UNL     1      -4.061  -1.810  24.485  0.00  0.00    +0.249 C 
ATOM     27  O   UNL     1      -4.849  -2.016  24.349  0.00  0.00    -0.270 OA
ATOM     35  C   UNL     1      -4.537   3.000  24.560  0.00  0.00    +0.017 A 
ATOM     36  C   UNL     1      -4.004   3.621  24.667  0.00  0.00    +0.001 A 
ENDROOT
BRANCH  26  28
ATOM     28  C   UNL     1      -3.488  -2.397  24.561  0.00  0.00    +0.056 A 
ATOM     29  C   UNL     1      -3.362  -2.759  25.293  0.00  0.00    +0.005 A 
ATOM     30  C   UNL     1      -2.788  -3.347  25.370  0.00  0.00    +0.002 A 
ATOM     31  C   UNL     1      -2.340  -3.573  24.715  0.00  0.00    +0.030 A 
ATOM     32  C   UNL     1      -2.465  -3.211  23.985  0.00  0.00    +0.140 A 
ATOM     33  F   UNL     1      -2.016  -3.437  23.329  0.00  0.00    -0.204 F 
ATOM     34  C   UNL     1      -3.039  -2.624  23.908  0.00  0.00    +0.034 A 
ENDBRANCH  26  28
BRANCH  11   8
ATOM      3  C   UNL     1      -1.607   5.323  25.116  0.00  0.00    +0.142 A 
ATOM      4  C   UNL     1      -2.068   5.061  25.749  0.00  0.00    +0.074 A 
ATOM      5  C   UNL     1      -2.601   4.440  25.641  0.00  0.00    +0.142 A 
ATOM      8  C   UNL     1      -2.673   4.081  24.902  0.00  0.00    +0.034 A 
ATOM      9  C   UNL     1      -2.211   4.343  24.269  0.00  0.00    +0.006 A 
ATOM     10  C   UNL     1      -1.678   4.964  24.377  0.00  0.00    +0.037 A 
BRANCH   3   2
ATOM      1  C   UNL     1      -0.390   5.985  24.765  0.00  0.00    +0.252 C 
ATOM      2  O   UNL     1      -1.074   5.943  25.224  0.00  0.00    -0.471 OA
ENDBRANCH   3   2
BRANCH   5   6
ATOM      6  O   UNL     1      -3.062   4.179  26.273  0.00  0.00    -0.471 OA
ATOM      7  C   UNL     1      -2.968   4.517  27.020  0.00  0.00    +0.252 C 
ENDBRANCH   5   6
ENDBRANCH  11   8
TORSDOF 4
ENDMDL
MODEL 6
REMARK VINA RESULT:      -6.1      2.530      4.557
REMARK  Name = 
REMARK  4 active torsions:
REMARK  status: ('A' for Active; 'I' for Inactive)
REMARK    1  A    between atoms: O_2  and  C_3
REMARK    2  A    between atoms: C_5  and  O_6
REMARK    3  A    between atoms: C_8  and  C_11
REMARK    4  A    between atoms: C_26  and  C_28
REMARK                            x       y       z     vdW  Elec       q    Type
REMARK                         _______ _______ _______ _____ _____    ______ ____
ROOT
ATOM     11  C   UNL     1      -1.956  -1.140  24.608  0.00  0.00    +0.003 A 
ATOM     12  C   UNL     1      -2.154  -0.341  24.651  0.00  0.00    +0.006 A 
ATOM     13  C   UNL     1      -1.559   0.226  24.736  0.00  0.00    +0.069 A 
ATOM     14  C   UNL     1      -0.770  -0.007  24.778  0.00  0.00    +0.078 A 
ATOM     15  N   UNL     1      -0.098   0.465  24.863  0.00  0.00    -0.178 NA
ATOM     16  C   UNL     1      -0.050   1.286  24.925  0.00  0.00    +0.265 C 
ATOM     17  O   UNL     1       0.710   1.596  25.004  0.00  0.00    -0.271 OA
ATOM     18  C   UNL     1      -0.663   1.838  24.919  0.00  0.00    +0.174 C 
ATOM     19  C   UNL     1      -0.376   2.608  24.995  0.00  0.00    +0.123 C 
ATOM     20  N   UNL     1      -0.899   3.245  25.002  0.00  0.00    -0.272 N 
ATOM     21  C   UNL     1      -1.710   3.113  24.931  0.00  0.00    +0.115 C 
ATOM     22  C   UNL     1      -1.999   2.343  24.855  0.00  0.00    +0.116 C 
ATOM     23  N   UNL     1      -1.474   1.707  24.848  0.00  0.00    -0.266 N 
ATOM     24  C   UNL     1      -1.873   0.988  24.767  0.00  0.00    +0.251 C 
ATOM     25  O   UNL     1      -2.694   1.040  24.709  0.00  0.00    -0.270 OA
ATOM     26  C   UNL     1      -0.612   4.015  25.078  0.00  0.00    +0.249 C 
ATOM     27  O   UNL     1       0.200   4.147  25.148  0.00  0.00    -0.270 OA
ATOM     35  C   UNL     1      -0.573  -0.807  24.736  0.00  0.00    +0.017 A 
ATOM     36  C   UNL     1      -1.166  -1.374  24.651  0.00  0.00    +0.001 A 
ENDROOT
BRANCH  26  28
ATOM     28  C   UNL     1      -1.136   4.652  25.085  0.00  0.00    +0.056 A 
ATOM     29  C   UNL     1      -1.065   5.250  24.520  0.00  0.00    +0.005 A 
ATOM     30  C   UNL     1      -1.589   5.887  24.526  0.00  0.00    +0.002 A 
ATOM     31  C   UNL     1      -2.184   5.926  25.096  0.00  0.00    +0.030 A 
ATOM     32  C   UNL     1      -2.255   5.329  25.660  0.00  0.00    +0.140 A 
ATOM     33  F   UNL     1      -2.850   5.368  26.231  0.00  0.00    -0.204 F 
ATOM     34  C   UNL     1      -1.731   4.691  25.654  0.00  0.00    +0.034 A 
ENDBRANCH  26  28
BRANCH  11   8
ATOM      3  C   UNL     1      -3.736  -2.842  24.352  0.00  0.00    +0.142 A 
ATOM      4  C   UNL     1      -3.567  -2.530  25.098  0.00  0.00    +0.074 A 
ATOM      5  C   UNL     1      -2.973  -1.963  25.183  0.00  0.00    +0.142 A 
ATOM      8  C   UNL     1      -2.550  -1.707  24.523  0.00  0.00    +0.034 A 
ATOM      9  C   UNL     1      -2.719  -2.019  23.777  0.00  0.00    +0.006 A 
ATOM     10  C   UNL     1      -3.312  -2.586  23.692  0.00  0.00    +0.037 A 
BRANCH   3   2
ATOM      1  C   UNL     1      -4.765  -3.448  23.568  0.00  0.00    +0.252 C 
ATOM      2  O   UNL     1      -4.329  -3.409  24.267  0.00  0.00    -0.471 OA
ENDBRANCH   3   2
BRANCH   5   6
ATOM      6  O   UNL     1      -2.805  -1.653  25.928  0.00  0.00    -0.471 OA
ATOM      7  C   UNL     1      -3.295  -1.828  26.568  0.00  0.00    +0.252 C 
ENDBRANCH   5   6
ENDBRANCH  11   8
TORSDOF 4
ENDMDL
MODEL 7
REMARK VINA RESULT:      -5.5      2.258      3.112
REMARK  Name = 
REMARK  4 active torsions:
REMARK  status: ('A' for Active; 'I' for Inactive)
REMARK    1  A    between atoms: O_2  and  C_3
REMARK    2  A    between atoms: C_5  and  O_6
REMARK    3  A    between atoms: C_8  and  C_11
REMARK    4  A    between atoms: C_26  and  C_28
REMARK                            x       y       z     vdW  Elec       q    Type
REMARK                         _______ _______ _______ _____ _____    ______ ____
ROOT
ATOM     11  C   UNL     1       1.823   0.944  23.420  0.00  0.00    +0.003 A 
ATOM     12  C   UNL     1       1.261   0.355  23.552  0.00  0.00    +0.006 A 
ATOM     13  C   UNL     1       0.490   0.561  23.764  0.00  0.00    +0.069 A 
ATOM     14  C   UNL     1       0.283   1.355  23.843  0.00  0.00    +0.078 A 
ATOM     15  N   UNL     1      -0.449   1.677  24.048  0.00  0.00    -0.178 NA
ATOM     16  C   UNL     1      -1.153   1.285  24.225  0.00  0.00    +0.265 C 
ATOM     17  O   UNL     1      -1.795   1.768  24.411  0.00  0.00    -0.271 OA
ATOM     18  C   UNL     1      -1.299   0.473  24.240  0.00  0.00    +0.174 C 
ATOM     19  C   UNL     1      -2.082   0.311  24.444  0.00  0.00    +0.123 C 
ATOM     20  N   UNL     1      -2.343  -0.469  24.491  0.00  0.00    -0.272 N 
ATOM     21  C   UNL     1      -1.823  -1.089  24.333  0.00  0.00    +0.115 C 
ATOM     22  C   UNL     1      -1.039  -0.928  24.129  0.00  0.00    +0.116 C 
ATOM     23  N   UNL     1      -0.778  -0.147  24.082  0.00  0.00    -0.266 N 
ATOM     24  C   UNL     1       0.019  -0.107  23.871  0.00  0.00    +0.251 C 
ATOM     25  O   UNL     1       0.393  -0.833  23.749  0.00  0.00    -0.270 OA
ATOM     26  C   UNL     1      -3.127  -0.631  24.695  0.00  0.00    +0.249 C 
ATOM     27  O   UNL     1      -3.648  -0.010  24.853  0.00  0.00    -0.270 OA
ATOM     35  C   UNL     1       0.845   1.944  23.711  0.00  0.00    +0.017 A 
ATOM     36  C   UNL     1       1.616   1.738  23.499  0.00  0.00    +0.001 A 
ENDROOT
BRANCH  26  28
ATOM     28  C   UNL     1      -3.388  -1.411  24.742  0.00  0.00    +0.056 A 
ATOM     29  C   UNL     1      -3.227  -1.861  25.415  0.00  0.00    +0.005 A 
ATOM     30  C   UNL     1      -3.488  -2.642  25.463  0.00  0.00    +0.002 A 
ATOM     31  C   UNL     1      -3.910  -2.974  24.836  0.00  0.00    +0.030 A 
ATOM     32  C   UNL     1      -4.070  -2.525  24.163  0.00  0.00    +0.140 A 
ATOM     33  F   UNL     1      -4.492  -2.858  23.536  0.00  0.00    -0.204 F 
ATOM     34  C   UNL     1      -3.809  -1.744  24.116  0.00  0.00    +0.034 A 
ENDBRANCH  26  28
BRANCH  11   8
ATOM      3  C   UNL     1       4.135   0.329  22.785  0.00  0.00    +0.142 A 
ATOM      4  C   UNL     1       3.507   0.155  22.278  0.00  0.00    +0.074 A 
ATOM      5  C   UNL     1       2.737   0.360  22.490  0.00  0.00    +0.142 A 
ATOM      8  C   UNL     1       2.594   0.739  23.208  0.00  0.00    +0.034 A 
ATOM      9  C   UNL     1       3.221   0.913  23.716  0.00  0.00    +0.006 A 
ATOM     10  C   UNL     1       3.992   0.707  23.504  0.00  0.00    +0.037 A 
BRANCH   3   2
ATOM      1  C   UNL     1       5.485   0.040  23.154  0.00  0.00    +0.252 C 
ATOM      2  O   UNL     1       4.906   0.123  22.574  0.00  0.00    -0.471 OA
ENDBRANCH   3   2
BRANCH   5   6
ATOM      6  O   UNL     1       2.110   0.186  21.982  0.00  0.00    -0.471 OA
ATOM      7  C   UNL     1       2.249  -0.232  21.285  0.00  0.00    +0.252 C 
ENDBRANCH   5   6
ENDBRANCH  11   8
TORSDOF 4
ENDMDL
MODEL 8
REMARK VINA RESULT:      -5.3      1.835      2.371
REMARK  Name = 
REMARK  4 active torsions:
REMARK  status: ('A' for Active; 'I' for Inactive)
REMARK    1  A    between atoms: O_2  and  C_3
REMARK    2  A    between atoms: C_5  and  O_6
REMARK    3  A    between atoms: C_8  and  C_11
REMARK    4  A    between atoms: C_26  and  C_28
REMARK                            x       y       z     vdW  Elec       q    Type
REMARK                         _______ _______ _______ _____ _____    ______ ____
ROOT
ATOM     11  C   UNL     1       2.304   0.278  23.021  0.00  0.00    +0.003 A 
ATOM     12  C   UNL     1       1.899   0.866  23.435  0.00  0.00    +0.006 A 
ATOM     13  C   UNL     1       1.073   0.861  23.452  0.00  0.00    +0.069 A 
ATOM     14  C   UNL     1       0.655   0.271  23.057  0.00  0.00    +0.078 A 
ATOM     15  N   UNL     1      -0.162   0.166  23.005  0.00  0.00    -0.178 NA
ATOM     16  C   UNL     1      -0.762   0.625  23.335  0.00  0.00    +0.265 C 
ATOM     17  O   UNL     1      -1.532   0.374  23.181  0.00  0.00    -0.271 OA
ATOM     18  C   UNL     1      -0.693   1.303  23.800  0.00  0.00    +0.174 C 
ATOM     19  C   UNL     1      -1.433   1.595  24.019  0.00  0.00    +0.123 C 
ATOM     20  N   UNL     1      -1.488   2.272  24.486  0.00  0.00    -0.272 N 
ATOM     21  C   UNL     1      -0.803   2.659  24.735  0.00  0.00    +0.115 C 
ATOM     22  C   UNL     1      -0.062   2.367  24.516  0.00  0.00    +0.116 C 
ATOM     23  N   UNL     1      -0.008   1.690  24.049  0.00  0.00    -0.266 N 
ATOM     24  C   UNL     1       0.778   1.493  23.894  0.00  0.00    +0.251 C 
ATOM     25  O   UNL     1       1.344   1.994  24.225  0.00  0.00    -0.270 OA
ATOM     26  C   UNL     1      -2.228   2.564  24.705  0.00  0.00    +0.249 C 
ATOM     27  O   UNL     1      -2.914   2.177  24.456  0.00  0.00    -0.270 OA
ATOM     35  C   UNL     1       1.062  -0.316  22.643  0.00  0.00    +0.017 A 
ATOM     36  C   UNL     1       1.887  -0.312  22.625  0.00  0.00    +0.001 A 
ENDROOT
BRANCH  26  28
ATOM     28  C   UNL     1      -2.283   3.241  25.172  0.00  0.00    +0.056 A 
ATOM     29  C   UNL     1      -2.523   3.181  25.960  0.00  0.00    +0.005 A 
ATOM     30  C   UNL     1      -2.577   3.859  26.428  0.00  0.00    +0.002 A 
ATOM     31  C   UNL     1      -2.392   4.596  26.108  0.00  0.00    +0.030 A 
ATOM     32  C   UNL     1      -2.152   4.656  25.321  0.00  0.00    +0.140 A 
ATOM     33  F   UNL     1      -1.967   5.395  25.001  0.00  0.00    -0.204 F 
ATOM     34  C   UNL     1      -2.098   3.979  24.853  0.00  0.00    +0.034 A 
ENDBRANCH  26  28
BRANCH  11   8
ATOM      3  C   UNL     1       4.779   0.291  22.967  0.00  0.00    +0.142 A 
ATOM      4  C   UNL     1       4.376  -0.365  23.266  0.00  0.00    +0.074 A 
ATOM      5  C   UNL     1       3.551  -0.369  23.284  0.00  0.00    +0.142 A 
ATOM      8  C   UNL     1       3.129   0.282  23.004  0.00  0.00    +0.034 A 
ATOM      9  C   UNL     1       3.533   0.938  22.705  0.00  0.00    +0.006 A 
ATOM     10  C   UNL     1       4.357   0.942  22.687  0.00  0.00    +0.037 A 
BRANCH   3   2
ATOM      1  C   UNL     1       6.031   0.421  23.644  0.00  0.00    +0.252 C 
ATOM      2  O   UNL     1       5.604   0.294  22.950  0.00  0.00    -0.471 OA
ENDBRANCH   3   2
BRANCH   5   6
ATOM      6  O   UNL     1       3.148  -1.024  23.582  0.00  0.00    -0.471 OA
ATOM      7  C   UNL     1       3.571  -1.667  23.879  0.00  0.00    +0.252 C 
ENDBRANCH   5   6
ENDBRANCH  11   8
TORSDOF 4
ENDMDL
