MODEL 1
REMARK VINA RESULT:      -9.3      0.000      0.000
REMARK  Name = 
REMARK  5 active torsions:
REMARK  status: ('A' for Active; 'I' for Inactive)
REMARK    1  A    between atoms: O_2  and  C_3
REMARK    2  A    between atoms: C_3  and  C_5
REMARK    3  A    between atoms: C_5  and  C_6
REMARK    4  A    between atoms: C_6  and  C_7
REMARK    5  A    between atoms: N_19  and  C_20
REMARK                            x       y       z     vdW  Elec       q    Type
REMARK                         _______ _______ _______ _____ _____    ______ ____
ROOT
ATOM      7  C   UNL     1      -3.617   0.542  24.535  0.00  0.00    +0.080 C 
ATOM      8  C   UNL     1      -2.800   0.554  24.418  0.00  0.00    +0.131 C 
ATOM      9  N   UNL     1      -2.276   1.183  24.519  0.00  0.00    -0.203 NA
ATOM     10  C   UNL     1      -2.438   1.954  24.763  0.00  0.00    +0.261 C 
ATOM     11  O   UNL     1      -1.787   2.459  24.810  0.00  0.00    -0.272 OA
ATOM     12  C   UNL     1      -3.165   2.287  24.965  0.00  0.00    +0.169 C 
ATOM     13  C   UNL     1      -3.909   1.932  24.974  0.00  0.00    +0.087 C 
ATOM     14  C   UNL     1      -4.459   2.497  25.216  0.00  0.00    +0.040 C 
ATOM     15  C   UNL     1      -4.055   3.202  25.357  0.00  0.00    +0.097 C 
ATOM     16  N   UNL     1      -3.255   3.073  25.202  0.00  0.00    -0.255 N 
ATOM     17  C   UNL     1      -2.651   3.631  25.271  0.00  0.00    +0.324 C 
ATOM     18  O   UNL     1      -2.826   4.399  25.516  0.00  0.00    -0.251 OA
ATOM     19  N   UNL     1      -1.873   3.420  25.097  0.00  0.00    -0.190 NA
ATOM     23  N   UNL     1      -4.110   1.155  24.782  0.00  0.00    -0.270 NA
ATOM     24  C   UNL     1      -4.911   0.966  24.847  0.00  0.00    +0.090 C 
ENDROOT
BRANCH  19  20
ATOM     20  C   UNL     1      -1.269   3.977  25.166  0.00  0.00    +0.097 C 
ATOM     21  C   UNL     1      -0.638   3.841  25.681  0.00  0.00    +0.023 C 
ATOM     22  C   UNL     1      -1.295   4.672  24.721  0.00  0.00    +0.023 C 
ENDBRANCH  19  20
BRANCH   7   6
ATOM      6  C   UNL     1      -3.989  -0.179  24.384  0.00  0.00    +0.029 C 
BRANCH   6   5
ATOM      5  C   UNL     1      -3.538  -0.861  24.276  0.00  0.00    +0.111 C 
BRANCH   5   3
ATOM      3  C   UNL     1      -3.910  -1.594  24.207  0.00  0.00    +0.317 C 
ATOM      4  O   UNL     1      -4.406  -1.745  23.566  0.00  0.00    -0.250 OA
BRANCH   3   2
ATOM      1  C   UNL     1      -3.585  -2.943  24.549  0.00  0.00    +0.256 C 
ATOM      2  O   UNL     1      -3.785  -2.177  24.778  0.00  0.00    -0.444 OA
ENDBRANCH   3   2
ENDBRANCH   5   3
ENDBRANCH   6   5
ENDBRANCH   7   6
TORSDOF 5
ENDMDL
MODEL 2
REMARK VINA RESULT:      -9.1      1.506      5.083
REMARK  Name = 
REMARK  5 active torsions:
REMARK  status: ('A' for Active; 'I' for Inactive)
REMARK    1  A    between atoms: O_2  and  C_3
REMARK    2  A    between atoms: C_3  and  C_5
REMARK    3  A    between atoms: C_5  and  C_6
REMARK    4  A    between atoms: C_6  and  C_7
REMARK    5  A    between atoms: N_19  and  C_20
REMARK                            x       y       z     vdW  Elec       q    Type
REMARK                         _______ _______ _______ _____ _____    ______ ____
ROOT
ATOM      7  C   UNL     1      -1.727   1.682  25.076  0.00  0.00    +0.080 C 
ATOM      8  C   UNL     1      -2.544   1.566  25.046  0.00  0.00    +0.131 C 
ATOM      9  N   UNL     1      -2.960   0.862  24.937  0.00  0.00    -0.203 NA
ATOM     10  C   UNL     1      -2.662   0.100  24.832  0.00  0.00    +0.261 C 
ATOM     11  O   UNL     1      -3.227  -0.495  24.737  0.00  0.00    -0.272 OA
ATOM     12  C   UNL     1      -1.876  -0.147  24.810  0.00  0.00    +0.169 C 
ATOM     13  C   UNL     1      -1.192   0.308  24.887  0.00  0.00    +0.087 C 
ATOM     14  C   UNL     1      -0.542  -0.196  24.825  0.00  0.00    +0.040 C 
ATOM     15  C   UNL     1      -0.824  -0.963  24.710  0.00  0.00    +0.097 C 
ATOM     16  N   UNL     1      -1.648  -0.932  24.701  0.00  0.00    -0.255 N 
ATOM     17  C   UNL     1      -2.157  -1.575  24.600  0.00  0.00    +0.324 C 
ATOM     18  O   UNL     1      -1.847  -2.333  24.495  0.00  0.00    -0.251 OA
ATOM     19  N   UNL     1      -2.973  -1.459  24.603  0.00  0.00    -0.190 NA
ATOM     23  N   UNL     1      -1.126   1.121  25.005  0.00  0.00    -0.270 NA
ATOM     24  C   UNL     1      -0.356   1.414  25.060  0.00  0.00    +0.090 C 
ENDROOT
BRANCH  19  20
ATOM     20  C   UNL     1      -3.481  -2.101  24.502  0.00  0.00    +0.097 C 
ATOM     21  C   UNL     1      -3.537  -2.679  25.088  0.00  0.00    +0.023 C 
ATOM     22  C   UNL     1      -3.933  -2.165  23.815  0.00  0.00    +0.023 C 
ENDBRANCH  19  20
BRANCH   7   6
ATOM      6  C   UNL     1      -1.480   2.461  25.192  0.00  0.00    +0.029 C 
BRANCH   6   5
ATOM      5  C   UNL     1      -2.020   3.079  25.123  0.00  0.00    +0.111 C 
BRANCH   5   3
ATOM      3  C   UNL     1      -1.819   3.834  25.388  0.00  0.00    +0.317 C 
ATOM      4  O   UNL     1      -2.083   4.096  26.124  0.00  0.00    -0.250 OA
BRANCH   3   2
ATOM      1  C   UNL     1      -1.335   5.138  25.062  0.00  0.00    +0.256 C 
ATOM      2  O   UNL     1      -1.354   4.327  24.917  0.00  0.00    -0.444 OA
ENDBRANCH   3   2
ENDBRANCH   5   3
ENDBRANCH   6   5
ENDBRANCH   7   6
TORSDOF 5
ENDMDL
MODEL 3
REMARK VINA RESULT:      -8.9      1.106      4.650
REMARK  Name = 
REMARK  5 active torsions:
REMARK  status: ('A' for Active; 'I' for Inactive)
REMARK    1  A    between atoms: O_2  and  C_3
REMARK    2  A    between atoms: C_3  and  C_5
REMARK    3  A    between atoms: C_5  and  C_6
REMARK    4  A    between atoms: C_6  and  C_7
REMARK    5  A    between atoms: N_19  and  C_20
REMARK                            x       y       z     vdW  Elec       q    Type
REMARK                         _______ _______ _______ _____ _____    ______ ____
ROOT
ATOM      7  C   UNL     1      -2.678   2.163  24.986  0.00  0.00    +0.080 C 
ATOM      8  C   UNL     1      -2.024   1.686  25.151  0.00  0.00    +0.131 C 
ATOM      9  N   UNL     1      -1.974   0.862  25.143  0.00  0.00    -0.203 NA
ATOM     10  C   UNL     1      -2.563   0.312  24.969  0.00  0.00    +0.261 C 
ATOM     11  O   UNL     1      -2.337  -0.480  25.009  0.00  0.00    -0.272 OA
ATOM     12  C   UNL     1      -3.349   0.450  24.759  0.00  0.00    +0.169 C 
ATOM     13  C   UNL     1      -3.740   1.171  24.672  0.00  0.00    +0.087 C 
ATOM     14  C   UNL     1      -4.520   1.014  24.456  0.00  0.00    +0.040 C 
ATOM     15  C   UNL     1      -4.612   0.196  24.410  0.00  0.00    +0.097 C 
ATOM     16  N   UNL     1      -3.889  -0.153  24.597  0.00  0.00    -0.255 N 
ATOM     17  C   UNL     1      -3.731  -0.963  24.618  0.00  0.00    +0.324 C 
ATOM     18  O   UNL     1      -4.329  -1.504  24.442  0.00  0.00    -0.251 OA
ATOM     19  N   UNL     1      -2.977  -1.232  24.816  0.00  0.00    -0.190 NA
ATOM     23  N   UNL     1      -3.441   1.933  24.773  0.00  0.00    -0.270 NA
ATOM     24  C   UNL     1      -3.976   2.547  24.644  0.00  0.00    +0.090 C 
ENDROOT
BRANCH  19  20
ATOM     20  C   UNL     1      -2.820  -2.041  24.837  0.00  0.00    +0.097 C 
ATOM     21  C   UNL     1      -2.311  -2.378  24.281  0.00  0.00    +0.023 C 
ATOM     22  C   UNL     1      -3.172  -2.515  25.414  0.00  0.00    +0.023 C 
ENDBRANCH  19  20
BRANCH   7   6
ATOM      6  C   UNL     1      -2.550   2.976  25.042  0.00  0.00    +0.029 C 
BRANCH   6   5
ATOM      5  C   UNL     1      -1.826   3.262  25.314  0.00  0.00    +0.111 C 
BRANCH   5   3
ATOM      3  C   UNL     1      -1.681   4.074  25.325  0.00  0.00    +0.317 C 
ATOM      4  O   UNL     1      -2.125   4.565  25.816  0.00  0.00    -0.250 OA
BRANCH   3   2
ATOM      1  C   UNL     1      -0.872   5.184  24.933  0.00  0.00    +0.256 C 
ATOM      2  O   UNL     1      -1.092   4.395  24.844  0.00  0.00    -0.444 OA
ENDBRANCH   3   2
ENDBRANCH   5   3
ENDBRANCH   6   5
ENDBRANCH   7   6
TORSDOF 5
ENDMDL
MODEL 4
REMARK VINA RESULT:      -8.9      1.159      2.008
REMARK  Name = 
REMARK  5 active torsions:
REMARK  status: ('A' for Active; 'I' for Inactive)
REMARK    1  A    between atoms: O_2  and  C_3
REMARK    2  A    between atoms: C_3  and  C_5
REMARK    3  A    between atoms: C_5  and  C_6
REMARK    4  A    between atoms: C_6  and  C_7
REMARK    5  A    between atoms: N_19  and  C_20
REMARK                            x       y       z     vdW  Elec       q    Type
REMARK                         _______ _______ _______ _____ _____    ______ ____
ROOT
ATOM      7  C   UNL     1      -2.484   0.113  24.885  0.00  0.00    +0.080 C 
ATOM      8  C   UNL     1      -3.099   0.656  24.799  0.00  0.00    +0.131 C 
ATOM      9  N   UNL     1      -3.075   1.477  24.880  0.00  0.00    -0.203 NA
ATOM     10  C   UNL     1      -2.430   1.957  25.069  0.00  0.00    +0.261 C 
ATOM     11  O   UNL     1      -2.586   2.766  25.110  0.00  0.00    -0.272 OA
ATOM     12  C   UNL     1      -1.652   1.734  25.222  0.00  0.00    +0.169 C 
ATOM     13  C   UNL     1      -1.323   0.977  25.225  0.00  0.00    +0.087 C 
ATOM     14  C   UNL     1      -0.523   1.047  25.410  0.00  0.00    +0.040 C 
ATOM     15  C   UNL     1      -0.356   1.847  25.522  0.00  0.00    +0.097 C 
ATOM     16  N   UNL     1      -1.052   2.272  25.406  0.00  0.00    -0.255 N 
ATOM     17  C   UNL     1      -1.137   3.091  25.464  0.00  0.00    +0.324 C 
ATOM     18  O   UNL     1      -0.485   3.560  25.653  0.00  0.00    -0.251 OA
ATOM     19  N   UNL     1      -1.873   3.439  25.332  0.00  0.00    -0.190 NA
ATOM     23  N   UNL     1      -1.694   0.256  25.075  0.00  0.00    -0.270 NA
ATOM     24  C   UNL     1      -1.211  -0.411  25.121  0.00  0.00    +0.090 C 
ENDROOT
BRANCH  19  20
ATOM     20  C   UNL     1      -1.957   4.258  25.389  0.00  0.00    +0.097 C 
ATOM     21  C   UNL     1      -2.459   4.582  25.959  0.00  0.00    +0.023 C 
ATOM     22  C   UNL     1      -1.540   4.753  24.878  0.00  0.00    +0.023 C 
ENDBRANCH  19  20
BRANCH   7   6
ATOM      6  C   UNL     1      -2.687  -0.678  24.766  0.00  0.00    +0.029 C 
BRANCH   6   5
ATOM      5  C   UNL     1      -3.479  -0.894  24.688  0.00  0.00    +0.111 C 
BRANCH   5   3
ATOM      3  C   UNL     1      -3.681  -1.683  24.563  0.00  0.00    +0.317 C 
ATOM      4  O   UNL     1      -3.638  -2.223  25.186  0.00  0.00    -0.250 OA
BRANCH   3   2
ATOM      1  C   UNL     1      -4.365  -2.628  23.738  0.00  0.00    +0.256 C 
ATOM      2  O   UNL     1      -3.926  -1.935  23.817  0.00  0.00    -0.444 OA
ENDBRANCH   3   2
ENDBRANCH   5   3
ENDBRANCH   6   5
ENDBRANCH   7   6
TORSDOF 5
ENDMDL
MODEL 5
REMARK VINA RESULT:      -8.6      1.590      2.136
REMARK  Name = 
REMARK  5 active torsions:
REMARK  status: ('A' for Active; 'I' for Inactive)
REMARK    1  A    between atoms: O_2  and  C_3
REMARK    2  A    between atoms: C_3  and  C_5
REMARK    3  A    between atoms: C_5  and  C_6
REMARK    4  A    between atoms: C_6  and  C_7
REMARK    5  A    between atoms: N_19  and  C_20
REMARK                            x       y       z     vdW  Elec       q    Type
REMARK                         _______ _______ _______ _____ _____    ______ ____
ROOT
ATOM      7  C   UNL     1      -3.885  -0.032  24.163  0.00  0.00    +0.080 C 
ATOM      8  C   UNL     1      -4.382   0.093  24.809  0.00  0.00    +0.131 C 
ATOM      9  N   UNL     1      -4.603   0.807  25.158  0.00  0.00    -0.203 NA
ATOM     10  C   UNL     1      -4.382   1.574  24.946  0.00  0.00    +0.261 C 
ATOM     11  O   UNL     1      -4.700   2.179  25.408  0.00  0.00    -0.272 OA
ATOM     12  C   UNL     1      -3.885   1.814  24.333  0.00  0.00    +0.169 C 
ATOM     13  C   UNL     1      -3.486   1.348  23.781  0.00  0.00    +0.087 C 
ATOM     14  C   UNL     1      -3.060   1.850  23.284  0.00  0.00    +0.040 C 
ATOM     15  C   UNL     1      -3.196   2.626  23.529  0.00  0.00    +0.097 C 
ATOM     16  N   UNL     1      -3.705   2.604  24.177  0.00  0.00    -0.255 N 
ATOM     17  C   UNL     1      -3.986   3.257  24.596  0.00  0.00    +0.324 C 
ATOM     18  O   UNL     1      -3.757   4.018  24.374  0.00  0.00    -0.251 OA
ATOM     19  N   UNL     1      -4.495   3.149  25.236  0.00  0.00    -0.190 NA
ATOM     23  N   UNL     1      -3.486   0.527  23.705  0.00  0.00    -0.270 NA
ATOM     24  C   UNL     1      -3.027   0.224  23.091  0.00  0.00    +0.090 C 
ENDROOT
BRANCH  19  20
ATOM     20  C   UNL     1      -4.775   3.802  25.655  0.00  0.00    +0.097 C 
ATOM     21  C   UNL     1      -5.529   4.100  25.497  0.00  0.00    +0.023 C 
ATOM     22  C   UNL     1      -4.303   4.156  26.231  0.00  0.00    +0.023 C 
ENDBRANCH  19  20
BRANCH   7   6
ATOM      6  C   UNL     1      -3.772  -0.820  23.946  0.00  0.00    +0.029 C 
BRANCH   6   5
ATOM      5  C   UNL     1      -4.024  -1.426  24.445  0.00  0.00    +0.111 C 
BRANCH   5   3
ATOM      3  C   UNL     1      -3.883  -2.212  24.242  0.00  0.00    +0.317 C 
ATOM      4  O   UNL     1      -4.377  -2.595  23.704  0.00  0.00    -0.250 OA
BRANCH   3   2
ATOM      1  C   UNL     1      -3.279  -3.437  24.663  0.00  0.00    +0.256 C 
ATOM      2  O   UNL     1      -3.247  -2.618  24.578  0.00  0.00    -0.444 OA
ENDBRANCH   3   2
ENDBRANCH   5   3
ENDBRANCH   6   5
ENDBRANCH   7   6
TORSDOF 5
ENDMDL
MODEL 6
REMARK VINA RESULT:      -8.5      2.002      3.551
REMARK  Name = 
REMARK  5 active torsions:
REMARK  status: ('A' for Active; 'I' for Inactive)
REMARK    1  A    between atoms: O_2  and  C_3
REMARK    2  A    between atoms: C_3  and  C_5
REMARK    3  A    between atoms: C_5  and  C_6
REMARK    4  A    between atoms: C_6  and  C_7
REMARK    5  A    between atoms: N_19  and  C_20
REMARK                            x       y       z     vdW  Elec       q    Type
REMARK                         _______ _______ _______ _____ _____    ______ ____
ROOT
ATOM      7  C   UNL     1      -1.707   1.881  24.422  0.00  0.00    +0.080 C 
ATOM      8  C   UNL     1      -2.186   1.210  24.455  0.00  0.00    +0.131 C 
ATOM      9  N   UNL     1      -2.988   1.159  24.643  0.00  0.00    -0.203 NA
ATOM     10  C   UNL     1      -3.509   1.767  24.844  0.00  0.00    +0.261 C 
ATOM     11  O   UNL     1      -4.285   1.536  25.003  0.00  0.00    -0.272 OA
ATOM     12  C   UNL     1      -3.356   2.575  24.907  0.00  0.00    +0.169 C 
ATOM     13  C   UNL     1      -2.646   2.975  24.785  0.00  0.00    +0.087 C 
ATOM     14  C   UNL     1      -2.779   3.779  24.917  0.00  0.00    +0.040 C 
ATOM     15  C   UNL     1      -3.573   3.875  25.120  0.00  0.00    +0.097 C 
ATOM     16  N   UNL     1      -3.929   3.131  25.115  0.00  0.00    -0.255 N 
ATOM     17  C   UNL     1      -4.721   2.971  25.287  0.00  0.00    +0.324 C 
ATOM     18  O   UNL     1      -5.232   3.587  25.487  0.00  0.00    -0.251 OA
ATOM     19  N   UNL     1      -5.000   2.195  25.258  0.00  0.00    -0.190 NA
ATOM     23  N   UNL     1      -1.912   2.667  24.569  0.00  0.00    -0.270 NA
ATOM     24  C   UNL     1      -1.302   3.216  24.489  0.00  0.00    +0.090 C 
ENDROOT
BRANCH  19  20
ATOM     20  C   UNL     1      -5.791   2.035  25.430  0.00  0.00    +0.097 C 
ATOM     21  C   UNL     1      -6.330   1.913  24.816  0.00  0.00    +0.023 C 
ATOM     22  C   UNL     1      -6.043   1.997  26.214  0.00  0.00    +0.023 C 
ENDBRANCH  19  20
BRANCH   7   6
ATOM      6  C   UNL     1      -0.920   1.748  24.215  0.00  0.00    +0.029 C 
BRANCH   6   5
ATOM      5  C   UNL     1      -0.636   0.977  24.144  0.00  0.00    +0.111 C 
BRANCH   5   3
ATOM      3  C   UNL     1       0.108   0.840  23.816  0.00  0.00    +0.317 C 
ATOM      4  O   UNL     1       0.763   1.261  24.089  0.00  0.00    -0.250 OA
BRANCH   3   2
ATOM      1  C   UNL     1       0.922  -0.099  23.111  0.00  0.00    +0.256 C 
ATOM      2  O   UNL     1       0.198   0.282  23.215  0.00  0.00    -0.444 OA
ENDBRANCH   3   2
ENDBRANCH   5   3
ENDBRANCH   6   5
ENDBRANCH   7   6
TORSDOF 5
ENDMDL
MODEL 7
REMARK VINA RESULT:      -8.4      2.283      3.714
REMARK  Name = 
REMARK  5 active torsions:
REMARK  status: ('A' for Active; 'I' for Inactive)
REMARK    1  A    between atoms: O_2  and  C_3
REMARK    2  A    between atoms: C_3  and  C_5
REMARK    3  A    between atoms: C_5  and  C_6
REMARK    4  A    between atoms: C_6  and  C_7
REMARK    5  A    between atoms: N_19  and  C_20
REMARK                            x       y       z     vdW  Elec       q    Type
REMARK                         _______ _______ _______ _____ _____    ______ ____
ROOT
ATOM      7  C   UNL     1      -3.678   0.833  24.718  0.00  0.00    +0.080 C 
ATOM      8  C   UNL     1      -3.267   1.390  24.269  0.00  0.00    +0.131 C 
ATOM      9  N   UNL     1      -2.484   1.365  24.010  0.00  0.00    -0.203 NA
ATOM     10  C   UNL     1      -1.920   0.776  24.135  0.00  0.00    +0.261 C 
ATOM     11  O   UNL     1      -1.178   0.914  23.800  0.00  0.00    -0.272 OA
ATOM     12  C   UNL     1      -1.998   0.069  24.551  0.00  0.00    +0.169 C 
ATOM     13  C   UNL     1      -2.661  -0.226  24.944  0.00  0.00    +0.087 C 
ATOM     14  C   UNL     1      -2.459  -0.955  25.273  0.00  0.00    +0.040 C 
ATOM     15  C   UNL     1      -1.671  -1.111  25.084  0.00  0.00    +0.097 C 
ATOM     16  N   UNL     1      -1.387  -0.479  24.637  0.00  0.00    -0.255 N 
ATOM     17  C   UNL     1      -0.624  -0.405  24.330  0.00  0.00    +0.324 C 
ATOM     18  O   UNL     1      -0.068  -1.001  24.463  0.00  0.00    -0.251 OA
ATOM     19  N   UNL     1      -0.418   0.262  23.892  0.00  0.00    -0.190 NA
ATOM     23  N   UNL     1      -3.408   0.114  25.018  0.00  0.00    -0.270 NA
ATOM     24  C   UNL     1      -3.959  -0.322  25.451  0.00  0.00    +0.090 C 
ENDROOT
BRANCH  19  20
ATOM     20  C   UNL     1       0.344   0.335  23.586  0.00  0.00    +0.097 C 
ATOM     21  C   UNL     1       0.596  -0.168  22.982  0.00  0.00    +0.023 C 
ATOM     22  C   UNL     1       0.856   0.911  23.883  0.00  0.00    +0.023 C 
ENDBRANCH  19  20
BRANCH   7   6
ATOM      6  C   UNL     1      -4.463   1.022  24.889  0.00  0.00    +0.029 C 
BRANCH   6   5
ATOM      5  C   UNL     1      -4.738   1.791  24.775  0.00  0.00    +0.111 C 
BRANCH   5   3
ATOM      3  C   UNL     1      -5.461   2.023  25.097  0.00  0.00    +0.317 C 
ATOM      4  O   UNL     1      -6.165   1.748  24.767  0.00  0.00    -0.250 OA
BRANCH   3   2
ATOM      1  C   UNL     1      -5.896   3.240  25.706  0.00  0.00    +0.256 C 
ATOM      2  O   UNL     1      -5.480   2.529  25.748  0.00  0.00    -0.444 OA
ENDBRANCH   3   2
ENDBRANCH   5   3
ENDBRANCH   6   5
ENDBRANCH   7   6
TORSDOF 5
ENDMDL
MODEL 8
REMARK VINA RESULT:      -8.3      2.021      3.243
REMARK  Name = 
REMARK  5 active torsions:
REMARK  status: ('A' for Active; 'I' for Inactive)
REMARK    1  A    between atoms: O_2  and  C_3
REMARK    2  A    between atoms: C_3  and  C_5
REMARK    3  A    between atoms: C_5  and  C_6
REMARK    4  A    between atoms: C_6  and  C_7
REMARK    5  A    between atoms: N_19  and  C_20
REMARK                            x       y       z     vdW  Elec       q    Type
REMARK                         _______ _______ _______ _____ _____    ______ ____
ROOT
ATOM      7  C   UNL     1      -1.892   0.363  24.494  0.00  0.00    +0.080 C 
ATOM      8  C   UNL     1      -1.748   1.162  24.643  0.00  0.00    +0.131 C 
ATOM      9  N   UNL     1      -2.290   1.757  24.824  0.00  0.00    -0.203 NA
ATOM     10  C   UNL     1      -3.110   1.701  24.900  0.00  0.00    +0.261 C 
ATOM     11  O   UNL     1      -3.501   2.403  25.087  0.00  0.00    -0.272 OA
ATOM     12  C   UNL     1      -3.589   1.036  24.814  0.00  0.00    +0.169 C 
ATOM     13  C   UNL     1      -3.369   0.262  24.631  0.00  0.00    +0.087 C 
ATOM     14  C   UNL     1      -4.052  -0.200  24.609  0.00  0.00    +0.040 C 
ATOM     15  C   UNL     1      -4.695   0.288  24.779  0.00  0.00    +0.097 C 
ATOM     16  N   UNL     1      -4.410   1.051  24.905  0.00  0.00    -0.255 N 
ATOM     17  C   UNL     1      -4.864   1.715  25.091  0.00  0.00    +0.324 C 
ATOM     18  O   UNL     1      -5.683   1.646  25.164  0.00  0.00    -0.251 OA
ATOM     19  N   UNL     1      -4.499   2.447  25.203  0.00  0.00    -0.190 NA
ATOM     23  N   UNL     1      -2.614  -0.037  24.489  0.00  0.00    -0.270 NA
ATOM     24  C   UNL     1      -2.574  -0.843  24.318  0.00  0.00    +0.090 C 
ENDROOT
BRANCH  19  20
ATOM     20  C   UNL     1      -4.953   3.110  25.388  0.00  0.00    +0.097 C 
ATOM     21  C   UNL     1      -5.377   3.135  26.096  0.00  0.00    +0.023 C 
ATOM     22  C   UNL     1      -4.984   3.748  24.866  0.00  0.00    +0.023 C 
ENDBRANCH  19  20
BRANCH   7   6
ATOM      6  C   UNL     1      -1.226  -0.095  24.328  0.00  0.00    +0.029 C 
BRANCH   6   5
ATOM      5  C   UNL     1      -0.510   0.269  24.144  0.00  0.00    +0.111 C 
BRANCH   5   3
ATOM      3  C   UNL     1       0.105  -0.172  23.817  0.00  0.00    +0.317 C 
ATOM      4  O   UNL     1       0.344  -0.876  24.176  0.00  0.00    -0.250 OA
BRANCH   3   2
ATOM      1  C   UNL     1       1.225  -0.206  22.931  0.00  0.00    +0.256 C 
ATOM      2  O   UNL     1       0.482   0.089  23.131  0.00  0.00    -0.444 OA
ENDBRANCH   3   2
ENDBRANCH   5   3
ENDBRANCH   6   5
ENDBRANCH   7   6
TORSDOF 5
ENDMDL
