MODEL 1
REMARK VINA RESULT:      -9.8      0.000      0.000
REMARK  Name = 
REMARK  5 active torsions:
REMARK  status: ('A' for Active; 'I' for Inactive)
REMARK    1  A    between atoms: C_1  and  N_2
REMARK    2  A    between atoms: C_1  and  C_24
REMARK    3  A    between atoms: C_6  and  C_7
REMARK    4  A    between atoms: C_9  and  C_12
REMARK    5  A    between atoms: C_15  and  N_18
REMARK                            x       y       z     vdW  Elec       q    Type
REMARK                         _______ _______ _______ _____ _____    ______ ____
ROOT
ATOM      7  C   UNL     1      -4.010   2.790  25.152  0.00  0.00    +0.251 A 
ATOM      8  N   UNL     1      -3.776   2.008  25.270  0.00  0.00    -0.190 NA
ATOM      9  C   UNL     1      -4.159   1.540  24.709  0.00  0.00    +0.205 A 
ATOM     10  N   UNL     1      -4.629   2.032  24.244  0.00  0.00    -0.056 NA
ATOM     11  O   UNL     1      -4.537   2.805  24.517  0.00  0.00    -0.336 OA
ENDROOT
BRANCH   9  12
ATOM     12  C   UNL     1      -4.085   0.722  24.628  0.00  0.00    +0.058 A 
ATOM     13  C   UNL     1      -3.665   0.408  23.991  0.00  0.00    +0.008 A 
ATOM     14  C   UNL     1      -3.591  -0.410  23.909  0.00  0.00    +0.034 A 
ATOM     15  C   UNL     1      -3.936  -0.913  24.465  0.00  0.00    +0.132 A 
ATOM     16  N   UNL     1      -4.355  -0.599  25.102  0.00  0.00    -0.229 NA
ATOM     17  C   UNL     1      -4.429   0.219  25.183  0.00  0.00    +0.103 A 
BRANCH  15  18
ATOM     18  N   UNL     1      -3.861  -1.731  24.383  0.00  0.00    -0.288 N 
ATOM     19  C   UNL     1      -3.345  -2.149  24.874  0.00  0.00    +0.124 C 
ATOM     20  C   UNL     1      -3.271  -2.967  24.792  0.00  0.00    +0.164 C 
ATOM     21  O   UNL     1      -3.712  -3.366  24.221  0.00  0.00    -0.350 OA
ATOM     22  C   UNL     1      -4.228  -2.948  23.731  0.00  0.00    +0.164 C 
ATOM     23  C   UNL     1      -4.302  -2.131  23.812  0.00  0.00    +0.124 C 
ENDBRANCH  15  18
ENDBRANCH   9  12
BRANCH   7   6
ATOM      2  N   UNL     1      -3.078   3.886  25.454  0.00  0.00    -0.263 NA
ATOM      3  C   UNL     1      -3.045   4.484  26.022  0.00  0.00    +0.073 C 
ATOM      4  C   UNL     1      -3.707   4.409  26.509  0.00  0.00    +0.019 C 
ATOM      5  C   UNL     1      -4.149   3.766  26.242  0.00  0.00    +0.027 C 
ATOM      6  C   UNL     1      -3.760   3.442  25.590  0.00  0.00    +0.138 C 
BRANCH   2   1
ATOM      1  C   UNL     1      -2.526   3.755  24.855  0.00  0.00    +0.100 C 
BRANCH   1  24
ATOM     24  C   UNL     1      -1.773   4.086  24.909  0.00  0.00    -0.003 A 
ATOM     25  C   UNL     1      -1.131   3.616  25.126  0.00  0.00    +0.018 A 
ATOM     26  C   UNL     1      -0.376   3.948  25.181  0.00  0.00    +0.099 A 
ATOM     27  N   UNL     1      -0.265   4.749  25.017  0.00  0.00    -0.242 NA
ATOM     28  C   UNL     1      -0.908   5.218  24.800  0.00  0.00    +0.099 A 
ATOM     29  C   UNL     1      -1.661   4.887  24.746  0.00  0.00    +0.018 A 
ENDBRANCH   1  24
ENDBRANCH   2   1
ENDBRANCH   7   6
TORSDOF 5
ENDMDL
MODEL 2
REMARK VINA RESULT:      -9.4      2.085      6.261
REMARK  Name = 
REMARK  5 active torsions:
REMARK  status: ('A' for Active; 'I' for Inactive)
REMARK    1  A    between atoms: C_1  and  N_2
REMARK    2  A    between atoms: C_1  and  C_24
REMARK    3  A    between atoms: C_6  and  C_7
REMARK    4  A    between atoms: C_9  and  C_12
REMARK    5  A    between atoms: C_15  and  N_18
REMARK                            x       y       z     vdW  Elec       q    Type
REMARK                         _______ _______ _______ _____ _____    ______ ____
ROOT
ATOM      7  C   UNL     1      -1.123  -0.497  25.307  0.00  0.00    +0.251 A 
ATOM      8  N   UNL     1      -1.178   0.252  24.964  0.00  0.00    -0.190 NA
ATOM      9  C   UNL     1      -1.142   0.812  25.568  0.00  0.00    +0.205 A 
ATOM     10  N   UNL     1      -1.067   0.410  26.284  0.00  0.00    -0.056 NA
ATOM     11  O   UNL     1      -1.055  -0.399  26.122  0.00  0.00    -0.336 OA
ENDROOT
BRANCH   9  12
ATOM     12  C   UNL     1      -1.177   1.631  25.473  0.00  0.00    +0.058 A 
ATOM     13  C   UNL     1      -0.666   2.118  25.901  0.00  0.00    +0.008 A 
ATOM     14  C   UNL     1      -0.701   2.937  25.806  0.00  0.00    +0.034 A 
ATOM     15  C   UNL     1      -1.246   3.268  25.283  0.00  0.00    +0.132 A 
ATOM     16  N   UNL     1      -1.756   2.782  24.855  0.00  0.00    -0.229 NA
ATOM     17  C   UNL     1      -1.722   1.963  24.950  0.00  0.00    +0.103 A 
BRANCH  15  18
ATOM     18  N   UNL     1      -1.281   4.088  25.187  0.00  0.00    -0.288 N 
ATOM     19  C   UNL     1      -0.650   4.489  24.838  0.00  0.00    +0.124 C 
ATOM     20  C   UNL     1      -0.685   5.308  24.742  0.00  0.00    +0.164 C 
ATOM     21  O   UNL     1      -1.349   5.725  24.997  0.00  0.00    -0.350 OA
ATOM     22  C   UNL     1      -1.979   5.323  25.347  0.00  0.00    +0.164 C 
ATOM     23  C   UNL     1      -1.945   4.505  25.442  0.00  0.00    +0.124 C 
ENDBRANCH  15  18
ENDBRANCH   9  12
BRANCH   7   6
ATOM      2  N   UNL     1      -1.799  -1.692  24.780  0.00  0.00    -0.263 NA
ATOM      3  C   UNL     1      -1.561  -2.356  24.354  0.00  0.00    +0.073 C 
ATOM      4  C   UNL     1      -0.750  -2.292  24.214  0.00  0.00    +0.019 C 
ATOM      5  C   UNL     1      -0.487  -1.588  24.554  0.00  0.00    +0.027 C 
ATOM      6  C   UNL     1      -1.136  -1.216  24.904  0.00  0.00    +0.138 C 
BRANCH   2   1
ATOM      1  C   UNL     1      -2.566  -1.530  25.038  0.00  0.00    +0.100 C 
BRANCH   1  24
ATOM     24  C   UNL     1      -3.212  -1.847  24.634  0.00  0.00    -0.003 A 
ATOM     25  C   UNL     1      -3.402  -2.644  24.722  0.00  0.00    +0.018 A 
ATOM     26  C   UNL     1      -4.049  -2.962  24.318  0.00  0.00    +0.099 A 
ATOM     27  N   UNL     1      -4.503  -2.480  23.826  0.00  0.00    -0.242 NA
ATOM     28  C   UNL     1      -4.313  -1.682  23.738  0.00  0.00    +0.099 A 
ATOM     29  C   UNL     1      -3.667  -1.366  24.142  0.00  0.00    +0.018 A 
ENDBRANCH   1  24
ENDBRANCH   2   1
ENDBRANCH   7   6
TORSDOF 5
ENDMDL
MODEL 3
REMARK VINA RESULT:      -9.0      3.435      4.684
REMARK  Name = 
REMARK  5 active torsions:
REMARK  status: ('A' for Active; 'I' for Inactive)
REMARK    1  A    between atoms: C_1  and  N_2
REMARK    2  A    between atoms: C_1  and  C_24
REMARK    3  A    between atoms: C_6  and  C_7
REMARK    4  A    between atoms: C_9  and  C_12
REMARK    5  A    between atoms: C_15  and  N_18
REMARK                            x       y       z     vdW  Elec       q    Type
REMARK                         _______ _______ _______ _____ _____    ______ ____
ROOT
ATOM      7  C   UNL     1      -2.569   0.193  24.880  0.00  0.00    +0.251 A 
ATOM      8  N   UNL     1      -2.019   0.269  24.269  0.00  0.00    -0.190 NA
ATOM      9  C   UNL     1      -1.271   0.110  24.579  0.00  0.00    +0.205 A 
ATOM     10  N   UNL     1      -1.359  -0.064  25.380  0.00  0.00    -0.056 NA
ATOM     11  O   UNL     1      -2.161  -0.013  25.566  0.00  0.00    -0.336 OA
ENDROOT
BRANCH   9  12
ATOM     12  C   UNL     1      -0.560   0.123  24.160  0.00  0.00    +0.058 A 
ATOM     13  C   UNL     1      -0.215   0.844  23.958  0.00  0.00    +0.008 A 
ATOM     14  C   UNL     1       0.496   0.857  23.539  0.00  0.00    +0.034 A 
ATOM     15  C   UNL     1       0.861   0.150  23.323  0.00  0.00    +0.132 A 
ATOM     16  N   UNL     1       0.515  -0.572  23.525  0.00  0.00    -0.229 NA
ATOM     17  C   UNL     1      -0.196  -0.585  23.944  0.00  0.00    +0.103 A 
BRANCH  15  18
ATOM     18  N   UNL     1       1.572   0.163  22.904  0.00  0.00    -0.288 N 
ATOM     19  C   UNL     1       1.622  -0.201  22.165  0.00  0.00    +0.124 C 
ATOM     20  C   UNL     1       2.333  -0.188  21.746  0.00  0.00    +0.164 C 
ATOM     21  O   UNL     1       2.993   0.189  22.066  0.00  0.00    -0.350 OA
ATOM     22  C   UNL     1       2.942   0.553  22.805  0.00  0.00    +0.164 C 
ATOM     23  C   UNL     1       2.232   0.540  23.224  0.00  0.00    +0.124 C 
ENDBRANCH  15  18
ENDBRANCH   9  12
BRANCH   7   6
ATOM      2  N   UNL     1      -3.784   1.021  24.894  0.00  0.00    -0.263 NA
ATOM      3  C   UNL     1      -4.589   0.877  24.788  0.00  0.00    +0.073 C 
ATOM      4  C   UNL     1      -4.687   0.070  24.642  0.00  0.00    +0.019 C 
ATOM      5  C   UNL     1      -3.942  -0.284  24.659  0.00  0.00    +0.027 C 
ATOM      6  C   UNL     1      -3.384   0.303  24.815  0.00  0.00    +0.138 C 
BRANCH   2   1
ATOM      1  C   UNL     1      -3.439   1.753  25.053  0.00  0.00    +0.100 C 
BRANCH   1  24
ATOM     24  C   UNL     1      -3.881   2.444  24.969  0.00  0.00    -0.003 A 
ATOM     25  C   UNL     1      -4.347   2.714  25.594  0.00  0.00    +0.018 A 
ATOM     26  C   UNL     1      -4.790   3.405  25.510  0.00  0.00    +0.099 A 
ATOM     27  N   UNL     1      -4.767   3.826  24.801  0.00  0.00    -0.242 NA
ATOM     28  C   UNL     1      -4.300   3.556  24.176  0.00  0.00    +0.099 A 
ATOM     29  C   UNL     1      -3.858   2.866  24.260  0.00  0.00    +0.018 A 
ENDBRANCH   1  24
ENDBRANCH   2   1
ENDBRANCH   7   6
TORSDOF 5
ENDMDL
MODEL 4
REMARK VINA RESULT:      -8.8      1.861      2.637
REMARK  Name = 
REMARK  5 active torsions:
REMARK  status: ('A' for Active; 'I' for Inactive)
REMARK    1  A    between atoms: C_1  and  N_2
REMARK    2  A    between atoms: C_1  and  C_24
REMARK    3  A    between atoms: C_6  and  C_7
REMARK    4  A    between atoms: C_9  and  C_12
REMARK    5  A    between atoms: C_15  and  N_18
REMARK                            x       y       z     vdW  Elec       q    Type
REMARK                         _______ _______ _______ _____ _____    ______ ____
ROOT
ATOM      7  C   UNL     1      -0.416   1.523  25.265  0.00  0.00    +0.251 A 
ATOM      8  N   UNL     1      -1.057   1.014  25.372  0.00  0.00    -0.190 NA
ATOM      9  C   UNL     1      -1.062   0.476  24.748  0.00  0.00    +0.205 A 
ATOM     10  N   UNL     1      -0.425   0.651  24.255  0.00  0.00    -0.056 NA
ATOM     11  O   UNL     1      -0.026   1.298  24.574  0.00  0.00    -0.336 OA
ENDROOT
BRANCH   9  12
ATOM     12  C   UNL     1      -1.609  -0.132  24.637  0.00  0.00    +0.058 A 
ATOM     13  C   UNL     1      -2.408   0.046  24.535  0.00  0.00    +0.008 A 
ATOM     14  C   UNL     1      -2.955  -0.562  24.424  0.00  0.00    +0.034 A 
ATOM     15  C   UNL     1      -2.703  -1.347  24.414  0.00  0.00    +0.132 A 
ATOM     16  N   UNL     1      -1.904  -1.526  24.515  0.00  0.00    -0.229 NA
ATOM     17  C   UNL     1      -1.357  -0.918  24.626  0.00  0.00    +0.103 A 
BRANCH  15  18
ATOM     18  N   UNL     1      -3.250  -1.955  24.302  0.00  0.00    -0.288 N 
ATOM     19  C   UNL     1      -3.938  -1.816  23.869  0.00  0.00    +0.124 C 
ATOM     20  C   UNL     1      -4.485  -2.424  23.757  0.00  0.00    +0.164 C 
ATOM     21  O   UNL     1      -4.343  -3.170  24.079  0.00  0.00    -0.350 OA
ATOM     22  C   UNL     1      -3.655  -3.309  24.513  0.00  0.00    +0.164 C 
ATOM     23  C   UNL     1      -3.109  -2.701  24.624  0.00  0.00    +0.124 C 
ENDBRANCH  15  18
ENDBRANCH   9  12
BRANCH   7   6
ATOM      2  N   UNL     1      -0.397   2.942  25.651  0.00  0.00    -0.263 NA
ATOM      3  C   UNL     1      -0.074   3.371  26.277  0.00  0.00    +0.073 C 
ATOM      4  C   UNL     1       0.320   2.842  26.773  0.00  0.00    +0.019 C 
ATOM      5  C   UNL     1       0.240   2.086  26.455  0.00  0.00    +0.027 C 
ATOM      6  C   UNL     1      -0.204   2.147  25.761  0.00  0.00    +0.138 C 
BRANCH   2   1
ATOM      1  C   UNL     1      -0.837   3.252  25.026  0.00  0.00    +0.100 C 
BRANCH   1  24
ATOM     24  C   UNL     1      -1.166   4.005  25.087  0.00  0.00    -0.003 A 
ATOM     25  C   UNL     1      -0.745   4.662  24.820  0.00  0.00    +0.018 A 
ATOM     26  C   UNL     1      -1.074   5.417  24.881  0.00  0.00    +0.099 A 
ATOM     27  N   UNL     1      -1.824   5.513  25.210  0.00  0.00    -0.242 NA
ATOM     28  C   UNL     1      -2.245   4.857  25.477  0.00  0.00    +0.099 A 
ATOM     29  C   UNL     1      -1.917   4.103  25.416  0.00  0.00    +0.018 A 
ENDBRANCH   1  24
ENDBRANCH   2   1
ENDBRANCH   7   6
TORSDOF 5
ENDMDL
MODEL 5
REMARK VINA RESULT:      -8.1      3.118      4.575
REMARK  Name = 
REMARK  5 active torsions:
REMARK  status: ('A' for Active; 'I' for Inactive)
REMARK    1  A    between atoms: C_1  and  N_2
REMARK    2  A    between atoms: C_1  and  C_24
REMARK    3  A    between atoms: C_6  and  C_7
REMARK    4  A    between atoms: C_9  and  C_12
REMARK    5  A    between atoms: C_15  and  N_18
REMARK                            x       y       z     vdW  Elec       q    Type
REMARK                         _______ _______ _______ _____ _____    ______ ____
ROOT
ATOM      7  C   UNL     1      -1.688   2.909  25.498  0.00  0.00    +0.251 A 
ATOM      8  N   UNL     1      -1.279   2.654  24.827  0.00  0.00    -0.190 NA
ATOM      9  C   UNL     1      -0.706   2.113  25.069  0.00  0.00    +0.205 A 
ATOM     10  N   UNL     1      -0.759   2.034  25.888  0.00  0.00    -0.056 NA
ATOM     11  O   UNL     1      -1.366   2.526  26.153  0.00  0.00    -0.336 OA
ENDROOT
BRANCH   9  12
ATOM     12  C   UNL     1      -0.172   1.720  24.577  0.00  0.00    +0.058 A 
ATOM     13  C   UNL     1      -0.343   0.959  24.309  0.00  0.00    +0.008 A 
ATOM     14  C   UNL     1       0.191   0.566  23.817  0.00  0.00    +0.034 A 
ATOM     15  C   UNL     1       0.895   0.934  23.594  0.00  0.00    +0.132 A 
ATOM     16  N   UNL     1       1.066   1.695  23.863  0.00  0.00    -0.229 NA
ATOM     17  C   UNL     1       0.532   2.088  24.355  0.00  0.00    +0.103 A 
BRANCH  15  18
ATOM     18  N   UNL     1       1.429   0.541  23.103  0.00  0.00    -0.288 N 
ATOM     19  C   UNL     1       1.154  -0.010  22.553  0.00  0.00    +0.124 C 
ATOM     20  C   UNL     1       1.688  -0.403  22.062  0.00  0.00    +0.164 C 
ATOM     21  O   UNL     1       2.495  -0.245  22.120  0.00  0.00    -0.350 OA
ATOM     22  C   UNL     1       2.769   0.306  22.669  0.00  0.00    +0.164 C 
ATOM     23  C   UNL     1       2.236   0.699  23.161  0.00  0.00    +0.124 C 
ENDBRANCH  15  18
ENDBRANCH   9  12
BRANCH   7   6
ATOM      2  N   UNL     1      -3.110   3.274  25.425  0.00  0.00    -0.263 NA
ATOM      3  C   UNL     1      -3.533   3.980  25.471  0.00  0.00    +0.073 C 
ATOM      4  C   UNL     1      -2.994   4.595  25.585  0.00  0.00    +0.019 C 
ATOM      5  C   UNL     1      -2.237   4.268  25.609  0.00  0.00    +0.027 C 
ATOM      6  C   UNL     1      -2.308   3.452  25.510  0.00  0.00    +0.138 C 
BRANCH   2   1
ATOM      1  C   UNL     1      -3.430   2.523  25.313  0.00  0.00    +0.100 C 
BRANCH   1  24
ATOM     24  C   UNL     1      -4.244   2.432  25.218  0.00  0.00    -0.003 A 
ATOM     25  C   UNL     1      -4.561   2.314  24.465  0.00  0.00    +0.018 A 
ATOM     26  C   UNL     1      -5.376   2.223  24.370  0.00  0.00    +0.099 A 
ATOM     27  N   UNL     1      -5.873   2.250  25.028  0.00  0.00    -0.242 NA
ATOM     28  C   UNL     1      -5.556   2.368  25.780  0.00  0.00    +0.099 A 
ATOM     29  C   UNL     1      -4.743   2.459  25.875  0.00  0.00    +0.018 A 
ENDBRANCH   1  24
ENDBRANCH   2   1
ENDBRANCH   7   6
TORSDOF 5
ENDMDL
MODEL 6
REMARK VINA RESULT:      -8.0      2.009      2.995
REMARK  Name = 
REMARK  5 active torsions:
REMARK  status: ('A' for Active; 'I' for Inactive)
REMARK    1  A    between atoms: C_1  and  N_2
REMARK    2  A    between atoms: C_1  and  C_24
REMARK    3  A    between atoms: C_6  and  C_7
REMARK    4  A    between atoms: C_9  and  C_12
REMARK    5  A    between atoms: C_15  and  N_18
REMARK                            x       y       z     vdW  Elec       q    Type
REMARK                         _______ _______ _______ _____ _____    ______ ____
ROOT
ATOM      7  C   UNL     1      -0.893   2.986  25.382  0.00  0.00    +0.251 A 
ATOM      8  N   UNL     1      -1.281   2.311  25.107  0.00  0.00    -0.190 NA
ATOM      9  C   UNL     1      -0.827   1.654  25.315  0.00  0.00    +0.205 A 
ATOM     10  N   UNL     1      -0.160   1.923  25.718  0.00  0.00    -0.056 NA
ATOM     11  O   UNL     1      -0.201   2.746  25.759  0.00  0.00    -0.336 OA
ENDROOT
BRANCH   9  12
ATOM     12  C   UNL     1      -1.009   0.867  25.149  0.00  0.00    +0.058 A 
ATOM     13  C   UNL     1      -1.270   0.368  25.752  0.00  0.00    +0.008 A 
ATOM     14  C   UNL     1      -1.453  -0.420  25.586  0.00  0.00    +0.034 A 
ATOM     15  C   UNL     1      -1.373  -0.708  24.817  0.00  0.00    +0.132 A 
ATOM     16  N   UNL     1      -1.112  -0.209  24.214  0.00  0.00    -0.229 NA
ATOM     17  C   UNL     1      -0.930   0.578  24.380  0.00  0.00    +0.103 A 
BRANCH  15  18
ATOM     18  N   UNL     1      -1.556  -1.495  24.651  0.00  0.00    -0.288 N 
ATOM     19  C   UNL     1      -0.951  -2.035  24.496  0.00  0.00    +0.124 C 
ATOM     20  C   UNL     1      -1.133  -2.822  24.330  0.00  0.00    +0.164 C 
ATOM     21  O   UNL     1      -1.919  -3.070  24.318  0.00  0.00    -0.350 OA
ATOM     22  C   UNL     1      -2.524  -2.530  24.473  0.00  0.00    +0.164 C 
ATOM     23  C   UNL     1      -2.342  -1.743  24.639  0.00  0.00    +0.124 C 
ENDBRANCH  15  18
ENDBRANCH   9  12
BRANCH   7   6
ATOM      2  N   UNL     1      -1.896   4.053  25.508  0.00  0.00    -0.263 NA
ATOM      3  C   UNL     1      -1.918   4.857  25.323  0.00  0.00    +0.073 C 
ATOM      4  C   UNL     1      -1.189   5.064  24.996  0.00  0.00    +0.019 C 
ATOM      5  C   UNL     1      -0.716   4.388  24.979  0.00  0.00    +0.027 C 
ATOM      6  C   UNL     1      -1.153   3.763  25.295  0.00  0.00    +0.138 C 
BRANCH   2   1
ATOM      1  C   UNL     1      -2.508   3.616  25.846  0.00  0.00    +0.100 C 
BRANCH   1  24
ATOM     24  C   UNL     1      -3.292   3.786  25.652  0.00  0.00    -0.003 A 
ATOM     25  C   UNL     1      -3.777   4.169  26.198  0.00  0.00    +0.018 A 
ATOM     26  C   UNL     1      -4.562   4.339  26.004  0.00  0.00    +0.099 A 
ATOM     27  N   UNL     1      -4.859   4.126  25.265  0.00  0.00    -0.242 NA
ATOM     28  C   UNL     1      -4.373   3.743  24.719  0.00  0.00    +0.099 A 
ATOM     29  C   UNL     1      -3.590   3.574  24.913  0.00  0.00    +0.018 A 
ENDBRANCH   1  24
ENDBRANCH   2   1
ENDBRANCH   7   6
TORSDOF 5
ENDMDL
MODEL 7
REMARK VINA RESULT:      -7.9      1.559      5.614
REMARK  Name = 
REMARK  5 active torsions:
REMARK  status: ('A' for Active; 'I' for Inactive)
REMARK    1  A    between atoms: C_1  and  N_2
REMARK    2  A    between atoms: C_1  and  C_24
REMARK    3  A    between atoms: C_6  and  C_7
REMARK    4  A    between atoms: C_9  and  C_12
REMARK    5  A    between atoms: C_15  and  N_18
REMARK                            x       y       z     vdW  Elec       q    Type
REMARK                         _______ _______ _______ _____ _____    ______ ____
ROOT
ATOM      7  C   UNL     1      -4.049   0.111  24.647  0.00  0.00    +0.251 A 
ATOM      8  N   UNL     1      -3.444   0.659  24.520  0.00  0.00    -0.190 NA
ATOM      9  C   UNL     1      -3.652   1.360  24.901  0.00  0.00    +0.205 A 
ATOM     10  N   UNL     1      -4.383   1.246  25.264  0.00  0.00    -0.056 NA
ATOM     11  O   UNL     1      -4.628   0.475  25.107  0.00  0.00    -0.336 OA
ENDROOT
BRANCH   9  12
ATOM     12  C   UNL     1      -3.205   2.054  24.917  0.00  0.00    +0.058 A 
ATOM     13  C   UNL     1      -3.452   2.713  24.486  0.00  0.00    +0.008 A 
ATOM     14  C   UNL     1      -3.005   3.407  24.502  0.00  0.00    +0.034 A 
ATOM     15  C   UNL     1      -2.312   3.441  24.948  0.00  0.00    +0.132 A 
ATOM     16  N   UNL     1      -2.065   2.782  25.378  0.00  0.00    -0.229 NA
ATOM     17  C   UNL     1      -2.512   2.088  25.363  0.00  0.00    +0.103 A 
BRANCH  15  18
ATOM     18  N   UNL     1      -1.865   4.135  24.963  0.00  0.00    -0.288 N 
ATOM     19  C   UNL     1      -2.213   4.844  25.202  0.00  0.00    +0.124 C 
ATOM     20  C   UNL     1      -1.767   5.538  25.218  0.00  0.00    +0.164 C 
ATOM     21  O   UNL     1      -0.973   5.522  24.995  0.00  0.00    -0.350 OA
ATOM     22  C   UNL     1      -0.625   4.813  24.756  0.00  0.00    +0.164 C 
ATOM     23  C   UNL     1      -1.071   4.119  24.740  0.00  0.00    +0.124 C 
ENDBRANCH  15  18
ENDBRANCH   9  12
BRANCH   7   6
ATOM      2  N   UNL     1      -3.553  -1.271  24.577  0.00  0.00    -0.263 NA
ATOM      3  C   UNL     1      -3.773  -1.949  24.163  0.00  0.00    +0.073 C 
ATOM      4  C   UNL     1      -4.425  -1.761  23.693  0.00  0.00    +0.019 C 
ATOM      5  C   UNL     1      -4.608  -0.966  23.818  0.00  0.00    +0.027 C 
ATOM      6  C   UNL     1      -4.069  -0.663  24.364  0.00  0.00    +0.138 C 
BRANCH   2   1
ATOM      1  C   UNL     1      -2.926  -1.210  25.111  0.00  0.00    +0.100 C 
BRANCH   1  24
ATOM     24  C   UNL     1      -2.242  -1.656  24.996  0.00  0.00    -0.003 A 
ATOM     25  C   UNL     1      -2.234  -2.457  25.194  0.00  0.00    +0.018 A 
ATOM     26  C   UNL     1      -1.549  -2.903  25.079  0.00  0.00    +0.099 A 
ATOM     27  N   UNL     1      -0.874  -2.548  24.766  0.00  0.00    -0.242 NA
ATOM     28  C   UNL     1      -0.882  -1.747  24.568  0.00  0.00    +0.099 A 
ATOM     29  C   UNL     1      -1.566  -1.302  24.683  0.00  0.00    +0.018 A 
ENDBRANCH   1  24
ENDBRANCH   2   1
ENDBRANCH   7   6
TORSDOF 5
ENDMDL
MODEL 8
REMARK VINA RESULT:      -7.8      2.630      4.847
REMARK  Name = 
REMARK  5 active torsions:
REMARK  status: ('A' for Active; 'I' for Inactive)
REMARK    1  A    between atoms: C_1  and  N_2
REMARK    2  A    between atoms: C_1  and  C_24
REMARK    3  A    between atoms: C_6  and  C_7
REMARK    4  A    between atoms: C_9  and  C_12
REMARK    5  A    between atoms: C_15  and  N_18
REMARK                            x       y       z     vdW  Elec       q    Type
REMARK                         _______ _______ _______ _____ _____    ______ ____
ROOT
ATOM      7  C   UNL     1      -2.037  -0.747  24.619  0.00  0.00    +0.251 A 
ATOM      8  N   UNL     1      -2.312  -0.029  24.920  0.00  0.00    -0.190 NA
ATOM      9  C   UNL     1      -3.090   0.072  24.665  0.00  0.00    +0.205 A 
ATOM     10  N   UNL     1      -3.296  -0.582  24.207  0.00  0.00    -0.056 NA
ATOM     11  O   UNL     1      -2.645  -1.088  24.178  0.00  0.00    -0.336 OA
ENDROOT
BRANCH   9  12
ATOM     12  C   UNL     1      -3.577   0.716  24.838  0.00  0.00    +0.058 A 
ATOM     13  C   UNL     1      -4.383   0.599  24.967  0.00  0.00    +0.008 A 
ATOM     14  C   UNL     1      -4.870   1.243  25.140  0.00  0.00    +0.034 A 
ATOM     15  C   UNL     1      -4.550   2.002  25.184  0.00  0.00    +0.132 A 
ATOM     16  N   UNL     1      -3.744   2.119  25.055  0.00  0.00    -0.229 NA
ATOM     17  C   UNL     1      -3.257   1.475  24.882  0.00  0.00    +0.103 A 
BRANCH  15  18
ATOM     18  N   UNL     1      -5.037   2.646  25.357  0.00  0.00    -0.288 N 
ATOM     19  C   UNL     1      -4.753   3.414  25.263  0.00  0.00    +0.124 C 
ATOM     20  C   UNL     1      -5.240   4.058  25.436  0.00  0.00    +0.164 C 
ATOM     21  O   UNL     1      -6.010   3.932  25.703  0.00  0.00    -0.350 OA
ATOM     22  C   UNL     1      -6.293   3.163  25.798  0.00  0.00    +0.164 C 
ATOM     23  C   UNL     1      -5.807   2.520  25.625  0.00  0.00    +0.124 C 
ENDBRANCH  15  18
ENDBRANCH   9  12
BRANCH   7   6
ATOM      2  N   UNL     1      -0.597  -0.848  24.339  0.00  0.00    -0.263 NA
ATOM      3  C   UNL     1       0.022  -1.307  24.631  0.00  0.00    +0.073 C 
ATOM      4  C   UNL     1      -0.283  -1.809  25.211  0.00  0.00    +0.019 C 
ATOM      5  C   UNL     1      -1.092  -1.661  25.277  0.00  0.00    +0.027 C 
ATOM      6  C   UNL     1      -1.287  -1.067  24.738  0.00  0.00    +0.138 C 
BRANCH   2   1
ATOM      1  C   UNL     1      -0.539  -0.272  23.751  0.00  0.00    +0.100 C 
BRANCH   1  24
ATOM     24  C   UNL     1       0.200   0.020  23.533  0.00  0.00    -0.003 A 
ATOM     25  C   UNL     1       0.648  -0.376  22.965  0.00  0.00    +0.018 A 
ATOM     26  C   UNL     1       1.389  -0.083  22.746  0.00  0.00    +0.099 A 
ATOM     27  N   UNL     1       1.679   0.605  23.095  0.00  0.00    -0.242 NA
ATOM     28  C   UNL     1       1.230   1.001  23.663  0.00  0.00    +0.099 A 
ATOM     29  C   UNL     1       0.491   0.709  23.882  0.00  0.00    +0.018 A 
ENDBRANCH   1  24
ENDBRANCH   2   1
ENDBRANCH   7   6
TORSDOF 5
ENDMDL
