MODEL 1
REMARK VINA RESULT:     -15.5      0.000      0.000
REMARK  Name = 
REMARK  4 active torsions:
REMARK  status: ('A' for Active; 'I' for Inactive)
REMARK    1  A    between atoms: C_2  and  C_3
REMARK    2  A    between atoms: C_11  and  C_12
REMARK    3  A    between atoms: C_12  and  C_13
REMARK    4  A    between atoms: C_23  and  C_25
REMARK                            x       y       z     vdW  Elec       q    Type
REMARK                         _______ _______ _______ _____ _____    ______ ____
ROOT
ATOM      1  C   UNL     1      -0.798   4.524  25.004  0.00  0.00    +0.005 C 
ATOM      2  C   UNL     1      -1.478   4.061  25.063  0.00  0.00    +0.059 C 
ATOM      5  C   UNL     1      -1.789   4.798  25.260  0.00  0.00    +0.154 C 
ATOM      6  O   UNL     1      -1.300   5.463  25.277  0.00  0.00    -0.223 OA
ATOM      7  C   UNL     1      -2.592   4.872  25.441  0.00  0.00    +0.033 C 
ATOM      8  C   UNL     1      -3.081   4.208  25.424  0.00  0.00    +0.003 C 
ATOM      9  C   UNL     1      -2.769   3.471  25.228  0.00  0.00    +0.006 C 
ATOM     10  C   UNL     1      -3.570   3.545  25.408  0.00  0.00    +0.000 C 
ATOM     11  C   UNL     1      -3.258   2.807  25.211  0.00  0.00    +0.052 C 
ATOM     16  C   UNL     1      -2.946   2.069  25.014  0.00  0.00    +0.063 A 
ATOM     17  C   UNL     1      -2.144   1.995  24.834  0.00  0.00    +0.023 A 
ATOM     18  C   UNL     1      -1.655   2.659  24.850  0.00  0.00    +0.034 C 
ATOM     19  C   UNL     1      -1.967   3.397  25.047  0.00  0.00    +0.010 C 
ATOM     20  S   UNL     1      -1.994   1.202  24.661  0.00  0.00    -0.054 S 
ATOM     21  C   UNL     1      -2.702   0.786  24.735  0.00  0.00    +0.185 A 
ATOM     22  N   UNL     1      -2.805  -0.023  24.612  0.00  0.00    -0.151 NA
ATOM     23  C   UNL     1      -3.550  -0.363  24.706  0.00  0.00    +0.271 C 
ATOM     24  O   UNL     1      -4.193   0.105  24.924  0.00  0.00    -0.268 OA
ATOM     32  N   UNL     1      -3.290   1.322  24.953  0.00  0.00    -0.227 NA
ENDROOT
BRANCH  23  25
ATOM     25  C   UNL     1      -3.652  -1.173  24.583  0.00  0.00    +0.056 A 
ATOM     26  C   UNL     1      -3.309  -1.716  25.102  0.00  0.00    +0.007 A 
ATOM     27  C   UNL     1      -3.411  -2.525  24.979  0.00  0.00    +0.030 A 
ATOM     28  C   UNL     1      -3.856  -2.791  24.337  0.00  0.00    +0.140 A 
ATOM     29  F   UNL     1      -3.959  -3.601  24.214  0.00  0.00    -0.204 F 
ATOM     30  C   UNL     1      -4.199  -2.249  23.819  0.00  0.00    +0.030 A 
ATOM     31  C   UNL     1      -4.097  -1.440  23.942  0.00  0.00    +0.007 A 
ENDBRANCH  23  25
BRANCH   2   3
ATOM      3  C   UNL     1      -0.929   3.484  24.846  0.00  0.00    +0.184 C 
ATOM      4  O   UNL     1      -0.147   3.696  24.693  0.00  0.00    -0.220 OA
ENDBRANCH   2   3
BRANCH  11  12
ATOM     12  C   UNL     1      -4.060   2.880  25.391  0.00  0.00    +0.120 C 
BRANCH  12  13
ATOM     13  C   UNL     1      -4.626   2.805  24.795  0.00  0.00    +0.365 C 
ATOM     14  O   UNL     1      -5.358   2.463  24.963  0.00  0.00    -0.246 OA
ATOM     15  O   UNL     1      -4.460   3.070  24.033  0.00  0.00    -0.246 OA
ENDBRANCH  12  13
ENDBRANCH  11  12
TORSDOF 4
ENDMDL
MODEL 2
REMARK VINA RESULT:     -15.1      2.152      5.330
REMARK  Name = 
REMARK  4 active torsions:
REMARK  status: ('A' for Active; 'I' for Inactive)
REMARK    1  A    between atoms: C_2  and  C_3
REMARK    2  A    between atoms: C_11  and  C_12
REMARK    3  A    between atoms: C_12  and  C_13
REMARK    4  A    between atoms: C_23  and  C_25
REMARK                            x       y       z     vdW  Elec       q    Type
REMARK                         _______ _______ _______ _____ _____    ______ ____
ROOT
ATOM      1  C   UNL     1      -2.566  -2.789  24.599  0.00  0.00    +0.005 C 
ATOM      2  C   UNL     1      -2.872  -2.026  24.531  0.00  0.00    +0.059 C 
ATOM      5  C   UNL     1      -3.548  -2.467  24.363  0.00  0.00    +0.154 C 
ATOM      6  O   UNL     1      -3.515  -3.291  24.363  0.00  0.00    -0.223 OA
ATOM      7  C   UNL     1      -4.260  -2.083  24.193  0.00  0.00    +0.033 C 
ATOM      8  C   UNL     1      -4.294  -1.260  24.192  0.00  0.00    +0.003 C 
ATOM      9  C   UNL     1      -3.618  -0.819  24.361  0.00  0.00    +0.006 C 
ATOM     10  C   UNL     1      -4.327  -0.436  24.192  0.00  0.00    +0.000 C 
ATOM     11  C   UNL     1      -3.651   0.006  24.360  0.00  0.00    +0.052 C 
ATOM     16  C   UNL     1      -2.975   0.447  24.529  0.00  0.00    +0.063 A 
ATOM     17  C   UNL     1      -2.264   0.063  24.698  0.00  0.00    +0.023 A 
ATOM     18  C   UNL     1      -2.230  -0.761  24.699  0.00  0.00    +0.034 C 
ATOM     19  C   UNL     1      -2.906  -1.203  24.530  0.00  0.00    +0.010 C 
ATOM     20  S   UNL     1      -1.692   0.640  24.842  0.00  0.00    -0.054 S 
ATOM     21  C   UNL     1      -2.048   1.379  24.762  0.00  0.00    +0.185 A 
ATOM     22  N   UNL     1      -1.677   2.110  24.859  0.00  0.00    -0.151 NA
ATOM     23  C   UNL     1      -2.107   2.806  24.761  0.00  0.00    +0.271 C 
ATOM     24  O   UNL     1      -2.908   2.774  24.566  0.00  0.00    -0.268 OA
ATOM     32  N   UNL     1      -2.841   1.260  24.569  0.00  0.00    -0.227 NA
ENDROOT
BRANCH  23  25
ATOM     25  C   UNL     1      -1.736   3.537  24.858  0.00  0.00    +0.056 A 
ATOM     26  C   UNL     1      -0.973   3.654  24.566  0.00  0.00    +0.007 A 
ATOM     27  C   UNL     1      -0.602   4.385  24.663  0.00  0.00    +0.030 A 
ATOM     28  C   UNL     1      -0.994   4.998  25.052  0.00  0.00    +0.140 A 
ATOM     29  F   UNL     1      -0.623   5.728  25.148  0.00  0.00    -0.204 F 
ATOM     30  C   UNL     1      -1.756   4.881  25.343  0.00  0.00    +0.030 A 
ATOM     31  C   UNL     1      -2.127   4.150  25.247  0.00  0.00    +0.007 A 
ENDBRANCH  23  25
BRANCH   2   3
ATOM      3  C   UNL     1      -2.090  -1.851  24.723  0.00  0.00    +0.184 C 
ATOM      4  O   UNL     1      -1.541  -2.459  24.817  0.00  0.00    -0.220 OA
ENDBRANCH   2   3
BRANCH  11  12
ATOM     12  C   UNL     1      -4.362   0.389  24.191  0.00  0.00    +0.120 C 
BRANCH  12  13
ATOM     13  C   UNL     1      -4.768   0.789  24.788  0.00  0.00    +0.365 C 
ATOM     14  O   UNL     1      -5.158   1.496  24.619  0.00  0.00    -0.246 OA
ATOM     15  O   UNL     1      -4.784   0.482  25.553  0.00  0.00    -0.246 OA
ENDBRANCH  12  13
ENDBRANCH  11  12
TORSDOF 4
ENDMDL
MODEL 3
REMARK VINA RESULT:     -14.6      2.342      5.741
REMARK  Name = 
REMARK  4 active torsions:
REMARK  status: ('A' for Active; 'I' for Inactive)
REMARK    1  A    between atoms: C_2  and  C_3
REMARK    2  A    between atoms: C_11  and  C_12
REMARK    3  A    between atoms: C_12  and  C_13
REMARK    4  A    between atoms: C_23  and  C_25
REMARK                            x       y       z     vdW  Elec       q    Type
REMARK                         _______ _______ _______ _____ _____    ______ ____
ROOT
ATOM      1  C   UNL     1      -4.308  -2.286  24.040  0.00  0.00    +0.005 C 
ATOM      2  C   UNL     1      -3.662  -1.836  24.286  0.00  0.00    +0.059 C 
ATOM      5  C   UNL     1      -3.353  -2.594  24.383  0.00  0.00    +0.154 C 
ATOM      6  O   UNL     1      -3.813  -3.254  24.201  0.00  0.00    -0.223 OA
ATOM      7  C   UNL     1      -2.582  -2.693  24.663  0.00  0.00    +0.033 C 
ATOM      8  C   UNL     1      -2.122  -2.033  24.845  0.00  0.00    +0.003 C 
ATOM      9  C   UNL     1      -2.431  -1.275  24.748  0.00  0.00    +0.006 C 
ATOM     10  C   UNL     1      -1.662  -1.374  25.027  0.00  0.00    +0.000 C 
ATOM     11  C   UNL     1      -1.971  -0.615  24.930  0.00  0.00    +0.052 C 
ATOM     16  C   UNL     1      -2.281   0.143  24.833  0.00  0.00    +0.063 A 
ATOM     17  C   UNL     1      -3.051   0.242  24.554  0.00  0.00    +0.023 A 
ATOM     18  C   UNL     1      -3.511  -0.417  24.371  0.00  0.00    +0.034 C 
ATOM     19  C   UNL     1      -3.202  -1.176  24.468  0.00  0.00    +0.010 C 
ATOM     20  S   UNL     1      -3.206   1.052  24.515  0.00  0.00    -0.054 S 
ATOM     21  C   UNL     1      -2.532   1.453  24.769  0.00  0.00    +0.185 A 
ATOM     22  N   UNL     1      -2.445   2.272  24.819  0.00  0.00    -0.151 NA
ATOM     23  C   UNL     1      -1.735   2.596  25.085  0.00  0.00    +0.271 C 
ATOM     24  O   UNL     1      -1.111   2.101  25.303  0.00  0.00    -0.268 OA
ATOM     32  N   UNL     1      -1.961   0.892  24.966  0.00  0.00    -0.227 NA
ENDROOT
BRANCH  23  25
ATOM     25  C   UNL     1      -1.648   3.415  25.135  0.00  0.00    +0.056 A 
ATOM     26  C   UNL     1      -2.212   3.867  25.534  0.00  0.00    +0.007 A 
ATOM     27  C   UNL     1      -2.125   4.686  25.583  0.00  0.00    +0.030 A 
ATOM     28  C   UNL     1      -1.474   5.053  25.233  0.00  0.00    +0.140 A 
ATOM     29  F   UNL     1      -1.387   5.872  25.282  0.00  0.00    -0.204 F 
ATOM     30  C   UNL     1      -0.911   4.602  24.834  0.00  0.00    +0.030 A 
ATOM     31  C   UNL     1      -0.998   3.783  24.785  0.00  0.00    +0.007 A 
ENDBRANCH  23  25
BRANCH   2   3
ATOM      3  C   UNL     1      -4.196  -1.234  24.104  0.00  0.00    +0.184 C 
ATOM      4  O   UNL     1      -4.956  -1.422  23.843  0.00  0.00    -0.220 OA
ENDBRANCH   2   3
BRANCH  11  12
ATOM     12  C   UNL     1      -1.202  -0.713  25.210  0.00  0.00    +0.120 C 
BRANCH  12  13
ATOM     13  C   UNL     1      -0.559  -0.526  24.726  0.00  0.00    +0.365 C 
ATOM     14  O   UNL     1       0.062  -0.072  25.024  0.00  0.00    -0.246 OA
ATOM     15  O   UNL     1      -0.539  -0.792  23.946  0.00  0.00    -0.246 OA
ENDBRANCH  12  13
ENDBRANCH  11  12
TORSDOF 4
ENDMDL
MODEL 4
REMARK VINA RESULT:     -14.1      1.156      2.216
REMARK  Name = 
REMARK  4 active torsions:
REMARK  status: ('A' for Active; 'I' for Inactive)
REMARK    1  A    between atoms: C_2  and  C_3
REMARK    2  A    between atoms: C_11  and  C_12
REMARK    3  A    between atoms: C_12  and  C_13
REMARK    4  A    between atoms: C_23  and  C_25
REMARK                            x       y       z     vdW  Elec       q    Type
REMARK                         _______ _______ _______ _____ _____    ______ ____
ROOT
ATOM      1  C   UNL     1      -2.299   5.011  25.566  0.00  0.00    +0.005 C 
ATOM      2  C   UNL     1      -2.006   4.297  25.275  0.00  0.00    +0.059 C 
ATOM      5  C   UNL     1      -1.363   4.790  25.121  0.00  0.00    +0.154 C 
ATOM      6  O   UNL     1      -1.397   5.589  25.322  0.00  0.00    -0.223 OA
ATOM      7  C   UNL     1      -0.684   4.483  24.764  0.00  0.00    +0.033 C 
ATOM      8  C   UNL     1      -0.650   3.684  24.562  0.00  0.00    +0.003 C 
ATOM      9  C   UNL     1      -1.293   3.192  24.716  0.00  0.00    +0.006 C 
ATOM     10  C   UNL     1      -0.616   2.886  24.360  0.00  0.00    +0.000 C 
ATOM     11  C   UNL     1      -1.259   2.392  24.515  0.00  0.00    +0.052 C 
ATOM     16  C   UNL     1      -1.902   1.900  24.669  0.00  0.00    +0.063 A 
ATOM     17  C   UNL     1      -2.580   2.207  25.026  0.00  0.00    +0.023 A 
ATOM     18  C   UNL     1      -2.615   3.005  25.228  0.00  0.00    +0.034 C 
ATOM     19  C   UNL     1      -1.971   3.499  25.073  0.00  0.00    +0.010 C 
ATOM     20  S   UNL     1      -3.124   1.591  25.110  0.00  0.00    -0.054 S 
ATOM     21  C   UNL     1      -2.782   0.905  24.806  0.00  0.00    +0.185 A 
ATOM     22  N   UNL     1      -3.134   0.159  24.778  0.00  0.00    -0.151 NA
ATOM     23  C   UNL     1      -2.723  -0.478  24.456  0.00  0.00    +0.271 C 
ATOM     24  O   UNL     1      -1.959  -0.372  24.161  0.00  0.00    -0.268 OA
ATOM     32  N   UNL     1      -2.027   1.096  24.533  0.00  0.00    -0.227 NA
ENDROOT
BRANCH  23  25
ATOM     25  C   UNL     1      -3.074  -1.224  24.429  0.00  0.00    +0.056 A 
ATOM     26  C   UNL     1      -2.716  -1.864  24.810  0.00  0.00    +0.007 A 
ATOM     27  C   UNL     1      -3.068  -2.609  24.782  0.00  0.00    +0.030 A 
ATOM     28  C   UNL     1      -3.777  -2.716  24.374  0.00  0.00    +0.140 A 
ATOM     29  F   UNL     1      -4.129  -3.462  24.347  0.00  0.00    -0.204 F 
ATOM     30  C   UNL     1      -4.135  -2.078  23.994  0.00  0.00    +0.030 A 
ATOM     31  C   UNL     1      -3.783  -1.332  24.021  0.00  0.00    +0.007 A 
ENDBRANCH  23  25
BRANCH   2   3
ATOM      3  C   UNL     1      -2.751   4.053  25.530  0.00  0.00    +0.184 C 
ATOM      4  O   UNL     1      -3.225   4.565  25.970  0.00  0.00    -0.220 OA
ENDBRANCH   2   3
BRANCH  11  12
ATOM     12  C   UNL     1      -0.581   2.086  24.158  0.00  0.00    +0.120 C 
BRANCH  12  13
ATOM     13  C   UNL     1      -0.086   1.577  24.581  0.00  0.00    +0.365 C 
ATOM     14  O   UNL     1       0.257   0.929  24.203  0.00  0.00    -0.246 OA
ATOM     15  O   UNL     1       0.064   1.716  25.379  0.00  0.00    -0.246 OA
ENDBRANCH  12  13
ENDBRANCH  11  12
TORSDOF 4
ENDMDL
MODEL 5
REMARK VINA RESULT:     -12.1      2.456      5.358
REMARK  Name = 
REMARK  4 active torsions:
REMARK  status: ('A' for Active; 'I' for Inactive)
REMARK    1  A    between atoms: C_2  and  C_3
REMARK    2  A    between atoms: C_11  and  C_12
REMARK    3  A    between atoms: C_12  and  C_13
REMARK    4  A    between atoms: C_23  and  C_25
REMARK                            x       y       z     vdW  Elec       q    Type
REMARK                         _______ _______ _______ _____ _____    ______ ____
ROOT
ATOM      1  C   UNL     1      -2.936  -3.026  24.219  0.00  0.00    +0.005 C 
ATOM      2  C   UNL     1      -2.752  -2.251  24.432  0.00  0.00    +0.059 C 
ATOM      5  C   UNL     1      -2.002  -2.592  24.470  0.00  0.00    +0.154 C 
ATOM      6  O   UNL     1      -1.903  -3.393  24.296  0.00  0.00    -0.223 OA
ATOM      7  C   UNL     1      -1.349  -2.133  24.682  0.00  0.00    +0.033 C 
ATOM      8  C   UNL     1      -1.448  -1.333  24.855  0.00  0.00    +0.003 C 
ATOM      9  C   UNL     1      -2.197  -0.991  24.817  0.00  0.00    +0.006 C 
ATOM     10  C   UNL     1      -1.546  -0.533  25.029  0.00  0.00    +0.000 C 
ATOM     11  C   UNL     1      -2.296  -0.191  24.991  0.00  0.00    +0.052 C 
ATOM     16  C   UNL     1      -3.045   0.151  24.953  0.00  0.00    +0.063 A 
ATOM     17  C   UNL     1      -3.698  -0.309  24.741  0.00  0.00    +0.023 A 
ATOM     18  C   UNL     1      -3.600  -1.109  24.567  0.00  0.00    +0.034 C 
ATOM     19  C   UNL     1      -2.850  -1.451  24.605  0.00  0.00    +0.010 C 
ATOM     20  S   UNL     1      -4.365   0.177  24.750  0.00  0.00    -0.054 S 
ATOM     21  C   UNL     1      -4.125   0.936  24.967  0.00  0.00    +0.185 A 
ATOM     22  N   UNL     1      -4.615   1.595  25.046  0.00  0.00    -0.151 NA
ATOM     23  C   UNL     1      -4.295   2.322  25.268  0.00  0.00    +0.271 C 
ATOM     24  O   UNL     1      -3.486   2.390  25.412  0.00  0.00    -0.268 OA
ATOM     32  N   UNL     1      -3.310   0.919  25.092  0.00  0.00    -0.227 NA
ENDROOT
BRANCH  23  25
ATOM     25  C   UNL     1      -4.785   2.981  25.346  0.00  0.00    +0.056 A 
ATOM     26  C   UNL     1      -4.550   3.709  25.037  0.00  0.00    +0.007 A 
ATOM     27  C   UNL     1      -5.039   4.369  25.115  0.00  0.00    +0.030 A 
ATOM     28  C   UNL     1      -5.764   4.300  25.503  0.00  0.00    +0.140 A 
ATOM     29  F   UNL     1      -6.254   4.959  25.581  0.00  0.00    -0.204 F 
ATOM     30  C   UNL     1      -5.999   3.573  25.812  0.00  0.00    +0.030 A 
ATOM     31  C   UNL     1      -5.510   2.914  25.734  0.00  0.00    +0.007 A 
ENDBRANCH  23  25
BRANCH   2   3
ATOM      3  C   UNL     1      -3.566  -2.179  24.320  0.00  0.00    +0.184 C 
ATOM      4  O   UNL     1      -4.009  -2.833  24.085  0.00  0.00    -0.220 OA
ENDBRANCH   2   3
BRANCH  11  12
ATOM     12  C   UNL     1      -1.644   0.268  25.202  0.00  0.00    +0.120 C 
BRANCH  12  13
ATOM     13  C   UNL     1      -1.350   0.835  24.678  0.00  0.00    +0.365 C 
ATOM     14  O   UNL     1      -1.055   1.549  24.967  0.00  0.00    -0.246 OA
ATOM     15  O   UNL     1      -1.352   0.687  23.868  0.00  0.00    -0.246 OA
ENDBRANCH  12  13
ENDBRANCH  11  12
TORSDOF 4
ENDMDL
MODEL 6
REMARK VINA RESULT:     -11.9      2.530      4.046
REMARK  Name = 
REMARK  4 active torsions:
REMARK  status: ('A' for Active; 'I' for Inactive)
REMARK    1  A    between atoms: C_2  and  C_3
REMARK    2  A    between atoms: C_11  and  C_12
REMARK    3  A    between atoms: C_12  and  C_13
REMARK    4  A    between atoms: C_23  and  C_25
REMARK                            x       y       z     vdW  Elec       q    Type
REMARK                         _______ _______ _______ _____ _____    ______ ____
ROOT
ATOM      1  C   UNL     1      -5.236   3.147  25.058  0.00  0.00    +0.005 C 
ATOM      2  C   UNL     1      -4.771   2.469  24.985  0.00  0.00    +0.059 C 
ATOM      5  C   UNL     1      -5.466   2.135  25.275  0.00  0.00    +0.154 C 
ATOM      6  O   UNL     1      -6.117   2.615  25.441  0.00  0.00    -0.223 OA
ATOM      7  C   UNL     1      -5.512   1.320  25.401  0.00  0.00    +0.033 C 
ATOM      8  C   UNL     1      -4.862   0.841  25.236  0.00  0.00    +0.003 C 
ATOM      9  C   UNL     1      -4.166   1.175  24.946  0.00  0.00    +0.006 C 
ATOM     10  C   UNL     1      -4.211   0.362  25.071  0.00  0.00    +0.000 C 
ATOM     11  C   UNL     1      -3.515   0.696  24.780  0.00  0.00    +0.052 C 
ATOM     16  C   UNL     1      -2.820   1.030  24.490  0.00  0.00    +0.063 A 
ATOM     17  C   UNL     1      -2.774   1.845  24.364  0.00  0.00    +0.023 A 
ATOM     18  C   UNL     1      -3.425   2.324  24.529  0.00  0.00    +0.034 C 
ATOM     19  C   UNL     1      -4.121   1.990  24.820  0.00  0.00    +0.010 C 
ATOM     20  S   UNL     1      -2.021   2.015  24.074  0.00  0.00    -0.054 S 
ATOM     21  C   UNL     1      -1.601   1.308  24.021  0.00  0.00    +0.185 A 
ATOM     22  N   UNL     1      -0.823   1.224  23.758  0.00  0.00    -0.151 NA
ATOM     23  C   UNL     1      -0.474   0.478  23.735  0.00  0.00    +0.271 C 
ATOM     24  O   UNL     1      -0.902  -0.186  23.976  0.00  0.00    -0.268 OA
ATOM     32  N   UNL     1      -2.094   0.699  24.278  0.00  0.00    -0.227 NA
ENDROOT
BRANCH  23  25
ATOM     25  C   UNL     1       0.303   0.394  23.472  0.00  0.00    +0.056 A 
ATOM     26  C   UNL     1       0.881   0.931  23.714  0.00  0.00    +0.007 A 
ATOM     27  C   UNL     1       1.659   0.847  23.450  0.00  0.00    +0.030 A 
ATOM     28  C   UNL     1       1.858   0.226  22.945  0.00  0.00    +0.140 A 
ATOM     29  F   UNL     1       2.635   0.142  22.682  0.00  0.00    -0.204 F 
ATOM     30  C   UNL     1       1.281  -0.311  22.704  0.00  0.00    +0.030 A 
ATOM     31  C   UNL     1       0.503  -0.227  22.967  0.00  0.00    +0.007 A 
ENDBRANCH  23  25
BRANCH   2   3
ATOM      3  C   UNL     1      -4.237   3.039  24.719  0.00  0.00    +0.184 C 
ATOM      4  O   UNL     1      -4.446   3.837  24.728  0.00  0.00    -0.220 OA
ENDBRANCH   2   3
BRANCH  11  12
ATOM     12  C   UNL     1      -3.560  -0.118  24.906  0.00  0.00    +0.120 C 
BRANCH  12  13
ATOM     13  C   UNL     1      -3.590  -0.635  24.262  0.00  0.00    +0.365 C 
ATOM     14  O   UNL     1      -3.214  -1.368  24.305  0.00  0.00    -0.246 OA
ATOM     15  O   UNL     1      -3.995  -0.418  23.578  0.00  0.00    -0.246 OA
ENDBRANCH  12  13
ENDBRANCH  11  12
TORSDOF 4
ENDMDL
MODEL 7
REMARK VINA RESULT:     -11.6      2.321      3.868
REMARK  Name = 
REMARK  4 active torsions:
REMARK  status: ('A' for Active; 'I' for Inactive)
REMARK    1  A    between atoms: C_2  and  C_3
REMARK    2  A    between atoms: C_11  and  C_12
REMARK    3  A    between atoms: C_12  and  C_13
REMARK    4  A    between atoms: C_23  and  C_25
REMARK                            x       y       z     vdW  Elec       q    Type
REMARK                         _______ _______ _______ _____ _____    ______ ____
ROOT
ATOM      1  C   UNL     1      -5.829   2.181  25.342  0.00  0.00    +0.005 C 
ATOM      2  C   UNL     1      -5.051   2.429  25.223  0.00  0.00    +0.059 C 
ATOM      5  C   UNL     1      -5.390   3.136  25.476  0.00  0.00    +0.154 C 
ATOM      6  O   UNL     1      -6.192   3.165  25.669  0.00  0.00    -0.223 OA
ATOM      7  C   UNL     1      -4.927   3.817  25.538  0.00  0.00    +0.033 C 
ATOM      8  C   UNL     1      -4.126   3.789  25.346  0.00  0.00    +0.003 C 
ATOM      9  C   UNL     1      -3.787   3.081  25.092  0.00  0.00    +0.006 C 
ATOM     10  C   UNL     1      -3.324   3.761  25.153  0.00  0.00    +0.000 C 
ATOM     11  C   UNL     1      -2.985   3.053  24.900  0.00  0.00    +0.052 C 
ATOM     16  C   UNL     1      -2.646   2.345  24.646  0.00  0.00    +0.063 A 
ATOM     17  C   UNL     1      -3.110   1.664  24.585  0.00  0.00    +0.023 A 
ATOM     18  C   UNL     1      -3.911   1.692  24.777  0.00  0.00    +0.034 C 
ATOM     19  C   UNL     1      -4.250   2.400  25.031  0.00  0.00    +0.010 C 
ATOM     20  S   UNL     1      -2.626   1.050  24.321  0.00  0.00    -0.054 S 
ATOM     21  C   UNL     1      -1.864   1.350  24.219  0.00  0.00    +0.185 A 
ATOM     22  N   UNL     1      -1.206   0.925  23.962  0.00  0.00    -0.151 NA
ATOM     23  C   UNL     1      -0.476   1.301  23.886  0.00  0.00    +0.271 C 
ATOM     24  O   UNL     1      -0.404   2.103  24.068  0.00  0.00    -0.268 OA
ATOM     32  N   UNL     1      -1.877   2.150  24.420  0.00  0.00    -0.227 NA
ENDROOT
BRANCH  23  25
ATOM     25  C   UNL     1       0.182   0.876  23.629  0.00  0.00    +0.056 A 
ATOM     26  C   UNL     1       0.932   1.222  23.652  0.00  0.00    +0.007 A 
ATOM     27  C   UNL     1       1.590   0.796  23.395  0.00  0.00    +0.030 A 
ATOM     28  C   UNL     1       1.499   0.026  23.114  0.00  0.00    +0.140 A 
ATOM     29  F   UNL     1       2.158  -0.399  22.857  0.00  0.00    -0.204 F 
ATOM     30  C   UNL     1       0.751  -0.319  23.090  0.00  0.00    +0.030 A 
ATOM     31  C   UNL     1       0.093   0.106  23.348  0.00  0.00    +0.007 A 
ENDBRANCH  23  25
BRANCH   2   3
ATOM      3  C   UNL     1      -4.983   1.635  25.011  0.00  0.00    +0.184 C 
ATOM      4  O   UNL     1      -5.648   1.147  25.018  0.00  0.00    -0.220 OA
ENDBRANCH   2   3
BRANCH  11  12
ATOM     12  C   UNL     1      -2.522   3.733  24.961  0.00  0.00    +0.120 C 
BRANCH  12  13
ATOM     13  C   UNL     1      -1.958   3.795  25.560  0.00  0.00    +0.365 C 
ATOM     14  O   UNL     1      -1.241   4.176  25.413  0.00  0.00    -0.246 OA
ATOM     15  O   UNL     1      -2.110   3.478  26.305  0.00  0.00    -0.246 OA
ENDBRANCH  12  13
ENDBRANCH  11  12
TORSDOF 4
ENDMDL
MODEL 8
REMARK VINA RESULT:     -11.5      1.612      2.625
REMARK  Name = 
REMARK  4 active torsions:
REMARK  status: ('A' for Active; 'I' for Inactive)
REMARK    1  A    between atoms: C_2  and  C_3
REMARK    2  A    between atoms: C_11  and  C_12
REMARK    3  A    between atoms: C_12  and  C_13
REMARK    4  A    between atoms: C_23  and  C_25
REMARK                            x       y       z     vdW  Elec       q    Type
REMARK                         _______ _______ _______ _____ _____    ______ ____
ROOT
ATOM      1  C   UNL     1      -5.585   4.161  25.695  0.00  0.00    +0.005 C 
ATOM      2  C   UNL     1      -5.058   3.657  25.310  0.00  0.00    +0.059 C 
ATOM      5  C   UNL     1      -4.748   4.387  25.086  0.00  0.00    +0.154 C 
ATOM      6  O   UNL     1      -5.103   5.085  25.346  0.00  0.00    -0.223 OA
ATOM      7  C   UNL     1      -4.080   4.421  24.600  0.00  0.00    +0.033 C 
ATOM      8  C   UNL     1      -3.724   3.724  24.340  0.00  0.00    +0.003 C 
ATOM      9  C   UNL     1      -4.034   2.994  24.565  0.00  0.00    +0.006 C 
ATOM     10  C   UNL     1      -3.369   3.027  24.081  0.00  0.00    +0.000 C 
ATOM     11  C   UNL     1      -3.679   2.296  24.305  0.00  0.00    +0.052 C 
ATOM     16  C   UNL     1      -3.989   1.566  24.529  0.00  0.00    +0.063 A 
ATOM     17  C   UNL     1      -4.656   1.532  25.015  0.00  0.00    +0.023 A 
ATOM     18  C   UNL     1      -5.012   2.229  25.274  0.00  0.00    +0.034 C 
ATOM     19  C   UNL     1      -4.702   2.960  25.050  0.00  0.00    +0.010 C 
ATOM     20  S   UNL     1      -4.836   0.738  25.144  0.00  0.00    -0.054 S 
ATOM     21  C   UNL     1      -4.282   0.280  24.740  0.00  0.00    +0.185 A 
ATOM     22  N   UNL     1      -4.255  -0.544  24.720  0.00  0.00    -0.151 NA
ATOM     23  C   UNL     1      -3.665  -0.927  24.290  0.00  0.00    +0.271 C 
ATOM     24  O   UNL     1      -3.101  -0.486  23.880  0.00  0.00    -0.268 OA
ATOM     32  N   UNL     1      -3.758   0.792  24.360  0.00  0.00    -0.227 NA
ENDROOT
BRANCH  23  25
ATOM     25  C   UNL     1      -3.639  -1.751  24.269  0.00  0.00    +0.056 A 
ATOM     26  C   UNL     1      -4.190  -2.171  23.820  0.00  0.00    +0.007 A 
ATOM     27  C   UNL     1      -4.164  -2.995  23.799  0.00  0.00    +0.030 A 
ATOM     28  C   UNL     1      -3.586  -3.400  24.228  0.00  0.00    +0.140 A 
ATOM     29  F   UNL     1      -3.560  -4.224  24.208  0.00  0.00    -0.204 F 
ATOM     30  C   UNL     1      -3.036  -2.981  24.677  0.00  0.00    +0.030 A 
ATOM     31  C   UNL     1      -3.062  -2.157  24.697  0.00  0.00    +0.007 A 
ENDBRANCH  23  25
BRANCH   2   3
ATOM      3  C   UNL     1      -5.551   3.102  25.668  0.00  0.00    +0.184 C 
ATOM      4  O   UNL     1      -6.185   3.352  26.133  0.00  0.00    -0.220 OA
ENDBRANCH   2   3
BRANCH  11  12
ATOM     12  C   UNL     1      -3.012   2.329  23.820  0.00  0.00    +0.120 C 
BRANCH  12  13
ATOM     13  C   UNL     1      -2.272   2.119  24.120  0.00  0.00    +0.365 C 
ATOM     14  O   UNL     1      -1.729   1.728  23.638  0.00  0.00    -0.246 OA
ATOM     15  O   UNL     1      -2.077   2.299  24.900  0.00  0.00    -0.246 OA
ENDBRANCH  12  13
ENDBRANCH  11  12
TORSDOF 4
ENDMDL
