MODEL 1
REMARK VINA RESULT:     -11.0      0.000      0.000
REMARK  Name = 
REMARK  8 active torsions:
REMARK  status: ('A' for Active; 'I' for Inactive)
REMARK    1  A    between atoms: O_2  and  C_3
REMARK    2  A    between atoms: C_3  and  C_4
REMARK    3  A    between atoms: C_4  and  O_5
REMARK    4  A    between atoms: O_5  and  C_6
REMARK    5  A    between atoms: C_8  and  C_12
REMARK    6  A    between atoms: C_15  and  C_17
REMARK    7  A    between atoms: N_21  and  C_22
REMARK    8  A    between atoms: C_22  and  C_23
REMARK                            x       y       z     vdW  Elec       q    Type
REMARK                         _______ _______ _______ _____ _____    ______ ____
ROOT
ATOM     12  C   UNL     1      -3.153   3.356  24.755  0.00  0.00    +0.204 A 
ATOM     13  N   UNL     1      -3.633   3.541  24.110  0.00  0.00    -0.056 NA
ATOM     14  O   UNL     1      -4.298   3.053  24.138  0.00  0.00    -0.336 OA
ATOM     15  C   UNL     1      -4.229   2.567  24.801  0.00  0.00    +0.251 A 
ATOM     16  N   UNL     1      -3.522   2.754  25.183  0.00  0.00    -0.190 NA
ENDROOT
BRANCH  12   8
ATOM      6  C   UNL     1      -1.029   3.604  25.193  0.00  0.00    +0.225 A 
ATOM      7  C   UNL     1      -1.751   3.249  25.008  0.00  0.00    +0.061 A 
ATOM      8  C   UNL     1      -2.432   3.710  24.941  0.00  0.00    +0.045 A 
ATOM      9  C   UNL     1      -2.391   4.525  25.058  0.00  0.00    +0.024 A 
ATOM     10  C   UNL     1      -1.670   4.880  25.244  0.00  0.00    +0.102 A 
ATOM     11  N   UNL     1      -0.989   4.420  25.311  0.00  0.00    -0.210 NA
BRANCH   6   5
ATOM      5  O   UNL     1      -0.348   3.144  25.261  0.00  0.00    -0.457 OA
BRANCH   5   4
ATOM      4  C   UNL     1      -0.087   2.695  24.620  0.00  0.00    +0.239 C 
BRANCH   4   3
ATOM      3  C   UNL     1       0.435   2.068  24.741  0.00  0.00    +0.189 C 
BRANCH   3   2
ATOM      1  C   UNL     1       0.903   1.071  23.830  0.00  0.00    +0.174 C 
ATOM      2  O   UNL     1       0.947   1.835  24.137  0.00  0.00    -0.347 OA
ENDBRANCH   3   2
ENDBRANCH   4   3
ENDBRANCH   5   4
ENDBRANCH   6   5
ENDBRANCH  12   8
BRANCH  15  17
ATOM     17  C   UNL     1      -4.772   1.994  25.041  0.00  0.00    +0.138 C 
ATOM     18  C   UNL     1      -5.476   2.134  25.449  0.00  0.00    +0.027 C 
ATOM     19  C   UNL     1      -5.846   1.407  25.576  0.00  0.00    +0.019 C 
ATOM     20  C   UNL     1      -5.371   0.819  25.246  0.00  0.00    +0.073 C 
ATOM     21  N   UNL     1      -4.707   1.182  24.916  0.00  0.00    -0.263 NA
BRANCH  21  22
ATOM     22  C   UNL     1      -4.088   0.798  24.528  0.00  0.00    +0.099 C 
BRANCH  22  23
ATOM     23  C   UNL     1      -4.004  -0.019  24.593  0.00  0.00    -0.006 A 
ATOM     24  C   UNL     1      -4.286  -0.512  23.995  0.00  0.00    -0.002 A 
ATOM     25  C   UNL     1      -4.202  -1.330  24.060  0.00  0.00    +0.011 A 
ATOM     26  C   UNL     1      -3.835  -1.656  24.723  0.00  0.00    +0.058 A 
ATOM     27 CL   UNL     1      -3.751  -2.474  24.788  0.00  0.00    -0.082 Cl
ATOM     28  C   UNL     1      -3.553  -1.163  25.322  0.00  0.00    +0.011 A 
ATOM     29  C   UNL     1      -3.637  -0.345  25.256  0.00  0.00    -0.002 A 
ENDBRANCH  22  23
ENDBRANCH  21  22
ENDBRANCH  15  17
TORSDOF 8
ENDMDL
MODEL 2
REMARK VINA RESULT:     -10.9      1.631      3.715
REMARK  Name = 
REMARK  8 active torsions:
REMARK  status: ('A' for Active; 'I' for Inactive)
REMARK    1  A    between atoms: O_2  and  C_3
REMARK    2  A    between atoms: C_3  and  C_4
REMARK    3  A    between atoms: C_4  and  O_5
REMARK    4  A    between atoms: O_5  and  C_6
REMARK    5  A    between atoms: C_8  and  C_12
REMARK    6  A    between atoms: C_15  and  C_17
REMARK    7  A    between atoms: N_21  and  C_22
REMARK    8  A    between atoms: C_22  and  C_23
REMARK                            x       y       z     vdW  Elec       q    Type
REMARK                         _______ _______ _______ _____ _____    ______ ____
ROOT
ATOM     12  C   UNL     1      -0.878   2.533  25.328  0.00  0.00    +0.204 A 
ATOM     13  N   UNL     1      -0.368   2.227  25.900  0.00  0.00    -0.056 NA
ATOM     14  O   UNL     1      -0.098   1.493  25.635  0.00  0.00    -0.336 OA
ATOM     15  C   UNL     1      -0.442   1.346  24.900  0.00  0.00    +0.251 A 
ATOM     16  N   UNL     1      -0.923   1.989  24.710  0.00  0.00    -0.190 NA
ENDROOT
BRANCH  12   8
ATOM      6  C   UNL     1      -2.443   4.011  25.686  0.00  0.00    +0.225 A 
ATOM      7  C   UNL     1      -2.049   3.288  25.646  0.00  0.00    +0.061 A 
ATOM      8  C   UNL     1      -1.273   3.256  25.367  0.00  0.00    +0.045 A 
ATOM      9  C   UNL     1      -0.892   3.947  25.128  0.00  0.00    +0.024 A 
ATOM     10  C   UNL     1      -1.287   4.670  25.167  0.00  0.00    +0.102 A 
ATOM     11  N   UNL     1      -2.062   4.703  25.446  0.00  0.00    -0.210 NA
BRANCH   6   5
ATOM      5  O   UNL     1      -3.219   4.043  25.965  0.00  0.00    -0.457 OA
BRANCH   5   4
ATOM      4  C   UNL     1      -3.838   3.758  25.500  0.00  0.00    +0.239 C 
BRANCH   4   3
ATOM      3  C   UNL     1      -4.589   3.661  25.827  0.00  0.00    +0.189 C 
BRANCH   3   2
ATOM      1  C   UNL     1      -5.765   2.880  25.608  0.00  0.00    +0.174 C 
ATOM      2  O   UNL     1      -5.223   3.444  25.347  0.00  0.00    -0.347 OA
ENDBRANCH   3   2
ENDBRANCH   4   3
ENDBRANCH   5   4
ENDBRANCH   6   5
ENDBRANCH  12   8
BRANCH  15  17
ATOM     17  C   UNL     1      -0.324   0.675  24.435  0.00  0.00    +0.138 C 
ATOM     18  C   UNL     1       0.211   0.604  23.811  0.00  0.00    +0.027 C 
ATOM     19  C   UNL     1       0.145  -0.159  23.503  0.00  0.00    +0.019 C 
ATOM     20  C   UNL     1      -0.432  -0.559  23.937  0.00  0.00    +0.073 C 
ATOM     21  N   UNL     1      -0.722  -0.044  24.513  0.00  0.00    -0.263 NA
BRANCH  21  22
ATOM     22  C   UNL     1      -1.306  -0.218  25.068  0.00  0.00    +0.099 C 
BRANCH  22  23
ATOM     23  C   UNL     1      -1.842  -0.828  24.926  0.00  0.00    -0.006 A 
ATOM     24  C   UNL     1      -2.597  -0.656  24.640  0.00  0.00    -0.002 A 
ATOM     25  C   UNL     1      -3.134  -1.265  24.498  0.00  0.00    +0.011 A 
ATOM     26  C   UNL     1      -2.916  -2.048  24.640  0.00  0.00    +0.058 A 
ATOM     27 CL   UNL     1      -3.453  -2.659  24.498  0.00  0.00    -0.082 Cl
ATOM     28  C   UNL     1      -2.162  -2.221  24.926  0.00  0.00    +0.011 A 
ATOM     29  C   UNL     1      -1.625  -1.611  25.068  0.00  0.00    -0.002 A 
ENDBRANCH  22  23
ENDBRANCH  21  22
ENDBRANCH  15  17
TORSDOF 8
ENDMDL
MODEL 3
REMARK VINA RESULT:     -10.5      2.372      4.598
REMARK  Name = 
REMARK  8 active torsions:
REMARK  status: ('A' for Active; 'I' for Inactive)
REMARK    1  A    between atoms: O_2  and  C_3
REMARK    2  A    between atoms: C_3  and  C_4
REMARK    3  A    between atoms: C_4  and  O_5
REMARK    4  A    between atoms: O_5  and  C_6
REMARK    5  A    between atoms: C_8  and  C_12
REMARK    6  A    between atoms: C_15  and  C_17
REMARK    7  A    between atoms: N_21  and  C_22
REMARK    8  A    between atoms: C_22  and  C_23
REMARK                            x       y       z     vdW  Elec       q    Type
REMARK                         _______ _______ _______ _____ _____    ______ ____
ROOT
ATOM     12  C   UNL     1      -0.340   1.644  24.932  0.00  0.00    +0.204 A 
ATOM     13  N   UNL     1      -0.014   1.866  25.656  0.00  0.00    -0.056 NA
ATOM     14  O   UNL     1      -0.276   2.629  25.830  0.00  0.00    -0.336 OA
ATOM     15  C   UNL     1      -0.765   2.878  25.214  0.00  0.00    +0.251 A 
ATOM     16  N   UNL     1      -0.804   2.269  24.658  0.00  0.00    -0.190 NA
ENDROOT
BRANCH  12   8
ATOM      6  C   UNL     1      -0.473  -0.481  24.449  0.00  0.00    +0.225 A 
ATOM      7  C   UNL     1      -0.591   0.241  24.832  0.00  0.00    +0.061 A 
ATOM      8  C   UNL     1      -0.223   0.923  24.548  0.00  0.00    +0.045 A 
ATOM      9  C   UNL     1       0.260   0.884  23.882  0.00  0.00    +0.024 A 
ATOM     10  C   UNL     1       0.378   0.163  23.499  0.00  0.00    +0.102 A 
ATOM     11  N   UNL     1       0.011  -0.519  23.782  0.00  0.00    -0.210 NA
BRANCH   6   5
ATOM      5  O   UNL     1      -0.840  -1.163  24.732  0.00  0.00    -0.457 OA
BRANCH   5   4
ATOM      4  C   UNL     1      -1.502  -1.467  24.346  0.00  0.00    +0.239 C 
BRANCH   4   3
ATOM      3  C   UNL     1      -1.937  -2.077  24.691  0.00  0.00    +0.189 C 
BRANCH   3   2
ATOM      1  C   UNL     1      -3.252  -2.633  24.624  0.00  0.00    +0.174 C 
ATOM      2  O   UNL     1      -2.533  -2.453  24.261  0.00  0.00    -0.347 OA
ENDBRANCH   3   2
ENDBRANCH   4   3
ENDBRANCH   5   4
ENDBRANCH   6   5
ENDBRANCH  12   8
BRANCH  15  17
ATOM     17  C   UNL     1      -1.147   3.607  25.161  0.00  0.00    +0.138 C 
ATOM     18  C   UNL     1      -0.787   4.332  24.998  0.00  0.00    +0.027 C 
ATOM     19  C   UNL     1      -1.374   4.913  24.998  0.00  0.00    +0.019 C 
ATOM     20  C   UNL     1      -2.095   4.547  25.162  0.00  0.00    +0.073 C 
ATOM     21  N   UNL     1      -1.954   3.740  25.262  0.00  0.00    -0.263 NA
BRANCH  21  22
ATOM     22  C   UNL     1      -2.523   3.167  25.434  0.00  0.00    +0.099 C 
BRANCH  22  23
ATOM     23  C   UNL     1      -3.323   3.363  25.419  0.00  0.00    -0.006 A 
ATOM     24  C   UNL     1      -3.692   3.648  26.100  0.00  0.00    -0.002 A 
ATOM     25  C   UNL     1      -4.492   3.844  26.085  0.00  0.00    +0.011 A 
ATOM     26  C   UNL     1      -4.926   3.754  25.389  0.00  0.00    +0.058 A 
ATOM     27 CL   UNL     1      -5.728   3.950  25.374  0.00  0.00    -0.082 Cl
ATOM     28  C   UNL     1      -4.559   3.469  24.707  0.00  0.00    +0.011 A 
ATOM     29  C   UNL     1      -3.757   3.273  24.723  0.00  0.00    -0.002 A 
ENDBRANCH  22  23
ENDBRANCH  21  22
ENDBRANCH  15  17
TORSDOF 8
ENDMDL
MODEL 4
REMARK VINA RESULT:     -10.4      2.203      4.261
REMARK  Name = 
REMARK  8 active torsions:
REMARK  status: ('A' for Active; 'I' for Inactive)
REMARK    1  A    between atoms: O_2  and  C_3
REMARK    2  A    between atoms: C_3  and  C_4
REMARK    3  A    between atoms: C_4  and  O_5
REMARK    4  A    between atoms: O_5  and  C_6
REMARK    5  A    between atoms: C_8  and  C_12
REMARK    6  A    between atoms: C_15  and  C_17
REMARK    7  A    between atoms: N_21  and  C_22
REMARK    8  A    between atoms: C_22  and  C_23
REMARK                            x       y       z     vdW  Elec       q    Type
REMARK                         _______ _______ _______ _____ _____    ______ ____
ROOT
ATOM     12  C   UNL     1      -4.042  -0.255  24.787  0.00  0.00    +0.204 A 
ATOM     13  N   UNL     1      -4.580  -0.157  24.169  0.00  0.00    -0.056 NA
ATOM     14  O   UNL     1      -4.952   0.573  24.268  0.00  0.00    -0.336 OA
ATOM     15  C   UNL     1      -4.644   0.926  24.947  0.00  0.00    +0.251 A 
ATOM     16  N   UNL     1      -4.081   0.414  25.268  0.00  0.00    -0.190 NA
ENDROOT
BRANCH  12   8
ATOM      6  C   UNL     1      -2.240  -1.462  25.034  0.00  0.00    +0.225 A 
ATOM      7  C   UNL     1      -2.731  -0.809  24.917  0.00  0.00    +0.061 A 
ATOM      8  C   UNL     1      -3.550  -0.907  24.904  0.00  0.00    +0.045 A 
ATOM      9  C   UNL     1      -3.878  -1.657  25.007  0.00  0.00    +0.024 A 
ATOM     10  C   UNL     1      -3.387  -2.309  25.123  0.00  0.00    +0.102 A 
ATOM     11  N   UNL     1      -2.568  -2.212  25.137  0.00  0.00    -0.210 NA
BRANCH   6   5
ATOM      5  O   UNL     1      -1.421  -1.365  25.047  0.00  0.00    -0.457 OA
BRANCH   5   4
ATOM      4  C   UNL     1      -1.010  -1.224  24.346  0.00  0.00    +0.239 C 
BRANCH   4   3
ATOM      3  C   UNL     1      -0.255  -0.891  24.371  0.00  0.00    +0.189 C 
BRANCH   3   2
ATOM      1  C   UNL     1       0.606  -0.216  23.450  0.00  0.00    +0.174 C 
ATOM      2  O   UNL     1       0.223  -0.904  23.698  0.00  0.00    -0.347 OA
ENDBRANCH   3   2
ENDBRANCH   4   3
ENDBRANCH   5   4
ENDBRANCH   6   5
ENDBRANCH  12   8
BRANCH  15  17
ATOM     17  C   UNL     1      -4.860   1.661  25.252  0.00  0.00    +0.138 C 
ATOM     18  C   UNL     1      -5.549   1.826  25.676  0.00  0.00    +0.027 C 
ATOM     19  C   UNL     1      -5.541   2.628  25.873  0.00  0.00    +0.019 C 
ATOM     20  C   UNL     1      -4.847   2.957  25.572  0.00  0.00    +0.073 C 
ATOM     21  N   UNL     1      -4.426   2.359  25.188  0.00  0.00    -0.263 NA
BRANCH  21  22
ATOM     22  C   UNL     1      -3.700   2.446  24.808  0.00  0.00    +0.099 C 
BRANCH  22  23
ATOM     23  C   UNL     1      -3.228   3.104  24.963  0.00  0.00    -0.006 A 
ATOM     24  C   UNL     1      -3.325   3.795  24.521  0.00  0.00    -0.002 A 
ATOM     25  C   UNL     1      -2.854   4.453  24.676  0.00  0.00    +0.011 A 
ATOM     26  C   UNL     1      -2.285   4.422  25.273  0.00  0.00    +0.058 A 
ATOM     27 CL   UNL     1      -1.813   5.081  25.428  0.00  0.00    -0.082 Cl
ATOM     28  C   UNL     1      -2.188   3.732  25.715  0.00  0.00    +0.011 A 
ATOM     29  C   UNL     1      -2.660   3.073  25.559  0.00  0.00    -0.002 A 
ENDBRANCH  22  23
ENDBRANCH  21  22
ENDBRANCH  15  17
TORSDOF 8
ENDMDL
MODEL 5
REMARK VINA RESULT:      -9.8      1.791      3.267
REMARK  Name = 
REMARK  8 active torsions:
REMARK  status: ('A' for Active; 'I' for Inactive)
REMARK    1  A    between atoms: O_2  and  C_3
REMARK    2  A    between atoms: C_3  and  C_4
REMARK    3  A    between atoms: C_4  and  O_5
REMARK    4  A    between atoms: O_5  and  C_6
REMARK    5  A    between atoms: C_8  and  C_12
REMARK    6  A    between atoms: C_15  and  C_17
REMARK    7  A    between atoms: N_21  and  C_22
REMARK    8  A    between atoms: C_22  and  C_23
REMARK                            x       y       z     vdW  Elec       q    Type
REMARK                         _______ _______ _______ _____ _____    ______ ____
ROOT
ATOM     12  C   UNL     1      -4.723   1.365  25.230  0.00  0.00    +0.204 A 
ATOM     13  N   UNL     1      -5.060   0.889  25.814  0.00  0.00    -0.056 NA
ATOM     14  O   UNL     1      -4.883   0.102  25.636  0.00  0.00    -0.336 OA
ATOM     15  C   UNL     1      -4.437   0.093  24.942  0.00  0.00    +0.251 A 
ATOM     16  N   UNL     1      -4.338   0.874  24.691  0.00  0.00    -0.190 NA
ENDROOT
BRANCH  12   8
ATOM      6  C   UNL     1      -4.165   3.443  24.867  0.00  0.00    +0.225 A 
ATOM      7  C   UNL     1      -4.123   2.620  24.904  0.00  0.00    +0.061 A 
ATOM      8  C   UNL     1      -4.764   2.188  25.193  0.00  0.00    +0.045 A 
ATOM      9  C   UNL     1      -5.446   2.578  25.444  0.00  0.00    +0.024 A 
ATOM     10  C   UNL     1      -5.487   3.401  25.407  0.00  0.00    +0.102 A 
ATOM     11  N   UNL     1      -4.847   3.834  25.118  0.00  0.00    -0.210 NA
BRANCH   6   5
ATOM      5  O   UNL     1      -3.525   3.876  24.578  0.00  0.00    -0.457 OA
BRANCH   5   4
ATOM      4  C   UNL     1      -2.918   4.107  25.088  0.00  0.00    +0.239 C 
BRANCH   4   3
ATOM      3  C   UNL     1      -2.238   4.462  24.785  0.00  0.00    +0.189 C 
BRANCH   3   2
ATOM      1  C   UNL     1      -0.904   4.893  25.061  0.00  0.00    +0.174 C 
ATOM      2  O   UNL     1      -1.689   4.805  25.297  0.00  0.00    -0.347 OA
ENDBRANCH   3   2
ENDBRANCH   4   3
ENDBRANCH   5   4
ENDBRANCH   6   5
ENDBRANCH  12   8
BRANCH  15  17
ATOM     17  C   UNL     1      -4.141  -0.578  24.564  0.00  0.00    +0.138 C 
ATOM     18  C   UNL     1      -4.547  -1.046  24.019  0.00  0.00    +0.027 C 
ATOM     19  C   UNL     1      -4.044  -1.656  23.782  0.00  0.00    +0.019 C 
ATOM     20  C   UNL     1      -3.328  -1.565  24.182  0.00  0.00    +0.073 C 
ATOM     21  N   UNL     1      -3.388  -0.899  24.665  0.00  0.00    -0.263 NA
BRANCH  21  22
ATOM     22  C   UNL     1      -2.798  -0.606  25.161  0.00  0.00    +0.099 C 
BRANCH  22  23
ATOM     23  C   UNL     1      -2.004  -0.735  24.979  0.00  0.00    -0.006 A 
ATOM     24  C   UNL     1      -1.620  -1.408  25.263  0.00  0.00    -0.002 A 
ATOM     25  C   UNL     1      -0.826  -1.537  25.082  0.00  0.00    +0.011 A 
ATOM     26  C   UNL     1      -0.415  -0.994  24.617  0.00  0.00    +0.058 A 
ATOM     27 CL   UNL     1       0.379  -1.123  24.435  0.00  0.00    -0.082 Cl
ATOM     28  C   UNL     1      -0.799  -0.321  24.332  0.00  0.00    +0.011 A 
ATOM     29  C   UNL     1      -1.593  -0.192  24.514  0.00  0.00    -0.002 A 
ENDBRANCH  22  23
ENDBRANCH  21  22
ENDBRANCH  15  17
TORSDOF 8
ENDMDL
MODEL 6
REMARK VINA RESULT:      -9.8      2.586      4.356
REMARK  Name = 
REMARK  8 active torsions:
REMARK  status: ('A' for Active; 'I' for Inactive)
REMARK    1  A    between atoms: O_2  and  C_3
REMARK    2  A    between atoms: C_3  and  C_4
REMARK    3  A    between atoms: C_4  and  O_5
REMARK    4  A    between atoms: O_5  and  C_6
REMARK    5  A    between atoms: C_8  and  C_12
REMARK    6  A    between atoms: C_15  and  C_17
REMARK    7  A    between atoms: N_21  and  C_22
REMARK    8  A    between atoms: C_22  and  C_23
REMARK                            x       y       z     vdW  Elec       q    Type
REMARK                         _______ _______ _______ _____ _____    ______ ____
ROOT
ATOM     12  C   UNL     1      -0.401   1.516  24.945  0.00  0.00    +0.204 A 
ATOM     13  N   UNL     1      -0.185   1.674  25.726  0.00  0.00    -0.056 NA
ATOM     14  O   UNL     1      -0.460   2.427  25.919  0.00  0.00    -0.336 OA
ATOM     15  C   UNL     1      -0.846   2.735  25.258  0.00  0.00    +0.251 A 
ATOM     16  N   UNL     1      -0.809   2.171  24.656  0.00  0.00    -0.190 NA
ENDROOT
BRANCH  12   8
ATOM      6  C   UNL     1       0.493   0.137  23.509  0.00  0.00    +0.225 A 
ATOM      7  C   UNL     1       0.329   0.829  23.926  0.00  0.00    +0.061 A 
ATOM      8  C   UNL     1      -0.237   0.823  24.527  0.00  0.00    +0.045 A 
ATOM      9  C   UNL     1      -0.638   0.127  24.710  0.00  0.00    +0.024 A 
ATOM     10  C   UNL     1      -0.474  -0.565  24.292  0.00  0.00    +0.102 A 
ATOM     11  N   UNL     1       0.091  -0.561  23.692  0.00  0.00    -0.210 NA
BRANCH   6   5
ATOM      5  O   UNL     1       1.058   0.141  22.908  0.00  0.00    -0.457 OA
BRANCH   5   4
ATOM      4  C   UNL     1       1.861   0.114  23.096  0.00  0.00    +0.239 C 
BRANCH   4   3
ATOM      3  C   UNL     1       2.426   0.187  22.499  0.00  0.00    +0.189 C 
BRANCH   3   2
ATOM      1  C   UNL     1       3.789   0.615  22.438  0.00  0.00    +0.174 C 
ATOM      2  O   UNL     1       3.224   0.060  22.670  0.00  0.00    -0.347 OA
ENDBRANCH   3   2
ENDBRANCH   4   3
ENDBRANCH   5   4
ENDBRANCH   6   5
ENDBRANCH  12   8
BRANCH  15  17
ATOM     17  C   UNL     1      -1.205   3.475  25.207  0.00  0.00    +0.138 C 
ATOM     18  C   UNL     1      -0.820   4.193  25.071  0.00  0.00    +0.027 C 
ATOM     19  C   UNL     1      -1.390   4.790  25.063  0.00  0.00    +0.019 C 
ATOM     20  C   UNL     1      -2.126   4.442  25.193  0.00  0.00    +0.073 C 
ATOM     21  N   UNL     1      -2.012   3.629  25.282  0.00  0.00    -0.263 NA
BRANCH  21  22
ATOM     22  C   UNL     1      -2.602   3.070  25.422  0.00  0.00    +0.099 C 
BRANCH  22  23
ATOM     23  C   UNL     1      -3.394   3.297  25.422  0.00  0.00    -0.006 A 
ATOM     24  C   UNL     1      -3.738   3.591  26.112  0.00  0.00    -0.002 A 
ATOM     25  C   UNL     1      -4.531   3.818  26.113  0.00  0.00    +0.011 A 
ATOM     26  C   UNL     1      -4.981   3.751  25.425  0.00  0.00    +0.058 A 
ATOM     27 CL   UNL     1      -5.774   3.978  25.426  0.00  0.00    -0.082 Cl
ATOM     28  C   UNL     1      -4.637   3.457  24.735  0.00  0.00    +0.011 A 
ATOM     29  C   UNL     1      -3.844   3.229  24.734  0.00  0.00    -0.002 A 
ENDBRANCH  22  23
ENDBRANCH  21  22
ENDBRANCH  15  17
TORSDOF 8
ENDMDL
