MODEL 1
REMARK VINA RESULT:     -13.9      0.000      0.000
REMARK  Name = 
REMARK  4 active torsions:
REMARK  status: ('A' for Active; 'I' for Inactive)
REMARK    1  A    between atoms: S_2  and  C_3
REMARK    2  A    between atoms: C_6  and  C_9
REMARK    3  A    between atoms: N_15  and  C_16
REMARK    4  A    between atoms: C_16  and  C_17
REMARK                            x       y       z     vdW  Elec       q    Type
REMARK                         _______ _______ _______ _____ _____    ______ ____
ROOT
ATOM      9  C   UNL     1      -2.072   0.086  25.188  0.00  0.00    +0.012 A 
ATOM     10  C   UNL     1      -2.425   0.747  24.843  0.00  0.00    +0.041 A 
ATOM     11  C   UNL     1      -3.136   0.980  24.309  0.00  0.00    +0.054 C 
ATOM     12  C   UNL     1      -3.682   0.701  23.967  0.00  0.00    +0.011 C 
ATOM     13  C   UNL     1      -3.359   1.439  24.085  0.00  0.00    +0.039 C 
ATOM     14  C   UNL     1      -3.123   2.399  24.110  0.00  0.00    +0.074 C 
ATOM     15  N   UNL     1      -2.442   2.363  24.593  0.00  0.00    -0.269 NA
ATOM     24  C   UNL     1      -2.921   1.910  24.323  0.00  0.00    +0.078 C 
ATOM     25  C   UNL     1      -2.613   1.206  24.643  0.00  0.00    +0.110 C 
ATOM     26  N   UNL     1      -2.100   1.497  24.961  0.00  0.00    -0.299 N 
ATOM     27  C   UNL     1      -1.423   1.585  25.423  0.00  0.00    +0.261 A 
ATOM     28  O   UNL     1      -1.098   2.335  25.541  0.00  0.00    -0.267 OA
ATOM     29  C   UNL     1      -1.070   0.924  25.768  0.00  0.00    +0.061 A 
ATOM     30  C   UNL     1      -1.395   0.175  25.650  0.00  0.00    +0.006 A 
ENDROOT
BRANCH   9   6
ATOM      3  C   UNL     1      -3.046  -2.162  24.835  0.00  0.00    +0.025 A 
ATOM      4  C   UNL     1      -3.333  -1.678  25.438  0.00  0.00    +0.006 A 
ATOM      5  C   UNL     1      -3.009  -0.928  25.555  0.00  0.00    +0.001 A 
ATOM      6  C   UNL     1      -2.396  -0.663  25.070  0.00  0.00    +0.001 A 
ATOM      7  C   UNL     1      -2.109  -1.147  24.468  0.00  0.00    +0.001 A 
ATOM      8  C   UNL     1      -2.433  -1.897  24.350  0.00  0.00    +0.006 A 
BRANCH   3   2
ATOM      1  C   UNL     1      -3.952  -3.023  24.143  0.00  0.00    +0.074 C 
ATOM      2  S   UNL     1      -3.370  -2.910  24.718  0.00  0.00    -0.113 S 
ENDBRANCH   3   2
ENDBRANCH   9   6
BRANCH  15  16
ATOM     16  C   UNL     1      -1.784   2.626  25.016  0.00  0.00    +0.099 C 
BRANCH  16  17
ATOM     17  C   UNL     1      -1.607   3.431  25.045  0.00  0.00    -0.006 A 
ATOM     18  C   UNL     1      -2.062   3.937  25.511  0.00  0.00    -0.001 A 
ATOM     19  C   UNL     1      -1.885   4.743  25.539  0.00  0.00    +0.029 A 
ATOM     20  C   UNL     1      -1.252   5.041  25.102  0.00  0.00    +0.140 A 
ATOM     21  F   UNL     1      -1.075   5.847  25.131  0.00  0.00    -0.204 F 
ATOM     22  C   UNL     1      -0.797   4.536  24.637  0.00  0.00    +0.029 A 
ATOM     23  C   UNL     1      -0.974   3.730  24.608  0.00  0.00    -0.001 A 
ENDBRANCH  16  17
ENDBRANCH  15  16
TORSDOF 4
ENDMDL
MODEL 2
REMARK VINA RESULT:     -13.8      2.626      5.112
REMARK  Name = 
REMARK  4 active torsions:
REMARK  status: ('A' for Active; 'I' for Inactive)
REMARK    1  A    between atoms: S_2  and  C_3
REMARK    2  A    between atoms: C_6  and  C_9
REMARK    3  A    between atoms: N_15  and  C_16
REMARK    4  A    between atoms: C_16  and  C_17
REMARK                            x       y       z     vdW  Elec       q    Type
REMARK                         _______ _______ _______ _____ _____    ______ ____
ROOT
ATOM      9  C   UNL     1      -3.260   2.140  24.981  0.00  0.00    +0.012 A 
ATOM     10  C   UNL     1      -2.778   1.483  24.859  0.00  0.00    +0.041 A 
ATOM     11  C   UNL     1      -1.893   1.254  24.762  0.00  0.00    +0.054 C 
ATOM     12  C   UNL     1      -1.250   1.536  24.751  0.00  0.00    +0.011 C 
ATOM     13  C   UNL     1      -1.585   0.797  24.679  0.00  0.00    +0.039 C 
ATOM     14  C   UNL     1      -1.796  -0.162  24.570  0.00  0.00    +0.074 C 
ATOM     15  N   UNL     1      -2.629  -0.131  24.636  0.00  0.00    -0.269 NA
ATOM     24  C   UNL     1      -2.081   0.324  24.655  0.00  0.00    +0.078 C 
ATOM     25  C   UNL     1      -2.512   1.026  24.779  0.00  0.00    +0.110 C 
ATOM     26  N   UNL     1      -3.114   0.733  24.786  0.00  0.00    -0.299 N 
ATOM     27  C   UNL     1      -3.932   0.640  24.835  0.00  0.00    +0.261 A 
ATOM     28  O   UNL     1      -4.268  -0.110  24.762  0.00  0.00    -0.267 OA
ATOM     29  C   UNL     1      -4.414   1.298  24.957  0.00  0.00    +0.061 A 
ATOM     30  C   UNL     1      -4.078   2.048  25.030  0.00  0.00    +0.006 A 
ENDROOT
BRANCH   9   6
ATOM      3  C   UNL     1      -2.251   4.391  25.200  0.00  0.00    +0.025 A 
ATOM      4  C   UNL     1      -2.369   3.924  25.870  0.00  0.00    +0.006 A 
ATOM      5  C   UNL     1      -2.705   3.174  25.797  0.00  0.00    +0.001 A 
ATOM      6  C   UNL     1      -2.923   2.891  25.054  0.00  0.00    +0.001 A 
ATOM      7  C   UNL     1      -2.806   3.357  24.384  0.00  0.00    +0.001 A 
ATOM      8  C   UNL     1      -2.469   4.107  24.457  0.00  0.00    +0.006 A 
BRANCH   3   2
ATOM      1  C   UNL     1      -1.148   5.277  25.002  0.00  0.00    +0.074 C 
ATOM      2  S   UNL     1      -1.915   5.140  25.273  0.00  0.00    -0.113 S 
ENDBRANCH   3   2
ENDBRANCH   9   6
BRANCH  15  16
ATOM     16  C   UNL     1      -3.409  -0.397  24.660  0.00  0.00    +0.099 C 
BRANCH  16  17
ATOM     17  C   UNL     1      -3.575  -1.197  24.554  0.00  0.00    -0.006 A 
ATOM     18  C   UNL     1      -3.384  -1.740  25.144  0.00  0.00    -0.001 A 
ATOM     19  C   UNL     1      -3.550  -2.542  25.039  0.00  0.00    +0.029 A 
ATOM     20  C   UNL     1      -3.908  -2.800  24.342  0.00  0.00    +0.140 A 
ATOM     21  F   UNL     1      -4.074  -3.601  24.236  0.00  0.00    -0.204 F 
ATOM     22  C   UNL     1      -4.100  -2.258  23.751  0.00  0.00    +0.029 A 
ATOM     23  C   UNL     1      -3.934  -1.456  23.857  0.00  0.00    -0.001 A 
ENDBRANCH  16  17
ENDBRANCH  15  16
TORSDOF 4
ENDMDL
