MODEL 1
REMARK VINA RESULT:     -10.9      0.000      0.000
REMARK  Name = 
REMARK  7 active torsions:
REMARK  status: ('A' for Active; 'I' for Inactive)
REMARK    1  A    between atoms: C_2  and  N_4
REMARK    2  A    between atoms: C_11  and  C_13
REMARK    3  A    between atoms: N_15  and  C_16
REMARK    4  A    between atoms: C_16  and  C_17
REMARK    5  A    between atoms: C_16  and  C_27
REMARK    6  A    between atoms: C_17  and  C_18
REMARK    7  A    between atoms: C_30  and  C_32
REMARK                            x       y       z     vdW  Elec       q    Type
REMARK                         _______ _______ _______ _____ _____    ______ ____
ROOT
ATOM      4  N   UNL     1       0.981  -0.377  22.796  0.00  0.00    -0.190 NA
ATOM      5  C   UNL     1       0.715   0.207  23.315  0.00  0.00    +0.323 C 
ATOM      6  O   UNL     1       1.146   0.904  23.409  0.00  0.00    -0.251 OA
ATOM      7  N   UNL     1       0.017   0.093  23.740  0.00  0.00    -0.259 N 
ATOM      8  C   UNL     1      -0.415  -0.603  23.646  0.00  0.00    +0.117 C 
ATOM      9  C   UNL     1      -1.113  -0.716  24.072  0.00  0.00    +0.115 C 
ATOM     10  N   UNL     1      -1.379  -0.133  24.590  0.00  0.00    -0.270 N 
ATOM     11  C   UNL     1      -0.948   0.564  24.684  0.00  0.00    +0.174 C 
ATOM     12  C   UNL     1      -0.250   0.677  24.259  0.00  0.00    +0.124 C 
ATOM     30  C   UNL     1      -2.077  -0.246  25.015  0.00  0.00    +0.226 C 
ATOM     31  O   UNL     1      -2.344   0.338  25.534  0.00  0.00    -0.275 OA
ENDROOT
BRANCH  30  32
ATOM     32  C   UNL     1      -2.509  -0.943  24.922  0.00  0.00    +0.077 C 
ATOM     33  C   UNL     1      -3.144  -0.967  24.395  0.00  0.00    +0.009 C 
ATOM     34  C   UNL     1      -3.576  -1.664  24.301  0.00  0.00    +0.000 C 
ATOM     35  C   UNL     1      -3.372  -2.336  24.734  0.00  0.00    +0.000 C 
ATOM     36  C   UNL     1      -2.738  -2.313  25.260  0.00  0.00    +0.000 C 
ATOM     37  C   UNL     1      -2.306  -1.616  25.354  0.00  0.00    +0.009 C 
ENDBRANCH  30  32
BRANCH   4   2
ATOM      1  C   UNL     1       1.665  -0.268  21.546  0.00  0.00    +0.023 C 
ATOM      2  C   UNL     1       1.679  -0.263  22.372  0.00  0.00    +0.097 C 
ATOM      3  C   UNL     1       2.391  -0.145  22.771  0.00  0.00    +0.023 C 
ENDBRANCH   4   2
BRANCH  11  13
ATOM     13  C   UNL     1      -1.214   1.147  25.203  0.00  0.00    +0.262 C 
ATOM     14  O   UNL     1      -1.306   0.975  26.005  0.00  0.00    -0.271 OA
ATOM     15  N   UNL     1      -1.389   1.903  24.921  0.00  0.00    -0.196 NA
BRANCH  15  16
ATOM     16  C   UNL     1      -1.655   2.486  25.439  0.00  0.00    +0.179 C 
BRANCH  16  27
ATOM     27  C   UNL     1      -1.116   3.004  25.789  0.00  0.00    +0.281 C 
ATOM     28  N   UNL     1      -0.585   3.424  25.317  0.00  0.00    -0.086 NA
ATOM     29  O   UNL     1      -1.107   3.101  26.607  0.00  0.00    -0.270 OA
ENDBRANCH  16  27
BRANCH  16  17
ATOM     17  C   UNL     1      -2.460   2.551  25.609  0.00  0.00    +0.059 C 
BRANCH  17  18
ATOM     18  C   UNL     1      -2.944   3.024  25.138  0.00  0.00    +0.001 A 
ATOM     19  C   UNL     1      -2.705   3.454  24.475  0.00  0.00    +0.095 A 
ATOM     20  N   UNL     1      -3.366   3.845  24.174  0.00  0.00    -0.244 NA
ATOM     21  C   UNL     1      -4.012   3.658  24.650  0.00  0.00    +0.081 A 
ATOM     22  C   UNL     1      -3.752   3.150  25.246  0.00  0.00    +0.015 A 
ATOM     23  C   UNL     1      -4.285   2.869  25.809  0.00  0.00    +0.001 A 
ATOM     24  C   UNL     1      -5.077   3.095  25.778  0.00  0.00    +0.000 A 
ATOM     25  C   UNL     1      -5.337   3.602  25.182  0.00  0.00    +0.002 A 
ATOM     26  C   UNL     1      -4.806   3.884  24.618  0.00  0.00    +0.019 A 
ENDBRANCH  17  18
ENDBRANCH  16  17
ENDBRANCH  15  16
ENDBRANCH  11  13
TORSDOF 7
ENDMDL
MODEL 2
REMARK VINA RESULT:     -10.7      1.470      4.167
REMARK  Name = 
REMARK  7 active torsions:
REMARK  status: ('A' for Active; 'I' for Inactive)
REMARK    1  A    between atoms: C_2  and  N_4
REMARK    2  A    between atoms: C_11  and  C_13
REMARK    3  A    between atoms: N_15  and  C_16
REMARK    4  A    between atoms: C_16  and  C_17
REMARK    5  A    between atoms: C_16  and  C_27
REMARK    6  A    between atoms: C_17  and  C_18
REMARK    7  A    between atoms: C_30  and  C_32
REMARK                            x       y       z     vdW  Elec       q    Type
REMARK                         _______ _______ _______ _____ _____    ______ ____
ROOT
ATOM      4  N   UNL     1       0.801   0.691  23.260  0.00  0.00    -0.190 NA
ATOM      5  C   UNL     1       0.064   0.477  23.565  0.00  0.00    +0.323 C 
ATOM      6  O   UNL     1      -0.190  -0.306  23.519  0.00  0.00    -0.251 OA
ATOM      7  N   UNL     1      -0.418   1.048  23.915  0.00  0.00    -0.259 N 
ATOM      8  C   UNL     1      -0.164   1.831  23.960  0.00  0.00    +0.117 C 
ATOM      9  C   UNL     1      -0.647   2.402  24.310  0.00  0.00    +0.115 C 
ATOM     10  N   UNL     1      -1.383   2.189  24.615  0.00  0.00    -0.270 N 
ATOM     11  C   UNL     1      -1.638   1.405  24.570  0.00  0.00    +0.174 C 
ATOM     12  C   UNL     1      -1.155   0.834  24.220  0.00  0.00    +0.124 C 
ATOM     30  C   UNL     1      -1.866   2.759  24.965  0.00  0.00    +0.226 C 
ATOM     31  O   UNL     1      -2.602   2.545  25.270  0.00  0.00    -0.275 OA
ENDROOT
BRANCH  30  32
ATOM     32  C   UNL     1      -1.612   3.542  25.011  0.00  0.00    +0.077 C 
ATOM     33  C   UNL     1      -2.004   4.129  24.582  0.00  0.00    +0.009 C 
ATOM     34  C   UNL     1      -1.750   4.912  24.628  0.00  0.00    +0.000 C 
ATOM     35  C   UNL     1      -1.104   5.109  25.102  0.00  0.00    +0.000 C 
ATOM     36  C   UNL     1      -0.712   4.524  25.530  0.00  0.00    +0.000 C 
ATOM     37  C   UNL     1      -0.966   3.740  25.484  0.00  0.00    +0.009 C 
ENDBRANCH  30  32
BRANCH   4   2
ATOM      1  C   UNL     1       1.045  -0.247  22.210  0.00  0.00    +0.023 C 
ATOM      2  C   UNL     1       1.283   0.120  22.910  0.00  0.00    +0.097 C 
ATOM      3  C   UNL     1       2.002  -0.083  23.259  0.00  0.00    +0.023 C 
ENDBRANCH   4   2
BRANCH  11  13
ATOM     13  C   UNL     1      -2.373   1.192  24.875  0.00  0.00    +0.262 C 
ATOM     14  O   UNL     1      -2.540   1.313  25.673  0.00  0.00    -0.271 OA
ATOM     15  N   UNL     1      -2.944   0.857  24.381  0.00  0.00    -0.196 NA
BRANCH  15  16
ATOM     16  C   UNL     1      -3.680   0.644  24.686  0.00  0.00    +0.179 C 
BRANCH  16  27
ATOM     27  C   UNL     1      -4.317   1.165  24.624  0.00  0.00    +0.281 C 
ATOM     28  N   UNL     1      -4.812   1.288  25.273  0.00  0.00    -0.086 NA
ATOM     29  O   UNL     1      -4.460   1.561  23.915  0.00  0.00    -0.270 OA
ENDBRANCH  16  27
BRANCH  16  17
ATOM     17  C   UNL     1      -3.779  -0.088  25.052  0.00  0.00    +0.059 C 
BRANCH  17  18
ATOM     18  C   UNL     1      -3.898  -0.765  24.596  0.00  0.00    +0.001 A 
ATOM     19  C   UNL     1      -4.231  -0.789  23.841  0.00  0.00    +0.095 A 
ATOM     20  N   UNL     1      -4.244  -1.576  23.594  0.00  0.00    -0.244 NA
ATOM     21  C   UNL     1      -3.920  -2.037  24.195  0.00  0.00    +0.081 A 
ATOM     22  C   UNL     1      -3.706  -1.536  24.814  0.00  0.00    +0.015 A 
ATOM     23  C   UNL     1      -3.364  -1.849  25.497  0.00  0.00    +0.001 A 
ATOM     24  C   UNL     1      -3.235  -2.660  25.561  0.00  0.00    +0.000 A 
ATOM     25  C   UNL     1      -3.449  -3.161  24.941  0.00  0.00    +0.002 A 
ATOM     26  C   UNL     1      -3.791  -2.851  24.258  0.00  0.00    +0.019 A 
ENDBRANCH  17  18
ENDBRANCH  16  17
ENDBRANCH  15  16
ENDBRANCH  11  13
TORSDOF 7
ENDMDL
MODEL 3
REMARK VINA RESULT:     -10.0      1.845      4.243
REMARK  Name = 
REMARK  7 active torsions:
REMARK  status: ('A' for Active; 'I' for Inactive)
REMARK    1  A    between atoms: C_2  and  N_4
REMARK    2  A    between atoms: C_11  and  C_13
REMARK    3  A    between atoms: N_15  and  C_16
REMARK    4  A    between atoms: C_16  and  C_17
REMARK    5  A    between atoms: C_16  and  C_27
REMARK    6  A    between atoms: C_17  and  C_18
REMARK    7  A    between atoms: C_30  and  C_32
REMARK                            x       y       z     vdW  Elec       q    Type
REMARK                         _______ _______ _______ _____ _____    ______ ____
ROOT
ATOM      4  N   UNL     1      -5.586   1.616  25.535  0.00  0.00    -0.190 NA
ATOM      5  C   UNL     1      -4.789   1.703  25.341  0.00  0.00    +0.323 C 
ATOM      6  O   UNL     1      -4.427   2.441  25.402  0.00  0.00    -0.251 OA
ATOM      7  N   UNL     1      -4.354   1.050  25.085  0.00  0.00    -0.259 N 
ATOM      8  C   UNL     1      -4.716   0.311  25.024  0.00  0.00    +0.117 C 
ATOM      9  C   UNL     1      -4.281  -0.342  24.768  0.00  0.00    +0.115 C 
ATOM     10  N   UNL     1      -3.484  -0.256  24.573  0.00  0.00    -0.270 N 
ATOM     11  C   UNL     1      -3.121   0.483  24.635  0.00  0.00    +0.174 C 
ATOM     12  C   UNL     1      -3.557   1.136  24.890  0.00  0.00    +0.124 C 
ATOM     30  C   UNL     1      -3.049  -0.908  24.318  0.00  0.00    +0.226 C 
ATOM     31  O   UNL     1      -2.251  -0.822  24.123  0.00  0.00    -0.275 OA
ENDROOT
BRANCH  30  32
ATOM     32  C   UNL     1      -3.411  -1.647  24.256  0.00  0.00    +0.077 C 
ATOM     33  C   UNL     1      -3.248  -2.234  24.814  0.00  0.00    +0.009 C 
ATOM     34  C   UNL     1      -3.610  -2.972  24.752  0.00  0.00    +0.000 C 
ATOM     35  C   UNL     1      -4.135  -3.124  24.134  0.00  0.00    +0.000 C 
ATOM     36  C   UNL     1      -4.297  -2.538  23.577  0.00  0.00    +0.000 C 
ATOM     37  C   UNL     1      -3.935  -1.800  23.638  0.00  0.00    +0.009 C 
ENDBRANCH  30  32
BRANCH   4   2
ATOM      1  C   UNL     1      -6.176   2.891  25.270  0.00  0.00    +0.023 C 
ATOM      2  C   UNL     1      -6.021   2.269  25.791  0.00  0.00    +0.097 C 
ATOM      3  C   UNL     1      -6.300   2.301  26.566  0.00  0.00    +0.023 C 
ENDBRANCH   4   2
BRANCH  11  13
ATOM     13  C   UNL     1      -2.325   0.569  24.440  0.00  0.00    +0.262 C 
ATOM     14  O   UNL     1      -2.067   0.403  23.674  0.00  0.00    -0.271 OA
ATOM     15  N   UNL     1      -1.785   0.821  25.011  0.00  0.00    -0.196 NA
BRANCH  15  16
ATOM     16  C   UNL     1      -0.988   0.907  24.817  0.00  0.00    +0.179 C 
BRANCH  16  27
ATOM     27  C   UNL     1      -0.470   0.273  24.916  0.00  0.00    +0.281 C 
ATOM     28  N   UNL     1       0.048   0.065  24.307  0.00  0.00    -0.086 NA
ATOM     29  O   UNL     1      -0.467  -0.152  25.622  0.00  0.00    -0.270 OA
ENDBRANCH  16  27
BRANCH  16  17
ATOM     17  C   UNL     1      -0.710   1.626  24.523  0.00  0.00    +0.059 C 
BRANCH  17  18
ATOM     18  C   UNL     1      -0.604   2.267  25.031  0.00  0.00    +0.001 A 
ATOM     19  C   UNL     1      -0.416   2.223  25.834  0.00  0.00    +0.095 A 
ATOM     20  N   UNL     1      -0.363   2.993  26.126  0.00  0.00    -0.244 NA
ATOM     21  C   UNL     1      -0.518   3.512  25.504  0.00  0.00    +0.081 A 
ATOM     22  C   UNL     1      -0.667   3.063  24.828  0.00  0.00    +0.015 A 
ATOM     23  C   UNL     1      -0.840   3.439  24.114  0.00  0.00    +0.001 A 
ATOM     24  C   UNL     1      -0.865   4.262  24.076  0.00  0.00    +0.000 A 
ATOM     25  C   UNL     1      -0.716   4.711  24.752  0.00  0.00    +0.002 A 
ATOM     26  C   UNL     1      -0.543   4.336  25.466  0.00  0.00    +0.019 A 
ENDBRANCH  17  18
ENDBRANCH  16  17
ENDBRANCH  15  16
ENDBRANCH  11  13
TORSDOF 7
ENDMDL
MODEL 4
REMARK VINA RESULT:      -9.9      1.202      2.037
REMARK  Name = 
REMARK  7 active torsions:
REMARK  status: ('A' for Active; 'I' for Inactive)
REMARK    1  A    between atoms: C_2  and  N_4
REMARK    2  A    between atoms: C_11  and  C_13
REMARK    3  A    between atoms: N_15  and  C_16
REMARK    4  A    between atoms: C_16  and  C_17
REMARK    5  A    between atoms: C_16  and  C_27
REMARK    6  A    between atoms: C_17  and  C_18
REMARK    7  A    between atoms: C_30  and  C_32
REMARK                            x       y       z     vdW  Elec       q    Type
REMARK                         _______ _______ _______ _____ _____    ______ ____
ROOT
ATOM      4  N   UNL     1       0.275  -0.179  23.406  0.00  0.00    -0.190 NA
ATOM      5  C   UNL     1      -0.270   0.346  23.734  0.00  0.00    +0.323 C 
ATOM      6  O   UNL     1      -0.086   1.148  23.795  0.00  0.00    -0.251 OA
ATOM      7  N   UNL     1      -1.000   0.069  24.002  0.00  0.00    -0.259 N 
ATOM      8  C   UNL     1      -1.184  -0.733  23.941  0.00  0.00    +0.117 C 
ATOM      9  C   UNL     1      -1.914  -1.009  24.209  0.00  0.00    +0.115 C 
ATOM     10  N   UNL     1      -2.459  -0.484  24.537  0.00  0.00    -0.270 N 
ATOM     11  C   UNL     1      -2.275   0.318  24.598  0.00  0.00    +0.174 C 
ATOM     12  C   UNL     1      -1.545   0.595  24.330  0.00  0.00    +0.124 C 
ATOM     30  C   UNL     1      -3.189  -0.761  24.805  0.00  0.00    +0.226 C 
ATOM     31  O   UNL     1      -3.734  -0.235  25.133  0.00  0.00    -0.275 OA
ENDROOT
BRANCH  30  32
ATOM     32  C   UNL     1      -3.374  -1.562  24.744  0.00  0.00    +0.077 C 
ATOM     33  C   UNL     1      -3.790  -1.842  24.088  0.00  0.00    +0.009 C 
ATOM     34  C   UNL     1      -3.974  -2.643  24.028  0.00  0.00    +0.000 C 
ATOM     35  C   UNL     1      -3.743  -3.166  24.623  0.00  0.00    +0.000 C 
ATOM     36  C   UNL     1      -3.327  -2.887  25.278  0.00  0.00    +0.000 C 
ATOM     37  C   UNL     1      -3.143  -2.085  25.339  0.00  0.00    +0.009 C 
ENDBRANCH  30  32
BRANCH   4   2
ATOM      1  C   UNL     1       1.283  -0.125  22.394  0.00  0.00    +0.023 C 
ATOM      2  C   UNL     1       1.005   0.098  23.139  0.00  0.00    +0.097 C 
ATOM      3  C   UNL     1       1.456   0.598  23.615  0.00  0.00    +0.023 C 
ENDBRANCH   4   2
BRANCH  11  13
ATOM     13  C   UNL     1      -2.820   0.843  24.926  0.00  0.00    +0.262 C 
ATOM     14  O   UNL     1      -3.107   0.715  25.688  0.00  0.00    -0.271 OA
ATOM     15  N   UNL     1      -3.078   1.495  24.492  0.00  0.00    -0.196 NA
BRANCH  15  16
ATOM     16  C   UNL     1      -3.623   2.020  24.819  0.00  0.00    +0.179 C 
BRANCH  16  27
ATOM     27  C   UNL     1      -4.428   1.929  24.663  0.00  0.00    +0.281 C 
ATOM     28  N   UNL     1      -4.970   1.919  25.285  0.00  0.00    -0.086 NA
ATOM     29  O   UNL     1      -4.691   1.848  23.886  0.00  0.00    -0.270 OA
ENDBRANCH  16  27
BRANCH  16  17
ATOM     17  C   UNL     1      -3.364   2.636  25.304  0.00  0.00    +0.059 C 
BRANCH  17  18
ATOM     18  C   UNL     1      -3.157   3.362  24.973  0.00  0.00    +0.001 A 
ATOM     19  C   UNL     1      -3.576   3.766  24.388  0.00  0.00    +0.095 A 
ATOM     20  N   UNL     1      -3.173   4.466  24.223  0.00  0.00    -0.244 NA
ATOM     21  C   UNL     1      -2.505   4.495  24.705  0.00  0.00    +0.081 A 
ATOM     22  C   UNL     1      -2.495   3.813  25.169  0.00  0.00    +0.015 A 
ATOM     23  C   UNL     1      -1.883   3.691  25.710  0.00  0.00    +0.001 A 
ATOM     24  C   UNL     1      -1.283   4.250  25.786  0.00  0.00    +0.000 A 
ATOM     25  C   UNL     1      -1.292   4.932  25.323  0.00  0.00    +0.002 A 
ATOM     26  C   UNL     1      -1.903   5.055  24.782  0.00  0.00    +0.019 A 
ENDBRANCH  17  18
ENDBRANCH  16  17
ENDBRANCH  15  16
ENDBRANCH  11  13
TORSDOF 7
ENDMDL
MODEL 5
REMARK VINA RESULT:      -9.7      2.124      4.291
REMARK  Name = 
REMARK  7 active torsions:
REMARK  status: ('A' for Active; 'I' for Inactive)
REMARK    1  A    between atoms: C_2  and  N_4
REMARK    2  A    between atoms: C_11  and  C_13
REMARK    3  A    between atoms: N_15  and  C_16
REMARK    4  A    between atoms: C_16  and  C_17
REMARK    5  A    between atoms: C_16  and  C_27
REMARK    6  A    between atoms: C_17  and  C_18
REMARK    7  A    between atoms: C_30  and  C_32
REMARK                            x       y       z     vdW  Elec       q    Type
REMARK                         _______ _______ _______ _____ _____    ______ ____
ROOT
ATOM      4  N   UNL     1      -3.919  -1.959  24.761  0.00  0.00    -0.190 NA
ATOM      5  C   UNL     1      -3.519  -1.357  24.362  0.00  0.00    +0.323 C 
ATOM      6  O   UNL     1      -2.861  -1.536  23.897  0.00  0.00    -0.251 OA
ATOM      7  N   UNL     1      -3.777  -0.576  24.430  0.00  0.00    -0.259 N 
ATOM      8  C   UNL     1      -4.434  -0.397  24.895  0.00  0.00    +0.117 C 
ATOM      9  C   UNL     1      -4.691   0.384  24.962  0.00  0.00    +0.115 C 
ATOM     10  N   UNL     1      -4.292   0.985  24.565  0.00  0.00    -0.270 N 
ATOM     11  C   UNL     1      -3.634   0.807  24.099  0.00  0.00    +0.174 C 
ATOM     12  C   UNL     1      -3.377   0.026  24.032  0.00  0.00    +0.124 C 
ATOM     30  C   UNL     1      -4.549   1.767  24.632  0.00  0.00    +0.226 C 
ATOM     31  O   UNL     1      -4.149   2.369  24.234  0.00  0.00    -0.275 OA
ENDROOT
BRANCH  30  32
ATOM     32  C   UNL     1      -5.206   1.945  25.097  0.00  0.00    +0.077 C 
ATOM     33  C   UNL     1      -5.105   2.298  25.837  0.00  0.00    +0.009 C 
ATOM     34  C   UNL     1      -5.762   2.476  26.302  0.00  0.00    +0.000 C 
ATOM     35  C   UNL     1      -6.521   2.303  26.028  0.00  0.00    +0.000 C 
ATOM     36  C   UNL     1      -6.623   1.951  25.289  0.00  0.00    +0.000 C 
ATOM     37  C   UNL     1      -5.965   1.772  24.824  0.00  0.00    +0.009 C 
ENDBRANCH  30  32
BRANCH   4   2
ATOM      1  C   UNL     1      -3.890  -3.195  24.044  0.00  0.00    +0.023 C 
ATOM      2  C   UNL     1      -3.661  -2.740  24.693  0.00  0.00    +0.097 C 
ATOM      3  C   UNL     1      -3.173  -3.065  25.273  0.00  0.00    +0.023 C 
ENDBRANCH   4   2
BRANCH  11  13
ATOM     13  C   UNL     1      -3.235   1.409  23.701  0.00  0.00    +0.262 C 
ATOM     14  O   UNL     1      -3.659   2.023  23.349  0.00  0.00    -0.271 OA
ATOM     15  N   UNL     1      -2.411   1.398  23.655  0.00  0.00    -0.196 NA
BRANCH  15  16
ATOM     16  C   UNL     1      -2.012   2.000  23.258  0.00  0.00    +0.179 C 
BRANCH  16  27
ATOM     27  C   UNL     1      -2.034   2.034  22.433  0.00  0.00    +0.281 C 
ATOM     28  N   UNL     1      -2.256   2.734  22.056  0.00  0.00    -0.086 NA
ATOM     29  O   UNL     1      -1.834   1.371  21.987  0.00  0.00    -0.270 OA
ENDBRANCH  16  27
BRANCH  16  17
ATOM     17  C   UNL     1      -1.590   2.567  23.683  0.00  0.00    +0.059 C 
BRANCH  17  18
ATOM     18  C   UNL     1      -0.929   2.347  24.123  0.00  0.00    +0.001 A 
ATOM     19  C   UNL     1      -0.340   1.821  23.883  0.00  0.00    +0.095 A 
ATOM     20  N   UNL     1       0.213   1.762  24.493  0.00  0.00    -0.244 NA
ATOM     21  C   UNL     1      -0.035   2.250  25.109  0.00  0.00    +0.081 A 
ATOM     22  C   UNL     1      -0.741   2.612  24.881  0.00  0.00    +0.015 A 
ATOM     23  C   UNL     1      -1.120   3.136  25.393  0.00  0.00    +0.001 A 
ATOM     24  C   UNL     1      -0.794   3.298  26.133  0.00  0.00    +0.000 A 
ATOM     25  C   UNL     1      -0.089   2.937  26.361  0.00  0.00    +0.002 A 
ATOM     26  C   UNL     1       0.292   2.413  25.850  0.00  0.00    +0.019 A 
ENDBRANCH  17  18
ENDBRANCH  16  17
ENDBRANCH  15  16
ENDBRANCH  11  13
TORSDOF 7
ENDMDL
MODEL 6
REMARK VINA RESULT:      -9.6      1.707      5.468
REMARK  Name = 
REMARK  7 active torsions:
REMARK  status: ('A' for Active; 'I' for Inactive)
REMARK    1  A    between atoms: C_2  and  N_4
REMARK    2  A    between atoms: C_11  and  C_13
REMARK    3  A    between atoms: N_15  and  C_16
REMARK    4  A    between atoms: C_16  and  C_17
REMARK    5  A    between atoms: C_16  and  C_27
REMARK    6  A    between atoms: C_17  and  C_18
REMARK    7  A    between atoms: C_30  and  C_32
REMARK                            x       y       z     vdW  Elec       q    Type
REMARK                         _______ _______ _______ _____ _____    ______ ____
ROOT
ATOM      4  N   UNL     1      -5.264   2.459  25.448  0.00  0.00    -0.190 NA
ATOM      5  C   UNL     1      -4.748   1.852  25.231  0.00  0.00    +0.323 C 
ATOM      6  O   UNL     1      -5.028   1.079  25.158  0.00  0.00    -0.251 OA
ATOM      7  N   UNL     1      -3.953   2.018  25.087  0.00  0.00    -0.259 N 
ATOM      8  C   UNL     1      -3.673   2.791  25.159  0.00  0.00    +0.117 C 
ATOM      9  C   UNL     1      -2.878   2.956  25.015  0.00  0.00    +0.115 C 
ATOM     10  N   UNL     1      -2.363   2.350  24.798  0.00  0.00    -0.270 N 
ATOM     11  C   UNL     1      -2.643   1.577  24.725  0.00  0.00    +0.174 C 
ATOM     12  C   UNL     1      -3.438   1.411  24.869  0.00  0.00    +0.124 C 
ATOM     30  C   UNL     1      -1.568   2.516  24.653  0.00  0.00    +0.226 C 
ATOM     31  O   UNL     1      -1.052   1.909  24.436  0.00  0.00    -0.275 OA
ENDROOT
BRANCH  30  32
ATOM     32  C   UNL     1      -1.288   3.288  24.726  0.00  0.00    +0.077 C 
ATOM     33  C   UNL     1      -1.118   3.597  25.472  0.00  0.00    +0.009 C 
ATOM     34  C   UNL     1      -0.838   4.370  25.545  0.00  0.00    +0.000 C 
ATOM     35  C   UNL     1      -0.728   4.833  24.872  0.00  0.00    +0.000 C 
ATOM     36  C   UNL     1      -0.897   4.525  24.126  0.00  0.00    +0.000 C 
ATOM     37  C   UNL     1      -1.177   3.753  24.053  0.00  0.00    +0.009 C 
ENDBRANCH  30  32
BRANCH   4   2
ATOM      1  C   UNL     1      -6.574   2.163  24.961  0.00  0.00    +0.023 C 
ATOM      2  C   UNL     1      -6.059   2.292  25.592  0.00  0.00    +0.097 C 
ATOM      3  C   UNL     1      -6.339   2.255  26.367  0.00  0.00    +0.023 C 
ENDBRANCH   4   2
BRANCH  11  13
ATOM     13  C   UNL     1      -2.128   0.971  24.508  0.00  0.00    +0.262 C 
ATOM     14  O   UNL     1      -1.666   1.046  23.828  0.00  0.00    -0.271 OA
ATOM     15  N   UNL     1      -2.073   0.289  24.970  0.00  0.00    -0.196 NA
BRANCH  15  16
ATOM     16  C   UNL     1      -1.558  -0.317  24.753  0.00  0.00    +0.179 C 
BRANCH  16  27
ATOM     27  C   UNL     1      -0.789  -0.331  25.053  0.00  0.00    +0.281 C 
ATOM     28  N   UNL     1      -0.151  -0.443  24.542  0.00  0.00    -0.086 NA
ATOM     29  O   UNL     1      -0.660  -0.234  25.861  0.00  0.00    -0.270 OA
ENDBRANCH  16  27
BRANCH  16  17
ATOM     17  C   UNL     1      -1.811  -0.908  24.236  0.00  0.00    +0.059 C 
BRANCH  17  18
ATOM     18  C   UNL     1      -2.180  -1.584  24.531  0.00  0.00    +0.001 A 
ATOM     19  C   UNL     1      -1.894  -2.069  25.135  0.00  0.00    +0.095 A 
ATOM     20  N   UNL     1      -2.437  -2.678  25.252  0.00  0.00    -0.244 NA
ATOM     21  C   UNL     1      -3.058  -2.571  24.720  0.00  0.00    +0.081 A 
ATOM     22  C   UNL     1      -2.899  -1.895  24.275  0.00  0.00    +0.015 A 
ATOM     23  C   UNL     1      -3.431  -1.650  23.694  0.00  0.00    +0.001 A 
ATOM     24  C   UNL     1      -4.121  -2.080  23.558  0.00  0.00    +0.000 A 
ATOM     25  C   UNL     1      -4.280  -2.757  24.003  0.00  0.00    +0.002 A 
ATOM     26  C   UNL     1      -3.749  -3.002  24.584  0.00  0.00    +0.019 A 
ENDBRANCH  17  18
ENDBRANCH  16  17
ENDBRANCH  15  16
ENDBRANCH  11  13
TORSDOF 7
ENDMDL
MODEL 7
REMARK VINA RESULT:      -9.5      1.365      3.273
REMARK  Name = 
REMARK  7 active torsions:
REMARK  status: ('A' for Active; 'I' for Inactive)
REMARK    1  A    between atoms: C_2  and  N_4
REMARK    2  A    between atoms: C_11  and  C_13
REMARK    3  A    between atoms: N_15  and  C_16
REMARK    4  A    between atoms: C_16  and  C_17
REMARK    5  A    between atoms: C_16  and  C_27
REMARK    6  A    between atoms: C_17  and  C_18
REMARK    7  A    between atoms: C_30  and  C_32
REMARK                            x       y       z     vdW  Elec       q    Type
REMARK                         _______ _______ _______ _____ _____    ______ ____
ROOT
ATOM      4  N   UNL     1       1.366   0.470  22.833  0.00  0.00    -0.190 NA
ATOM      5  C   UNL     1       0.781   0.128  23.304  0.00  0.00    +0.323 C 
ATOM      6  O   UNL     1       0.686  -0.691  23.314  0.00  0.00    -0.251 OA
ATOM      7  N   UNL     1       0.290   0.606  23.764  0.00  0.00    -0.259 N 
ATOM      8  C   UNL     1       0.385   1.426  23.753  0.00  0.00    +0.117 C 
ATOM      9  C   UNL     1      -0.106   1.903  24.213  0.00  0.00    +0.115 C 
ATOM     10  N   UNL     1      -0.691   1.562  24.684  0.00  0.00    -0.270 N 
ATOM     11  C   UNL     1      -0.786   0.742  24.694  0.00  0.00    +0.174 C 
ATOM     12  C   UNL     1      -0.295   0.264  24.234  0.00  0.00    +0.124 C 
ATOM     30  C   UNL     1      -1.182   2.039  25.144  0.00  0.00    +0.226 C 
ATOM     31  O   UNL     1      -1.768   1.697  25.614  0.00  0.00    -0.275 OA
ENDROOT
BRANCH  30  32
ATOM     32  C   UNL     1      -1.088   2.859  25.133  0.00  0.00    +0.077 C 
ATOM     33  C   UNL     1      -1.550   3.321  24.630  0.00  0.00    +0.009 C 
ATOM     34  C   UNL     1      -1.456   4.140  24.619  0.00  0.00    +0.000 C 
ATOM     35  C   UNL     1      -0.899   4.498  25.112  0.00  0.00    +0.000 C 
ATOM     36  C   UNL     1      -0.437   4.036  25.615  0.00  0.00    +0.000 C 
ATOM     37  C   UNL     1      -0.531   3.217  25.626  0.00  0.00    +0.009 C 
ENDBRANCH  30  32
BRANCH   4   2
ATOM      1  C   UNL     1       1.555  -0.387  21.705  0.00  0.00    +0.023 C 
ATOM      2  C   UNL     1       1.857  -0.008  22.374  0.00  0.00    +0.097 C 
ATOM      3  C   UNL     1       2.649  -0.108  22.582  0.00  0.00    +0.023 C 
ENDBRANCH   4   2
BRANCH  11  13
ATOM     13  C   UNL     1      -1.371   0.400  25.165  0.00  0.00    +0.262 C 
ATOM     14  O   UNL     1      -1.312   0.435  25.987  0.00  0.00    -0.271 OA
ATOM     15  N   UNL     1      -2.016   0.024  24.814  0.00  0.00    -0.196 NA
BRANCH  15  16
ATOM     16  C   UNL     1      -2.601  -0.317  25.284  0.00  0.00    +0.179 C 
BRANCH  16  27
ATOM     27  C   UNL     1      -2.531  -1.104  25.522  0.00  0.00    +0.281 C 
ATOM     28  N   UNL     1      -2.311  -1.682  24.975  0.00  0.00    -0.086 NA
ATOM     29  O   UNL     1      -2.679  -1.313  26.306  0.00  0.00    -0.270 OA
ENDBRANCH  16  27
BRANCH  16  17
ATOM     17  C   UNL     1      -3.257   0.128  25.515  0.00  0.00    +0.059 C 
BRANCH  17  18
ATOM     18  C   UNL     1      -3.914   0.182  25.021  0.00  0.00    +0.001 A 
ATOM     19  C   UNL     1      -4.087  -0.318  24.387  0.00  0.00    +0.095 A 
ATOM     20  N   UNL     1      -4.795  -0.063  24.048  0.00  0.00    -0.244 NA
ATOM     21  C   UNL     1      -5.059   0.593  24.472  0.00  0.00    +0.081 A 
ATOM     22  C   UNL     1      -4.515   0.744  25.073  0.00  0.00    +0.015 A 
ATOM     23  C   UNL     1      -4.637   1.376  25.590  0.00  0.00    +0.001 A 
ATOM     24  C   UNL     1      -5.303   1.855  25.506  0.00  0.00    +0.000 A 
ATOM     25  C   UNL     1      -5.847   1.704  24.905  0.00  0.00    +0.002 A 
ATOM     26  C   UNL     1      -5.725   1.073  24.387  0.00  0.00    +0.019 A 
ENDBRANCH  17  18
ENDBRANCH  16  17
ENDBRANCH  15  16
ENDBRANCH  11  13
TORSDOF 7
ENDMDL
MODEL 8
REMARK VINA RESULT:      -8.9      0.907      3.253
REMARK  Name = 
REMARK  7 active torsions:
REMARK  status: ('A' for Active; 'I' for Inactive)
REMARK    1  A    between atoms: C_2  and  N_4
REMARK    2  A    between atoms: C_11  and  C_13
REMARK    3  A    between atoms: N_15  and  C_16
REMARK    4  A    between atoms: C_16  and  C_17
REMARK    5  A    between atoms: C_16  and  C_27
REMARK    6  A    between atoms: C_17  and  C_18
REMARK    7  A    between atoms: C_30  and  C_32
REMARK                            x       y       z     vdW  Elec       q    Type
REMARK                         _______ _______ _______ _____ _____    ______ ____
ROOT
ATOM      4  N   UNL     1      -2.388  -1.669  24.818  0.00  0.00    -0.190 NA
ATOM      5  C   UNL     1      -2.406  -0.845  24.861  0.00  0.00    +0.323 C 
ATOM      6  O   UNL     1      -3.049  -0.463  25.208  0.00  0.00    -0.251 OA
ATOM      7  N   UNL     1      -1.779  -0.404  24.556  0.00  0.00    -0.259 N 
ATOM      8  C   UNL     1      -1.135  -0.785  24.209  0.00  0.00    +0.117 C 
ATOM      9  C   UNL     1      -0.509  -0.343  23.905  0.00  0.00    +0.115 C 
ATOM     10  N   UNL     1      -0.526   0.480  23.947  0.00  0.00    -0.270 N 
ATOM     11  C   UNL     1      -1.170   0.863  24.294  0.00  0.00    +0.174 C 
ATOM     12  C   UNL     1      -1.796   0.420  24.599  0.00  0.00    +0.124 C 
ATOM     30  C   UNL     1       0.101   0.923  23.643  0.00  0.00    +0.226 C 
ATOM     31  O   UNL     1       0.084   1.747  23.685  0.00  0.00    -0.275 OA
ENDROOT
BRANCH  30  32
ATOM     32  C   UNL     1       0.745   0.541  23.296  0.00  0.00    +0.077 C 
ATOM     33  C   UNL     1       1.490   0.588  23.646  0.00  0.00    +0.009 C 
ATOM     34  C   UNL     1       2.134   0.206  23.299  0.00  0.00    +0.000 C 
ATOM     35  C   UNL     1       2.032  -0.223  22.602  0.00  0.00    +0.000 C 
ATOM     36  C   UNL     1       1.287  -0.270  22.252  0.00  0.00    +0.000 C 
ATOM     37  C   UNL     1       0.643   0.112  22.599  0.00  0.00    +0.009 C 
ENDBRANCH  30  32
BRANCH   4   2
ATOM      1  C   UNL     1      -3.533  -2.500  24.611  0.00  0.00    +0.023 C 
ATOM      2  C   UNL     1      -3.015  -2.111  25.123  0.00  0.00    +0.097 C 
ATOM      3  C   UNL     1      -3.125  -2.164  25.939  0.00  0.00    +0.023 C 
ENDBRANCH   4   2
BRANCH  11  13
ATOM     13  C   UNL     1      -1.187   1.686  24.337  0.00  0.00    +0.262 C 
ATOM     14  O   UNL     1      -1.003   2.137  23.671  0.00  0.00    -0.271 OA
ATOM     15  N   UNL     1      -1.387   2.059  25.045  0.00  0.00    -0.196 NA
BRANCH  15  16
ATOM     16  C   UNL     1      -1.404   2.882  25.087  0.00  0.00    +0.179 C 
BRANCH  16  27
ATOM     27  C   UNL     1      -0.765   3.291  25.413  0.00  0.00    +0.281 C 
ATOM     28  N   UNL     1      -0.479   3.971  25.042  0.00  0.00    -0.086 NA
ATOM     29  O   UNL     1      -0.414   3.022  26.109  0.00  0.00    -0.270 OA
ENDBRANCH  16  27
BRANCH  16  17
ATOM     17  C   UNL     1      -2.059   3.297  24.804  0.00  0.00    +0.059 C 
BRANCH  17  18
ATOM     18  C   UNL     1      -2.690   3.466  25.307  0.00  0.00    +0.001 A 
ATOM     19  C   UNL     1      -2.632   3.691  26.099  0.00  0.00    +0.095 A 
ATOM     20  N   UNL     1      -3.397   3.803  26.388  0.00  0.00    -0.244 NA
ATOM     21  C   UNL     1      -3.926   3.647  25.776  0.00  0.00    +0.081 A 
ATOM     22  C   UNL     1      -3.489   3.439  25.108  0.00  0.00    +0.015 A 
ATOM     23  C   UNL     1      -3.877   3.252  24.404  0.00  0.00    +0.001 A 
ATOM     24  C   UNL     1      -4.701   3.273  24.368  0.00  0.00    +0.000 A 
ATOM     25  C   UNL     1      -5.137   3.481  25.036  0.00  0.00    +0.002 A 
ATOM     26  C   UNL     1      -4.751   3.669  25.740  0.00  0.00    +0.019 A 
ENDBRANCH  17  18
ENDBRANCH  16  17
ENDBRANCH  15  16
ENDBRANCH  11  13
TORSDOF 7
ENDMDL
