MODEL 1
REMARK VINA RESULT:     -11.8      0.000      0.000
REMARK  Name = 
REMARK  4 active torsions:
REMARK  status: ('A' for Active; 'I' for Inactive)
REMARK    1  A    between atoms: C_5  and  C_8
REMARK    2  A    between atoms: C_11  and  C_13
REMARK    3  A    between atoms: N_16  and  C_18
REMARK    4  A    between atoms: C_21  and  C_24
REMARK                            x       y       z     vdW  Elec       q    Type
REMARK                         _______ _______ _______ _____ _____    ______ ____
ROOT
ATOM     13  C   UNL     1      -4.232   1.777  25.142  0.00  0.00    +0.100 C 
ATOM     14  C   UNL     1      -5.035   1.587  25.132  0.00  0.00    +0.032 C 
ATOM     15  C   UNL     1      -5.103   0.773  25.016  0.00  0.00    +0.093 C 
ATOM     16  N   UNL     1      -4.342   0.460  24.953  0.00  0.00    -0.293 N 
ATOM     17  C   UNL     1      -3.804   1.081  25.031  0.00  0.00    +0.101 C 
ENDROOT
BRANCH  16  18
ATOM     18  C   UNL     1      -4.152  -0.334  24.833  0.00  0.00    +0.132 A 
ATOM     19  C   UNL     1      -4.314  -0.692  24.108  0.00  0.00    +0.035 A 
ATOM     20  C   UNL     1      -4.124  -1.486  23.988  0.00  0.00    +0.015 A 
ATOM     21  C   UNL     1      -3.773  -1.922  24.594  0.00  0.00    +0.088 A 
ATOM     22  C   UNL     1      -3.612  -1.564  25.320  0.00  0.00    +0.111 A 
ATOM     23  N   UNL     1      -3.801  -0.770  25.439  0.00  0.00    -0.228 NA
BRANCH  21  24
ATOM     24  C   UNL     1      -3.584  -2.715  24.474  0.00  0.00    +0.102 C 
ATOM     25  N   UNL     1      -3.394  -3.510  24.355  0.00  0.00    -0.191 NA
ENDBRANCH  21  24
ENDBRANCH  16  18
BRANCH  13  11
ATOM      8  C   UNL     1      -3.064   3.560  25.248  0.00  0.00    +0.250 A 
ATOM      9  N   UNL     1      -3.784   3.824  25.553  0.00  0.00    -0.107 NA
ATOM     10  N   UNL     1      -4.310   3.187  25.550  0.00  0.00    -0.111 NA
ATOM     11  C   UNL     1      -3.914   2.531  25.244  0.00  0.00    +0.228 A 
ATOM     12  O   UNL     1      -3.144   2.762  25.057  0.00  0.00    -0.419 OA
BRANCH   8   5
ATOM      1  C   UNL     1      -0.340   5.383  24.863  0.00  0.00    +0.031 C 
ATOM      2  C   UNL     1      -1.022   4.927  24.959  0.00  0.00    -0.022 A 
ATOM      3  C   UNL     1      -0.980   4.105  24.896  0.00  0.00    -0.004 A 
ATOM      4  C   UNL     1      -1.661   3.650  24.992  0.00  0.00    +0.004 A 
ATOM      5  C   UNL     1      -2.384   4.016  25.152  0.00  0.00    +0.055 A 
ATOM      6  C   UNL     1      -2.424   4.837  25.215  0.00  0.00    +0.004 A 
ATOM      7  C   UNL     1      -1.743   5.293  25.119  0.00  0.00    -0.004 A 
ENDBRANCH   8   5
ENDBRANCH  13  11
TORSDOF 4
ENDMDL
MODEL 2
REMARK VINA RESULT:     -11.4      1.183      5.550
REMARK  Name = 
REMARK  4 active torsions:
REMARK  status: ('A' for Active; 'I' for Inactive)
REMARK    1  A    between atoms: C_5  and  C_8
REMARK    2  A    between atoms: C_11  and  C_13
REMARK    3  A    between atoms: N_16  and  C_18
REMARK    4  A    between atoms: C_21  and  C_24
REMARK                            x       y       z     vdW  Elec       q    Type
REMARK                         _______ _______ _______ _____ _____    ______ ____
ROOT
ATOM     13  C   UNL     1      -4.145   1.942  24.936  0.00  0.00    +0.100 C 
ATOM     14  C   UNL     1      -4.648   2.595  24.988  0.00  0.00    +0.032 C 
ATOM     15  C   UNL     1      -4.182   3.275  24.995  0.00  0.00    +0.093 C 
ATOM     16  N   UNL     1      -3.391   3.043  24.946  0.00  0.00    -0.293 N 
ATOM     17  C   UNL     1      -3.369   2.219  24.909  0.00  0.00    +0.101 C 
ENDROOT
BRANCH  16  18
ATOM     18  C   UNL     1      -2.737   3.547  24.935  0.00  0.00    +0.132 A 
ATOM     19  C   UNL     1      -2.757   4.257  25.355  0.00  0.00    +0.035 A 
ATOM     20  C   UNL     1      -2.103   4.761  25.344  0.00  0.00    +0.015 A 
ATOM     21  C   UNL     1      -1.431   4.554  24.914  0.00  0.00    +0.088 A 
ATOM     22  C   UNL     1      -1.412   3.844  24.494  0.00  0.00    +0.111 A 
ATOM     23  N   UNL     1      -2.064   3.340  24.505  0.00  0.00    -0.228 NA
BRANCH  21  24
ATOM     24  C   UNL     1      -0.778   5.057  24.903  0.00  0.00    +0.102 C 
ATOM     25  N   UNL     1      -0.124   5.561  24.893  0.00  0.00    -0.191 NA
ENDBRANCH  21  24
ENDBRANCH  16  18
BRANCH  13  11
ATOM      8  C   UNL     1      -4.346  -0.180  24.826  0.00  0.00    +0.250 A 
ATOM      9  N   UNL     1      -5.131   0.048  24.932  0.00  0.00    -0.107 NA
ATOM     10  N   UNL     1      -5.152   0.872  24.986  0.00  0.00    -0.111 NA
ATOM     11  C   UNL     1      -4.379   1.151  24.913  0.00  0.00    +0.228 A 
ATOM     12  O   UNL     1      -3.881   0.501  24.814  0.00  0.00    -0.419 OA
BRANCH   8   5
ATOM      1  C   UNL     1      -3.255  -3.278  24.503  0.00  0.00    +0.031 C 
ATOM      2  C   UNL     1      -3.528  -2.503  24.584  0.00  0.00    -0.022 A 
ATOM      3  C   UNL     1      -3.931  -2.141  23.961  0.00  0.00    -0.004 A 
ATOM      4  C   UNL     1      -4.203  -1.367  24.042  0.00  0.00    +0.004 A 
ATOM      5  C   UNL     1      -4.073  -0.954  24.745  0.00  0.00    +0.055 A 
ATOM      6  C   UNL     1      -3.670  -1.317  25.367  0.00  0.00    +0.004 A 
ATOM      7  C   UNL     1      -3.398  -2.091  25.286  0.00  0.00    -0.004 A 
ENDBRANCH   8   5
ENDBRANCH  13  11
TORSDOF 4
ENDMDL
MODEL 3
REMARK VINA RESULT:     -11.0      1.898      2.352
REMARK  Name = 
REMARK  4 active torsions:
REMARK  status: ('A' for Active; 'I' for Inactive)
REMARK    1  A    between atoms: C_5  and  C_8
REMARK    2  A    between atoms: C_11  and  C_13
REMARK    3  A    between atoms: N_16  and  C_18
REMARK    4  A    between atoms: C_21  and  C_24
REMARK                            x       y       z     vdW  Elec       q    Type
REMARK                         _______ _______ _______ _____ _____    ______ ____
ROOT
ATOM     13  C   UNL     1      -1.218   0.552  25.555  0.00  0.00    +0.100 C 
ATOM     14  C   UNL     1      -0.907  -0.089  25.972  0.00  0.00    +0.032 C 
ATOM     15  C   UNL     1      -1.350  -0.757  25.781  0.00  0.00    +0.093 C 
ATOM     16  N   UNL     1      -1.936  -0.531  25.246  0.00  0.00    -0.293 N 
ATOM     17  C   UNL     1      -1.855   0.279  25.106  0.00  0.00    +0.101 C 
ENDROOT
BRANCH  16  18
ATOM     18  C   UNL     1      -2.504  -1.026  24.909  0.00  0.00    +0.132 A 
ATOM     19  C   UNL     1      -3.285  -0.771  24.841  0.00  0.00    +0.035 A 
ATOM     20  C   UNL     1      -3.853  -1.266  24.505  0.00  0.00    +0.015 A 
ATOM     21  C   UNL     1      -3.639  -2.016  24.237  0.00  0.00    +0.088 A 
ATOM     22  C   UNL     1      -2.858  -2.271  24.305  0.00  0.00    +0.111 A 
ATOM     23  N   UNL     1      -2.290  -1.776  24.641  0.00  0.00    -0.228 NA
BRANCH  21  24
ATOM     24  C   UNL     1      -4.207  -2.511  23.900  0.00  0.00    +0.102 C 
ATOM     25  N   UNL     1      -4.775  -3.006  23.564  0.00  0.00    -0.191 NA
ENDBRANCH  21  24
ENDBRANCH  16  18
BRANCH  13  11
ATOM      8  C   UNL     1      -0.888   2.659  25.505  0.00  0.00    +0.250 A 
ATOM      9  N   UNL     1      -0.147   2.389  25.744  0.00  0.00    -0.107 NA
ATOM     10  N   UNL     1      -0.180   1.565  25.792  0.00  0.00    -0.111 NA
ATOM     11  C   UNL     1      -0.942   1.328  25.582  0.00  0.00    +0.228 A 
ATOM     12  O   UNL     1      -1.380   2.005  25.405  0.00  0.00    -0.419 OA
BRANCH   8   5
ATOM      1  C   UNL     1      -1.739   5.813  25.030  0.00  0.00    +0.031 C 
ATOM      2  C   UNL     1      -1.526   5.024  25.149  0.00  0.00    -0.022 A 
ATOM      3  C   UNL     1      -0.822   4.735  24.830  0.00  0.00    -0.004 A 
ATOM      4  C   UNL     1      -0.610   3.946  24.948  0.00  0.00    +0.004 A 
ATOM      5  C   UNL     1      -1.101   3.448  25.386  0.00  0.00    +0.055 A 
ATOM      6  C   UNL     1      -1.804   3.738  25.704  0.00  0.00    +0.004 A 
ATOM      7  C   UNL     1      -2.017   4.527  25.586  0.00  0.00    -0.004 A 
ENDBRANCH   8   5
ENDBRANCH  13  11
TORSDOF 4
ENDMDL
MODEL 4
REMARK VINA RESULT:     -11.0      1.978      6.015
REMARK  Name = 
REMARK  4 active torsions:
REMARK  status: ('A' for Active; 'I' for Inactive)
REMARK    1  A    between atoms: C_5  and  C_8
REMARK    2  A    between atoms: C_11  and  C_13
REMARK    3  A    between atoms: N_16  and  C_18
REMARK    4  A    between atoms: C_21  and  C_24
REMARK                            x       y       z     vdW  Elec       q    Type
REMARK                         _______ _______ _______ _____ _____    ______ ____
ROOT
ATOM     13  C   UNL     1      -1.257   0.767  25.304  0.00  0.00    +0.100 C 
ATOM     14  C   UNL     1      -0.439   0.862  25.253  0.00  0.00    +0.032 C 
ATOM     15  C   UNL     1      -0.277   1.669  25.200  0.00  0.00    +0.093 C 
ATOM     16  N   UNL     1      -0.996   2.074  25.219  0.00  0.00    -0.293 N 
ATOM     17  C   UNL     1      -1.602   1.516  25.283  0.00  0.00    +0.101 C 
ENDROOT
BRANCH  16  18
ATOM     18  C   UNL     1      -1.093   2.893  25.180  0.00  0.00    +0.132 A 
ATOM     19  C   UNL     1      -1.659   3.263  25.652  0.00  0.00    +0.035 A 
ATOM     20  C   UNL     1      -1.756   4.082  25.613  0.00  0.00    +0.015 A 
ATOM     21  C   UNL     1      -1.287   4.529  25.103  0.00  0.00    +0.088 A 
ATOM     22  C   UNL     1      -0.721   4.158  24.631  0.00  0.00    +0.111 A 
ATOM     23  N   UNL     1      -0.624   3.340  24.669  0.00  0.00    -0.228 NA
BRANCH  21  24
ATOM     24  C   UNL     1      -1.384   5.347  25.064  0.00  0.00    +0.102 C 
ATOM     25  N   UNL     1      -1.481   6.166  25.026  0.00  0.00    -0.191 NA
ENDBRANCH  21  24
ENDBRANCH  16  18
BRANCH  13  11
ATOM      8  C   UNL     1      -2.466  -0.979  25.099  0.00  0.00    +0.250 A 
ATOM      9  N   UNL     1      -2.091  -1.129  25.818  0.00  0.00    -0.107 NA
ATOM     10  N   UNL     1      -1.592  -0.493  25.983  0.00  0.00    -0.111 NA
ATOM     11  C   UNL     1      -1.659   0.050  25.365  0.00  0.00    +0.228 A 
ATOM     12  O   UNL     1      -2.199  -0.251  24.818  0.00  0.00    -0.419 OA
BRANCH   8   5
ATOM      1  C   UNL     1      -4.651  -2.951  23.604  0.00  0.00    +0.031 C 
ATOM      2  C   UNL     1      -4.104  -2.457  23.978  0.00  0.00    -0.022 A 
ATOM      3  C   UNL     1      -3.447  -2.783  24.357  0.00  0.00    -0.004 A 
ATOM      4  C   UNL     1      -2.901  -2.290  24.731  0.00  0.00    +0.004 A 
ATOM      5  C   UNL     1      -3.012  -1.472  24.725  0.00  0.00    +0.055 A 
ATOM      6  C   UNL     1      -3.668  -1.148  24.345  0.00  0.00    +0.004 A 
ATOM      7  C   UNL     1      -4.215  -1.641  23.972  0.00  0.00    -0.004 A 
ENDBRANCH   8   5
ENDBRANCH  13  11
TORSDOF 4
ENDMDL
MODEL 5
REMARK VINA RESULT:      -9.6      3.131      4.308
REMARK  Name = 
REMARK  4 active torsions:
REMARK  status: ('A' for Active; 'I' for Inactive)
REMARK    1  A    between atoms: C_5  and  C_8
REMARK    2  A    between atoms: C_11  and  C_13
REMARK    3  A    between atoms: N_16  and  C_18
REMARK    4  A    between atoms: C_21  and  C_24
REMARK                            x       y       z     vdW  Elec       q    Type
REMARK                         _______ _______ _______ _____ _____    ______ ____
ROOT
ATOM     13  C   UNL     1      -2.182   0.283  24.628  0.00  0.00    +0.100 C 
ATOM     14  C   UNL     1      -1.869  -0.252  25.173  0.00  0.00    +0.032 C 
ATOM     15  C   UNL     1      -1.081  -0.390  24.972  0.00  0.00    +0.093 C 
ATOM     16  N   UNL     1      -0.906   0.060  24.302  0.00  0.00    -0.293 N 
ATOM     17  C   UNL     1      -1.587   0.476  24.090  0.00  0.00    +0.101 C 
ENDROOT
BRANCH  16  18
ATOM     18  C   UNL     1      -0.179   0.089  23.913  0.00  0.00    +0.132 A 
ATOM     19  C   UNL     1       0.244   0.797  23.884  0.00  0.00    +0.035 A 
ATOM     20  C   UNL     1       0.972   0.826  23.495  0.00  0.00    +0.015 A 
ATOM     21  C   UNL     1       1.275   0.148  23.136  0.00  0.00    +0.088 A 
ATOM     22  C   UNL     1       0.850  -0.559  23.165  0.00  0.00    +0.111 A 
ATOM     23  N   UNL     1       0.124  -0.588  23.554  0.00  0.00    -0.228 NA
BRANCH  21  24
ATOM     24  C   UNL     1       2.001   0.178  22.747  0.00  0.00    +0.102 C 
ATOM     25  N   UNL     1       2.729   0.207  22.359  0.00  0.00    -0.191 NA
ENDBRANCH  21  24
ENDBRANCH  16  18
BRANCH  13  11
ATOM      8  C   UNL     1      -4.012   1.366  24.802  0.00  0.00    +0.250 A 
ATOM      9  N   UNL     1      -4.270   0.677  24.428  0.00  0.00    -0.107 NA
ATOM     10  N   UNL     1      -3.616   0.187  24.317  0.00  0.00    -0.111 NA
ATOM     11  C   UNL     1      -2.954   0.574  24.623  0.00  0.00    +0.228 A 
ATOM     12  O   UNL     1      -3.199   1.302  24.923  0.00  0.00    -0.419 OA
BRANCH   8   5
ATOM      1  C   UNL     1      -5.906   3.928  25.665  0.00  0.00    +0.031 C 
ATOM      2  C   UNL     1      -5.432   3.287  25.449  0.00  0.00    -0.022 A 
ATOM      3  C   UNL     1      -4.712   3.417  25.068  0.00  0.00    -0.004 A 
ATOM      4  C   UNL     1      -4.239   2.776  24.852  0.00  0.00    +0.004 A 
ATOM      5  C   UNL     1      -4.486   2.006  25.018  0.00  0.00    +0.055 A 
ATOM      6  C   UNL     1      -5.206   1.878  25.399  0.00  0.00    +0.004 A 
ATOM      7  C   UNL     1      -5.679   2.518  25.615  0.00  0.00    -0.004 A 
ENDBRANCH   8   5
ENDBRANCH  13  11
TORSDOF 4
ENDMDL
MODEL 6
REMARK VINA RESULT:      -8.8      2.818      4.586
REMARK  Name = 
REMARK  4 active torsions:
REMARK  status: ('A' for Active; 'I' for Inactive)
REMARK    1  A    between atoms: C_5  and  C_8
REMARK    2  A    between atoms: C_11  and  C_13
REMARK    3  A    between atoms: N_16  and  C_18
REMARK    4  A    between atoms: C_21  and  C_24
REMARK                            x       y       z     vdW  Elec       q    Type
REMARK                         _______ _______ _______ _____ _____    ______ ____
ROOT
ATOM     13  C   UNL     1      -2.912   0.401  24.670  0.00  0.00    +0.100 C 
ATOM     14  C   UNL     1      -3.603  -0.019  24.504  0.00  0.00    +0.032 C 
ATOM     15  C   UNL     1      -4.244   0.486  24.624  0.00  0.00    +0.093 C 
ATOM     16  N   UNL     1      -3.949   1.218  24.865  0.00  0.00    -0.293 N 
ATOM     17  C   UNL     1      -3.126   1.166  24.894  0.00  0.00    +0.101 C 
ENDROOT
BRANCH  16  18
ATOM     18  C   UNL     1      -4.399   1.886  25.046  0.00  0.00    +0.132 A 
ATOM     19  C   UNL     1      -5.151   1.800  25.374  0.00  0.00    +0.035 A 
ATOM     20  C   UNL     1      -5.601   2.468  25.555  0.00  0.00    +0.015 A 
ATOM     21  C   UNL     1      -5.298   3.222  25.408  0.00  0.00    +0.088 A 
ATOM     22  C   UNL     1      -4.546   3.307  25.080  0.00  0.00    +0.111 A 
ATOM     23  N   UNL     1      -4.096   2.640  24.899  0.00  0.00    -0.228 NA
BRANCH  21  24
ATOM     24  C   UNL     1      -5.748   3.889  25.589  0.00  0.00    +0.102 C 
ATOM     25  N   UNL     1      -6.198   4.557  25.769  0.00  0.00    -0.191 NA
ENDBRANCH  21  24
ENDBRANCH  16  18
BRANCH  13  11
ATOM      8  C   UNL     1      -0.873  -0.069  24.251  0.00  0.00    +0.250 A 
ATOM      9  N   UNL     1      -1.044  -0.619  24.842  0.00  0.00    -0.107 NA
ATOM     10  N   UNL     1      -1.830  -0.510  25.071  0.00  0.00    -0.111 NA
ATOM     11  C   UNL     1      -2.143   0.107  24.622  0.00  0.00    +0.228 A 
ATOM     12  O   UNL     1      -1.551   0.380  24.115  0.00  0.00    -0.419 OA
BRANCH   8   5
ATOM      1  C   UNL     1       2.023   0.274  22.705  0.00  0.00    +0.031 C 
ATOM      2  C   UNL     1       1.298   0.188  23.092  0.00  0.00    -0.022 A 
ATOM      3  C   UNL     1       0.964   0.830  23.488  0.00  0.00    -0.004 A 
ATOM      4  C   UNL     1       0.240   0.745  23.875  0.00  0.00    +0.004 A 
ATOM      5  C   UNL     1      -0.149   0.017  23.865  0.00  0.00    +0.055 A 
ATOM      6  C   UNL     1       0.185  -0.624  23.468  0.00  0.00    +0.004 A 
ATOM      7  C   UNL     1       0.909  -0.539  23.082  0.00  0.00    -0.004 A 
ENDBRANCH   8   5
ENDBRANCH  13  11
TORSDOF 4
ENDMDL
MODEL 7
REMARK VINA RESULT:      -8.5      3.411      4.861
REMARK  Name = 
REMARK  4 active torsions:
REMARK  status: ('A' for Active; 'I' for Inactive)
REMARK    1  A    between atoms: C_5  and  C_8
REMARK    2  A    between atoms: C_11  and  C_13
REMARK    3  A    between atoms: N_16  and  C_18
REMARK    4  A    between atoms: C_21  and  C_24
REMARK                            x       y       z     vdW  Elec       q    Type
REMARK                         _______ _______ _______ _____ _____    ______ ____
ROOT
ATOM     13  C   UNL     1      -1.867   1.405  23.653  0.00  0.00    +0.100 C 
ATOM     14  C   UNL     1      -2.199   1.645  22.936  0.00  0.00    +0.032 C 
ATOM     15  C   UNL     1      -2.892   2.059  23.102  0.00  0.00    +0.093 C 
ATOM     16  N   UNL     1      -2.989   2.076  23.922  0.00  0.00    -0.293 N 
ATOM     17  C   UNL     1      -2.355   1.672  24.262  0.00  0.00    +0.101 C 
ENDROOT
BRANCH  16  18
ATOM     18  C   UNL     1      -3.610   2.435  24.330  0.00  0.00    +0.132 A 
ATOM     19  C   UNL     1      -4.342   2.057  24.383  0.00  0.00    +0.035 A 
ATOM     20  C   UNL     1      -4.963   2.415  24.791  0.00  0.00    +0.015 A 
ATOM     21  C   UNL     1      -4.852   3.151  25.146  0.00  0.00    +0.088 A 
ATOM     22  C   UNL     1      -4.121   3.529  25.094  0.00  0.00    +0.111 A 
ATOM     23  N   UNL     1      -3.500   3.171  24.686  0.00  0.00    -0.228 NA
BRANCH  21  24
ATOM     24  C   UNL     1      -5.473   3.509  25.554  0.00  0.00    +0.102 C 
ATOM     25  N   UNL     1      -6.094   3.868  25.963  0.00  0.00    -0.191 NA
ENDBRANCH  21  24
ENDBRANCH  16  18
BRANCH  13  11
ATOM      8  C   UNL     1       0.078   0.531  23.579  0.00  0.00    +0.250 A 
ATOM      9  N   UNL     1      -0.269   0.093  24.185  0.00  0.00    -0.107 NA
ATOM     10  N   UNL     1      -1.041   0.367  24.287  0.00  0.00    -0.111 NA
ATOM     11  C   UNL     1      -1.169   0.974  23.743  0.00  0.00    +0.228 A 
ATOM     12  O   UNL     1      -0.477   1.075  23.305  0.00  0.00    -0.419 OA
BRANCH   8   5
ATOM      1  C   UNL     1       3.157   0.166  22.444  0.00  0.00    +0.031 C 
ATOM      2  C   UNL     1       2.386   0.257  22.728  0.00  0.00    -0.022 A 
ATOM      3  C   UNL     1       2.218   0.846  23.281  0.00  0.00    -0.004 A 
ATOM      4  C   UNL     1       1.449   0.937  23.564  0.00  0.00    +0.004 A 
ATOM      5  C   UNL     1       0.847   0.439  23.295  0.00  0.00    +0.055 A 
ATOM      6  C   UNL     1       1.017  -0.149  22.743  0.00  0.00    +0.004 A 
ATOM      7  C   UNL     1       1.786  -0.240  22.459  0.00  0.00    -0.004 A 
ENDBRANCH   8   5
ENDBRANCH  13  11
TORSDOF 4
ENDMDL
MODEL 8
REMARK VINA RESULT:      -8.4      3.913      6.104
REMARK  Name = 
REMARK  4 active torsions:
REMARK  status: ('A' for Active; 'I' for Inactive)
REMARK    1  A    between atoms: C_5  and  C_8
REMARK    2  A    between atoms: C_11  and  C_13
REMARK    3  A    between atoms: N_16  and  C_18
REMARK    4  A    between atoms: C_21  and  C_24
REMARK                            x       y       z     vdW  Elec       q    Type
REMARK                         _______ _______ _______ _____ _____    ______ ____
ROOT
ATOM     13  C   UNL     1      -0.686   0.548  24.397  0.00  0.00    +0.100 C 
ATOM     14  C   UNL     1      -0.575   1.364  24.439  0.00  0.00    +0.032 C 
ATOM     15  C   UNL     1       0.160   1.539  24.108  0.00  0.00    +0.093 C 
ATOM     16  N   UNL     1       0.503   0.831  23.860  0.00  0.00    -0.293 N 
ATOM     17  C   UNL     1      -0.020   0.218  24.039  0.00  0.00    +0.101 C 
ENDROOT
BRANCH  16  18
ATOM     18  C   UNL     1       1.240   0.749  23.498  0.00  0.00    +0.132 A 
ATOM     19  C   UNL     1       1.375   0.126  22.974  0.00  0.00    +0.035 A 
ATOM     20  C   UNL     1       2.112   0.045  22.611  0.00  0.00    +0.015 A 
ATOM     21  C   UNL     1       2.713   0.586  22.773  0.00  0.00    +0.088 A 
ATOM     22  C   UNL     1       2.578   1.208  23.297  0.00  0.00    +0.111 A 
ATOM     23  N   UNL     1       1.842   1.290  23.659  0.00  0.00    -0.228 NA
BRANCH  21  24
ATOM     24  C   UNL     1       3.449   0.504  22.411  0.00  0.00    +0.102 C 
ATOM     25  N   UNL     1       4.186   0.422  22.048  0.00  0.00    -0.191 NA
ENDBRANCH  21  24
ENDBRANCH  16  18
BRANCH  13  11
ATOM      8  C   UNL     1      -2.405  -0.679  24.706  0.00  0.00    +0.250 A 
ATOM      9  N   UNL     1      -2.326  -0.326  25.447  0.00  0.00    -0.107 NA
ATOM     10  N   UNL     1      -1.672   0.177  25.422  0.00  0.00    -0.111 NA
ATOM     11  C   UNL     1      -1.348   0.134  24.665  0.00  0.00    +0.228 A 
ATOM     12  O   UNL     1      -1.801  -0.395  24.222  0.00  0.00    -0.419 OA
BRANCH   8   5
ATOM      1  C   UNL     1      -4.733  -2.848  23.829  0.00  0.00    +0.031 C 
ATOM      2  C   UNL     1      -4.150  -2.305  24.048  0.00  0.00    -0.022 A 
ATOM      3  C   UNL     1      -3.465  -2.567  24.425  0.00  0.00    -0.004 A 
ATOM      4  C   UNL     1      -2.883  -2.025  24.644  0.00  0.00    +0.004 A 
ATOM      5  C   UNL     1      -2.987  -1.221  24.486  0.00  0.00    +0.055 A 
ATOM      6  C   UNL     1      -3.673  -0.961  24.109  0.00  0.00    +0.004 A 
ATOM      7  C   UNL     1      -4.255  -1.503  23.890  0.00  0.00    -0.004 A 
ENDBRANCH   8   5
ENDBRANCH  13  11
TORSDOF 4
ENDMDL
MODEL 9
REMARK VINA RESULT:      -8.2      1.858      5.601
REMARK  Name = 
REMARK  4 active torsions:
REMARK  status: ('A' for Active; 'I' for Inactive)
REMARK    1  A    between atoms: C_5  and  C_8
REMARK    2  A    between atoms: C_11  and  C_13
REMARK    3  A    between atoms: N_16  and  C_18
REMARK    4  A    between atoms: C_21  and  C_24
REMARK                            x       y       z     vdW  Elec       q    Type
REMARK                         _______ _______ _______ _____ _____    ______ ____
ROOT
ATOM     13  C   UNL     1      -2.464   1.305  24.730  0.00  0.00    +0.100 C 
ATOM     14  C   UNL     1      -1.957   1.944  24.602  0.00  0.00    +0.032 C 
ATOM     15  C   UNL     1      -2.385   2.638  24.720  0.00  0.00    +0.093 C 
ATOM     16  N   UNL     1      -3.158   2.430  24.921  0.00  0.00    -0.293 N 
ATOM     17  C   UNL     1      -3.207   1.606  24.927  0.00  0.00    +0.101 C 
ENDROOT
BRANCH  16  18
ATOM     18  C   UNL     1      -3.774   2.954  25.087  0.00  0.00    +0.132 A 
ATOM     19  C   UNL     1      -4.507   2.856  24.722  0.00  0.00    +0.035 A 
ATOM     20  C   UNL     1      -5.124   3.380  24.887  0.00  0.00    +0.015 A 
ATOM     21  C   UNL     1      -5.006   4.000  25.418  0.00  0.00    +0.088 A 
ATOM     22  C   UNL     1      -4.272   4.097  25.783  0.00  0.00    +0.111 A 
ATOM     23  N   UNL     1      -3.657   3.574  25.617  0.00  0.00    -0.228 NA
BRANCH  21  24
ATOM     24  C   UNL     1      -5.622   4.523  25.584  0.00  0.00    +0.102 C 
ATOM     25  N   UNL     1      -6.238   5.046  25.749  0.00  0.00    -0.191 NA
ENDBRANCH  21  24
ENDBRANCH  16  18
BRANCH  13  11
ATOM      8  C   UNL     1      -2.357  -0.819  24.562  0.00  0.00    +0.250 A 
ATOM      9  N   UNL     1      -1.557  -0.622  24.598  0.00  0.00    -0.107 NA
ATOM     10  N   UNL     1      -1.499   0.198  24.666  0.00  0.00    -0.111 NA
ATOM     11  C   UNL     1      -2.264   0.508  24.671  0.00  0.00    +0.228 A 
ATOM     12  O   UNL     1      -2.794  -0.122  24.607  0.00  0.00    -0.419 OA
BRANCH   8   5
ATOM      1  C   UNL     1      -3.592  -3.868  24.285  0.00  0.00    +0.031 C 
ATOM      2  C   UNL     1      -3.283  -3.105  24.354  0.00  0.00    -0.022 A 
ATOM      3  C   UNL     1      -2.478  -2.998  24.499  0.00  0.00    -0.004 A 
ATOM      4  C   UNL     1      -2.169  -2.236  24.568  0.00  0.00    +0.004 A 
ATOM      5  C   UNL     1      -2.666  -1.581  24.493  0.00  0.00    +0.055 A 
ATOM      6  C   UNL     1      -3.471  -1.689  24.348  0.00  0.00    +0.004 A 
ATOM      7  C   UNL     1      -3.779  -2.451  24.279  0.00  0.00    -0.004 A 
ENDBRANCH   8   5
ENDBRANCH  13  11
TORSDOF 4
ENDMDL
MODEL 10
REMARK VINA RESULT:      -8.2     14.891     17.144
REMARK  Name = 
REMARK  4 active torsions:
REMARK  status: ('A' for Active; 'I' for Inactive)
REMARK    1  A    between atoms: C_5  and  C_8
REMARK    2  A    between atoms: C_11  and  C_13
REMARK    3  A    between atoms: N_16  and  C_18
REMARK    4  A    between atoms: C_21  and  C_24
REMARK                            x       y       z     vdW  Elec       q    Type
REMARK                         _______ _______ _______ _____ _____    ______ ____
ROOT
ATOM     13  C   UNL     1      -2.572 -10.582  13.702  0.00  0.00    +0.100 C 
ATOM     14  C   UNL     1      -1.944 -10.658  14.232  0.00  0.00    +0.032 C 
ATOM     15  C   UNL     1      -2.255 -10.692  14.995  0.00  0.00    +0.093 C 
ATOM     16  N   UNL     1      -3.077 -10.636  14.937  0.00  0.00    -0.293 N 
ATOM     17  C   UNL     1      -3.272 -10.568  14.138  0.00  0.00    +0.101 C 
ENDROOT
BRANCH  16  18
ATOM     18  C   UNL     1      -3.609 -10.646  15.568  0.00  0.00    +0.132 A 
ATOM     19  C   UNL     1      -3.329 -10.642  16.344  0.00  0.00    +0.035 A 
ATOM     20  C   UNL     1      -3.861 -10.653  16.974  0.00  0.00    +0.015 A 
ATOM     21  C   UNL     1      -4.673 -10.667  16.829  0.00  0.00    +0.088 A 
ATOM     22  C   UNL     1      -4.953 -10.671  16.052  0.00  0.00    +0.111 A 
ATOM     23  N   UNL     1      -4.421 -10.660  15.422  0.00  0.00    -0.228 NA
BRANCH  21  24
ATOM     24  C   UNL     1      -5.205 -10.677  17.459  0.00  0.00    +0.102 C 
ATOM     25  N   UNL     1      -5.737 -10.688  18.090  0.00  0.00    -0.191 NA
ENDBRANCH  21  24
ENDBRANCH  16  18
BRANCH  13  11
ATOM      8  C   UNL     1      -2.789 -10.270  11.603  0.00  0.00    +0.250 A 
ATOM      9  N   UNL     1      -2.044 -10.622  11.634  0.00  0.00    -0.107 NA
ATOM     10  N   UNL     1      -1.872 -10.781  12.426  0.00  0.00    -0.111 NA
ATOM     11  C   UNL     1      -2.511 -10.528  12.882  0.00  0.00    +0.228 A 
ATOM     12  O   UNL     1      -3.078 -10.212  12.373  0.00  0.00    -0.419 OA
BRANCH   8   5
ATOM      1  C   UNL     1      -4.345  -9.269   8.868  0.00  0.00    +0.031 C 
ATOM      2  C   UNL     1      -3.955  -9.520   9.553  0.00  0.00    -0.022 A 
ATOM      3  C   UNL     1      -3.980 -10.314   9.773  0.00  0.00    -0.004 A 
ATOM      4  C   UNL     1      -3.591 -10.565  10.456  0.00  0.00    +0.004 A 
ATOM      5  C   UNL     1      -3.178 -10.020  10.919  0.00  0.00    +0.055 A 
ATOM      6  C   UNL     1      -3.154  -9.225  10.698  0.00  0.00    +0.004 A 
ATOM      7  C   UNL     1      -3.543  -8.975  10.015  0.00  0.00    -0.004 A 
ENDBRANCH   8   5
ENDBRANCH  13  11
TORSDOF 4
ENDMDL
