MODEL 1
REMARK VINA RESULT:     -12.1      0.000      0.000
REMARK  Name = 
REMARK  3 active torsions:
REMARK  status: ('A' for Active; 'I' for Inactive)
REMARK    1  A    between atoms: C_3  and  N_4
REMARK    2  A    between atoms: N_7  and  C_8
REMARK    3  A    between atoms: C_19  and  N_20
REMARK                            x       y       z     vdW  Elec       q    Type
REMARK                         _______ _______ _______ _____ _____    ______ ____
ROOT
ATOM      1  O   UNL     1      -2.302   2.272  25.791  0.00  0.00    -0.220 OA
ATOM      2  C   UNL     1      -2.969   2.298  25.306  0.00  0.00    +0.194 C 
ATOM      3  C   UNL     1      -3.689   2.073  24.962  0.00  0.00    +0.158 C 
ATOM     14  C   UNL     1      -3.795   2.789  24.379  0.00  0.00    +0.170 C 
ATOM     15  C   UNL     1      -3.227   3.320  24.399  0.00  0.00    +0.176 C 
ATOM     16  O   UNL     1      -2.982   3.946  24.126  0.00  0.00    -0.327 OA
ATOM     17  C   UNL     1      -3.528   3.261  24.231  0.00  0.00    +0.253 C 
ATOM     18  O   UNL     1      -4.245   3.039  23.887  0.00  0.00    -0.327 OA
ATOM     19  C   UNL     1      -3.404   2.519  24.845  0.00  0.00    +0.147 C 
ENDROOT
BRANCH  19  20
ATOM     20  N   UNL     1      -2.773   3.046  24.911  0.00  0.00    -0.268 NA
ATOM     21  C   UNL     1      -2.104   2.952  24.437  0.00  0.00    +0.072 C 
ATOM     22  C   UNL     1      -1.473   3.479  24.504  0.00  0.00    +0.017 C 
ATOM     23  C   UNL     1      -1.511   4.101  25.044  0.00  0.00    +0.003 C 
ATOM     24  C   UNL     1      -2.179   4.196  25.518  0.00  0.00    +0.017 C 
ATOM     25  C   UNL     1      -2.810   3.668  25.452  0.00  0.00    +0.072 C 
ENDBRANCH  19  20
BRANCH   3   4
ATOM      4  N   UNL     1      -4.167   1.413  25.097  0.00  0.00    -0.184 NA
ATOM      5  C   UNL     1      -3.900   0.661  24.886  0.00  0.00    +0.339 C 
ATOM      6  O   UNL     1      -3.155   0.569  24.542  0.00  0.00    -0.249 OA
ATOM      7  N   UNL     1      -4.377   0.002  25.021  0.00  0.00    -0.189 NA
BRANCH   7   8
ATOM      8  C   UNL     1      -4.110  -0.750  24.811  0.00  0.00    +0.097 C 
ATOM      9  C   UNL     1      -4.286  -1.056  24.065  0.00  0.00    +0.022 C 
ATOM     10  C   UNL     1      -4.019  -1.808  23.855  0.00  0.00    +0.002 C 
ATOM     11  C   UNL     1      -3.576  -2.254  24.390  0.00  0.00    +0.000 C 
ATOM     12  C   UNL     1      -3.400  -1.946  25.135  0.00  0.00    +0.002 C 
ATOM     13  C   UNL     1      -3.667  -1.195  25.346  0.00  0.00    +0.022 C 
ENDBRANCH   7   8
ENDBRANCH   3   4
TORSDOF 3
ENDMDL
MODEL 2
REMARK VINA RESULT:     -11.8      1.077      4.349
REMARK  Name = 
REMARK  3 active torsions:
REMARK  status: ('A' for Active; 'I' for Inactive)
REMARK    1  A    between atoms: C_3  and  N_4
REMARK    2  A    between atoms: N_7  and  C_8
REMARK    3  A    between atoms: C_19  and  N_20
REMARK                            x       y       z     vdW  Elec       q    Type
REMARK                         _______ _______ _______ _____ _____    ______ ____
ROOT
ATOM      1  O   UNL     1      -2.330  -0.378  24.267  0.00  0.00    -0.220 OA
ATOM      2  C   UNL     1      -2.955   0.160  24.303  0.00  0.00    +0.194 C 
ATOM      3  C   UNL     1      -3.377   0.868  24.216  0.00  0.00    +0.158 C 
ATOM     14  C   UNL     1      -4.188   0.593  24.577  0.00  0.00    +0.170 C 
ATOM     15  C   UNL     1      -4.208  -0.145  24.822  0.00  0.00    +0.176 C 
ATOM     16  O   UNL     1      -4.615  -0.664  25.126  0.00  0.00    -0.327 OA
ATOM     17  C   UNL     1      -4.420   0.134  24.803  0.00  0.00    +0.253 C 
ATOM     18  O   UNL     1      -4.842   0.837  24.717  0.00  0.00    -0.327 OA
ATOM     19  C   UNL     1      -3.566   0.407  24.429  0.00  0.00    +0.147 C 
ENDROOT
BRANCH  19  20
ATOM     20  N   UNL     1      -3.527  -0.381  24.670  0.00  0.00    -0.268 NA
ATOM     21  C   UNL     1      -3.711  -0.985  24.138  0.00  0.00    +0.072 C 
ATOM     22  C   UNL     1      -3.672  -1.773  24.379  0.00  0.00    +0.017 C 
ATOM     23  C   UNL     1      -3.449  -1.957  25.152  0.00  0.00    +0.003 C 
ATOM     24  C   UNL     1      -3.264  -1.354  25.683  0.00  0.00    +0.017 C 
ATOM     25  C   UNL     1      -3.304  -0.566  25.442  0.00  0.00    +0.072 C 
ENDBRANCH  19  20
BRANCH   3   4
ATOM      4  N   UNL     1      -3.146   1.596  23.904  0.00  0.00    -0.184 NA
ATOM      5  C   UNL     1      -2.708   2.123  24.365  0.00  0.00    +0.339 C 
ATOM      6  O   UNL     1      -2.501   1.920  25.138  0.00  0.00    -0.249 OA
ATOM      7  N   UNL     1      -2.478   2.850  24.053  0.00  0.00    -0.189 NA
BRANCH   7   8
ATOM      8  C   UNL     1      -2.040   3.376  24.514  0.00  0.00    +0.097 C 
ATOM      9  C   UNL     1      -2.427   3.935  24.981  0.00  0.00    +0.022 C 
ATOM     10  C   UNL     1      -1.989   4.461  25.442  0.00  0.00    +0.002 C 
ATOM     11  C   UNL     1      -1.165   4.429  25.435  0.00  0.00    +0.000 C 
ATOM     12  C   UNL     1      -0.779   3.870  24.968  0.00  0.00    +0.002 C 
ATOM     13  C   UNL     1      -1.216   3.344  24.507  0.00  0.00    +0.022 C 
ENDBRANCH   7   8
ENDBRANCH   3   4
TORSDOF 3
ENDMDL
MODEL 3
REMARK VINA RESULT:     -11.7      1.477      2.137
REMARK  Name = 
REMARK  3 active torsions:
REMARK  status: ('A' for Active; 'I' for Inactive)
REMARK    1  A    between atoms: C_3  and  N_4
REMARK    2  A    between atoms: N_7  and  C_8
REMARK    3  A    between atoms: C_19  and  N_20
REMARK                            x       y       z     vdW  Elec       q    Type
REMARK                         _______ _______ _______ _____ _____    ______ ____
ROOT
ATOM      1  O   UNL     1      -2.075   2.988  24.128  0.00  0.00    -0.220 OA
ATOM      2  C   UNL     1      -1.631   2.481  24.604  0.00  0.00    +0.194 C 
ATOM      3  C   UNL     1      -1.284   1.782  24.883  0.00  0.00    +0.158 C 
ATOM     14  C   UNL     1      -0.840   2.130  25.621  0.00  0.00    +0.170 C 
ATOM     15  C   UNL     1      -0.929   2.895  25.730  0.00  0.00    +0.176 C 
ATOM     16  O   UNL     1      -0.758   3.463  26.148  0.00  0.00    -0.327 OA
ATOM     17  C   UNL     1      -0.765   2.623  25.879  0.00  0.00    +0.253 C 
ATOM     18  O   UNL     1      -0.419   1.928  26.158  0.00  0.00    -0.327 OA
ATOM     19  C   UNL     1      -1.235   2.273  25.104  0.00  0.00    +0.147 C 
ENDROOT
BRANCH  19  20
ATOM     20  N   UNL     1      -1.365   3.085  25.168  0.00  0.00    -0.268 NA
ATOM     21  C   UNL     1      -0.851   3.616  24.801  0.00  0.00    +0.072 C 
ATOM     22  C   UNL     1      -0.982   4.428  24.865  0.00  0.00    +0.017 C 
ATOM     23  C   UNL     1      -1.627   4.709  25.296  0.00  0.00    +0.003 C 
ATOM     24  C   UNL     1      -2.141   4.179  25.663  0.00  0.00    +0.017 C 
ATOM     25  C   UNL     1      -2.010   3.367  25.599  0.00  0.00    +0.072 C 
ENDBRANCH  19  20
BRANCH   3   4
ATOM      4  N   UNL     1      -1.322   1.010  24.592  0.00  0.00    -0.184 NA
ATOM      5  C   UNL     1      -1.998   0.554  24.718  0.00  0.00    +0.339 C 
ATOM      6  O   UNL     1      -2.637   0.870  25.135  0.00  0.00    -0.249 OA
ATOM      7  N   UNL     1      -2.036  -0.217  24.428  0.00  0.00    -0.189 NA
BRANCH   7   8
ATOM      8  C   UNL     1      -2.712  -0.673  24.554  0.00  0.00    +0.097 C 
ATOM      9  C   UNL     1      -2.759  -1.166  25.213  0.00  0.00    +0.022 C 
ATOM     10  C   UNL     1      -3.435  -1.622  25.340  0.00  0.00    +0.002 C 
ATOM     11  C   UNL     1      -4.064  -1.584  24.807  0.00  0.00    +0.000 C 
ATOM     12  C   UNL     1      -4.016  -1.090  24.148  0.00  0.00    +0.002 C 
ATOM     13  C   UNL     1      -3.341  -0.635  24.022  0.00  0.00    +0.022 C 
ENDBRANCH   7   8
ENDBRANCH   3   4
TORSDOF 3
ENDMDL
