MODEL 1
REMARK VINA RESULT:      -9.7      0.000      0.000
REMARK  Name = 
REMARK  7 active torsions:
REMARK  status: ('A' for Active; 'I' for Inactive)
REMARK    1  A    between atoms: O_2  and  C_3
REMARK    2  A    between atoms: C_6  and  N_7
REMARK    3  A    between atoms: C_8  and  O_10
REMARK    4  A    between atoms: O_10  and  C_11
REMARK    5  A    between atoms: C_15  and  N_19
REMARK    6  A    between atoms: N_19  and  S_20
REMARK    7  A    between atoms: S_20  and  C_23
REMARK                            x       y       z     vdW  Elec       q    Type
REMARK                         _______ _______ _______ _____ _____    ______ ____
ROOT
ATOM     11  C   UNL     1      -4.840   1.581  24.894  0.00  0.00    +0.229 C 
ATOM     12  C   UNL     1      -5.046   1.801  25.662  0.00  0.00    +0.188 C 
ATOM     13  O   UNL     1      -4.684   2.524  25.825  0.00  0.00    -0.348 OA
ATOM     14  C   UNL     1      -4.256   2.752  25.159  0.00  0.00    +0.166 C 
ATOM     15  C   UNL     1      -3.767   3.339  24.847  0.00  0.00    +0.157 C 
ATOM     16  C   UNL     1      -3.561   3.119  24.079  0.00  0.00    +0.164 C 
ATOM     17  O   UNL     1      -3.922   2.396  23.916  0.00  0.00    -0.348 OA
ATOM     18  C   UNL     1      -4.352   2.168  24.583  0.00  0.00    +0.186 C 
ENDROOT
BRANCH  11  10
ATOM     10  O   UNL     1      -5.080   0.894  24.505  0.00  0.00    -0.432 OA
BRANCH  10   8
ATOM      7  N   UNL     1      -4.381  -0.251  24.012  0.00  0.00    -0.142 NA
ATOM      8  C   UNL     1      -4.686   0.182  24.644  0.00  0.00    +0.425 C 
ATOM      9  O   UNL     1      -4.599  -0.097  25.416  0.00  0.00    -0.224 OA
BRANCH   7   6
ATOM      3  C   UNL     1      -3.200  -2.386  24.428  0.00  0.00    +0.139 A 
ATOM      4  C   UNL     1      -2.823  -1.668  24.585  0.00  0.00    +0.038 A 
ATOM      5  C   UNL     1      -3.217  -0.957  24.447  0.00  0.00    +0.020 A 
ATOM      6  C   UNL     1      -3.987  -0.962  24.150  0.00  0.00    +0.077 A 
ATOM     28  C   UNL     1      -4.363  -1.679  23.993  0.00  0.00    +0.020 A 
ATOM     29  C   UNL     1      -3.970  -2.391  24.132  0.00  0.00    +0.038 A 
BRANCH   3   2
ATOM      1  C   UNL     1      -1.991  -3.147  24.446  0.00  0.00    +0.252 C 
ATOM      2  O   UNL     1      -2.806  -3.097  24.567  0.00  0.00    -0.471 OA
ENDBRANCH   3   2
ENDBRANCH   7   6
ENDBRANCH  10   8
ENDBRANCH  11  10
BRANCH  15  19
ATOM     19  N   UNL     1      -3.527   4.026  25.235  0.00  0.00    -0.074 NA
BRANCH  19  20
ATOM     20  S   UNL     1      -2.743   4.277  25.183  0.00  0.00    +0.083 S 
ATOM     21  O   UNL     1      -2.588   3.944  25.922  0.00  0.00    -0.151 OA
ATOM     22  O   UNL     1      -2.898   4.610  24.445  0.00  0.00    -0.151 OA
BRANCH  20  23
ATOM     23  C   UNL     1      -1.958   4.528  25.132  0.00  0.00    +0.153 A 
ATOM     24  C   UNL     1      -1.705   5.302  25.001  0.00  0.00    +0.027 A 
ATOM     25  C   UNL     1      -0.880   5.302  24.991  0.00  0.00    +0.009 A 
ATOM     26  C   UNL     1      -0.624   4.528  25.116  0.00  0.00    +0.037 A 
ATOM     27  S   UNL     1      -1.290   4.049  25.203  0.00  0.00    -0.067 S 
ENDBRANCH  20  23
ENDBRANCH  19  20
ENDBRANCH  15  19
TORSDOF 7
ENDMDL
MODEL 2
REMARK VINA RESULT:      -9.6      2.337      3.122
REMARK  Name = 
REMARK  7 active torsions:
REMARK  status: ('A' for Active; 'I' for Inactive)
REMARK    1  A    between atoms: O_2  and  C_3
REMARK    2  A    between atoms: C_6  and  N_7
REMARK    3  A    between atoms: C_8  and  O_10
REMARK    4  A    between atoms: O_10  and  C_11
REMARK    5  A    between atoms: C_15  and  N_19
REMARK    6  A    between atoms: N_19  and  S_20
REMARK    7  A    between atoms: S_20  and  C_23
REMARK                            x       y       z     vdW  Elec       q    Type
REMARK                         _______ _______ _______ _____ _____    ______ ____
ROOT
ATOM     11  C   UNL     1      -0.354   0.135  24.695  0.00  0.00    +0.229 C 
ATOM     12  C   UNL     1      -0.118   0.290  23.920  0.00  0.00    +0.188 C 
ATOM     13  O   UNL     1      -0.031   1.106  23.839  0.00  0.00    -0.348 OA
ATOM     14  C   UNL     1      -0.212   1.456  24.562  0.00  0.00    +0.166 C 
ATOM     15  C   UNL     1      -0.271   2.176  24.961  0.00  0.00    +0.157 C 
ATOM     16  C   UNL     1      -0.507   2.021  25.736  0.00  0.00    +0.164 C 
ATOM     17  O   UNL     1      -0.595   1.205  25.817  0.00  0.00    -0.348 OA
ATOM     18  C   UNL     1      -0.413   0.856  25.092  0.00  0.00    +0.186 C 
ENDROOT
BRANCH  11  10
ATOM     10  O   UNL     1      -0.506  -0.610  25.016  0.00  0.00    -0.432 OA
BRANCH  10   8
ATOM      7  N   UNL     1      -1.771  -1.244  25.211  0.00  0.00    -0.142 NA
ATOM      8  C   UNL     1      -1.129  -1.065  24.726  0.00  0.00    +0.425 C 
ATOM      9  O   UNL     1      -1.109  -1.343  23.948  0.00  0.00    -0.224 OA
BRANCH   7   6
ATOM      3  C   UNL     1      -3.641  -2.612  24.340  0.00  0.00    +0.139 A 
ATOM      4  C   UNL     1      -2.927  -2.972  24.545  0.00  0.00    +0.038 A 
ATOM      5  C   UNL     1      -2.304  -2.515  24.836  0.00  0.00    +0.020 A 
ATOM      6  C   UNL     1      -2.395  -1.700  24.921  0.00  0.00    +0.077 A 
ATOM     28  C   UNL     1      -3.108  -1.341  24.716  0.00  0.00    +0.020 A 
ATOM     29  C   UNL     1      -3.732  -1.797  24.425  0.00  0.00    +0.038 A 
BRANCH   3   2
ATOM      1  C   UNL     1      -4.737  -2.779  23.439  0.00  0.00    +0.252 C 
ATOM      2  O   UNL     1      -4.264  -3.069  24.050  0.00  0.00    -0.471 OA
ENDBRANCH   3   2
ENDBRANCH   7   6
ENDBRANCH  10   8
ENDBRANCH  11  10
BRANCH  15  19
ATOM     19  N   UNL     1      -0.120   2.921  24.639  0.00  0.00    -0.074 NA
BRANCH  19  20
ATOM     20  S   UNL     1      -0.619   3.555  24.813  0.00  0.00    +0.083 S 
ATOM     21  O   UNL     1      -1.048   3.404  24.125  0.00  0.00    -0.151 OA
ATOM     22  O   UNL     1      -0.189   3.705  25.501  0.00  0.00    -0.151 OA
BRANCH  20  23
ATOM     23  C   UNL     1      -1.119   4.188  24.986  0.00  0.00    +0.153 A 
ATOM     24  C   UNL     1      -0.916   4.987  24.954  0.00  0.00    +0.027 A 
ATOM     25  C   UNL     1      -1.580   5.427  25.169  0.00  0.00    +0.009 A 
ATOM     26  C   UNL     1      -2.192   4.900  25.333  0.00  0.00    +0.037 A 
ATOM     27  S   UNL     1      -1.908   4.134  25.219  0.00  0.00    -0.067 S 
ENDBRANCH  20  23
ENDBRANCH  19  20
ENDBRANCH  15  19
TORSDOF 7
ENDMDL
MODEL 3
REMARK VINA RESULT:      -9.1      2.809      6.267
REMARK  Name = 
REMARK  7 active torsions:
REMARK  status: ('A' for Active; 'I' for Inactive)
REMARK    1  A    between atoms: O_2  and  C_3
REMARK    2  A    between atoms: C_6  and  N_7
REMARK    3  A    between atoms: C_8  and  O_10
REMARK    4  A    between atoms: O_10  and  C_11
REMARK    5  A    between atoms: C_15  and  N_19
REMARK    6  A    between atoms: N_19  and  S_20
REMARK    7  A    between atoms: S_20  and  C_23
REMARK                            x       y       z     vdW  Elec       q    Type
REMARK                         _______ _______ _______ _____ _____    ______ ____
ROOT
ATOM     11  C   UNL     1      -0.447   0.708  25.181  0.00  0.00    +0.229 C 
ATOM     12  C   UNL     1      -0.779   0.673  25.935  0.00  0.00    +0.188 C 
ATOM     13  O   UNL     1      -1.182  -0.043  26.002  0.00  0.00    -0.348 OA
ATOM     14  C   UNL     1      -1.100  -0.450  25.290  0.00  0.00    +0.166 C 
ATOM     15  C   UNL     1      -1.298  -1.144  24.891  0.00  0.00    +0.157 C 
ATOM     16  C   UNL     1      -0.966  -1.109  24.137  0.00  0.00    +0.164 C 
ATOM     17  O   UNL     1      -0.563  -0.393  24.070  0.00  0.00    -0.348 OA
ATOM     18  C   UNL     1      -0.645   0.014  24.783  0.00  0.00    +0.186 C 
ENDROOT
BRANCH  11  10
ATOM     10  O   UNL     1       0.005   1.329  24.879  0.00  0.00    -0.432 OA
BRANCH  10   8
ATOM      7  N   UNL     1      -0.599   2.570  24.508  0.00  0.00    -0.142 NA
ATOM      8  C   UNL     1      -0.193   2.110  25.059  0.00  0.00    +0.425 C 
ATOM      9  O   UNL     1       0.014   2.429  25.791  0.00  0.00    -0.224 OA
BRANCH   7   6
ATOM      3  C   UNL     1      -1.194   4.911  25.048  0.00  0.00    +0.139 A 
ATOM      4  C   UNL     1      -1.708   4.298  25.249  0.00  0.00    +0.038 A 
ATOM      5  C   UNL     1      -1.509   3.518  25.069  0.00  0.00    +0.020 A 
ATOM      6  C   UNL     1      -0.797   3.351  24.688  0.00  0.00    +0.077 A 
ATOM     28  C   UNL     1      -0.284   3.964  24.486  0.00  0.00    +0.020 A 
ATOM     29  C   UNL     1      -0.482   4.745  24.666  0.00  0.00    +0.038 A 
BRANCH   3   2
ATOM      1  C   UNL     1      -2.155   5.969  25.072  0.00  0.00    +0.252 C 
ATOM      2  O   UNL     1      -1.393   5.691  25.228  0.00  0.00    -0.471 OA
ENDBRANCH   3   2
ENDBRANCH   7   6
ENDBRANCH  10   8
ENDBRANCH  11  10
BRANCH  15  19
ATOM     19  N   UNL     1      -1.750  -1.765  25.193  0.00  0.00    -0.074 NA
BRANCH  19  20
ATOM     20  S   UNL     1      -2.459  -1.976  24.828  0.00  0.00    +0.083 S 
ATOM     21  O   UNL     1      -2.877  -1.536  25.386  0.00  0.00    -0.151 OA
ATOM     22  O   UNL     1      -2.041  -2.416  24.269  0.00  0.00    -0.151 OA
BRANCH  20  23
ATOM     23  C   UNL     1      -3.169  -2.186  24.463  0.00  0.00    +0.153 A 
ATOM     24  C   UNL     1      -3.775  -1.669  24.251  0.00  0.00    +0.027 A 
ATOM     25  C   UNL     1      -4.378  -2.113  23.903  0.00  0.00    +0.009 A 
ATOM     26  C   UNL     1      -4.143  -2.904  23.901  0.00  0.00    +0.037 A 
ATOM     27  S   UNL     1      -3.396  -2.950  24.247  0.00  0.00    -0.067 S 
ENDBRANCH  20  23
ENDBRANCH  19  20
ENDBRANCH  15  19
TORSDOF 7
ENDMDL
MODEL 4
REMARK VINA RESULT:      -8.7      1.869      5.639
REMARK  Name = 
REMARK  7 active torsions:
REMARK  status: ('A' for Active; 'I' for Inactive)
REMARK    1  A    between atoms: O_2  and  C_3
REMARK    2  A    between atoms: C_6  and  N_7
REMARK    3  A    between atoms: C_8  and  O_10
REMARK    4  A    between atoms: O_10  and  C_11
REMARK    5  A    between atoms: C_15  and  N_19
REMARK    6  A    between atoms: N_19  and  S_20
REMARK    7  A    between atoms: S_20  and  C_23
REMARK                            x       y       z     vdW  Elec       q    Type
REMARK                         _______ _______ _______ _____ _____    ______ ____
ROOT
ATOM     11  C   UNL     1      -4.195   1.910  24.755  0.00  0.00    +0.229 C 
ATOM     12  C   UNL     1      -4.251   1.886  23.933  0.00  0.00    +0.188 C 
ATOM     13  O   UNL     1      -4.300   1.095  23.705  0.00  0.00    -0.348 OA
ATOM     14  C   UNL     1      -4.274   0.631  24.385  0.00  0.00    +0.166 C 
ATOM     15  C   UNL     1      -4.288  -0.145  24.666  0.00  0.00    +0.157 C 
ATOM     16  C   UNL     1      -4.232  -0.121  25.488  0.00  0.00    +0.164 C 
ATOM     17  O   UNL     1      -4.183   0.670  25.716  0.00  0.00    -0.348 OA
ATOM     18  C   UNL     1      -4.209   1.135  25.035  0.00  0.00    +0.186 C 
ENDROOT
BRANCH  11  10
ATOM     10  O   UNL     1      -4.135   2.592  25.217  0.00  0.00    -0.432 OA
BRANCH  10   8
ATOM      7  N   UNL     1      -2.930   3.261  25.592  0.00  0.00    -0.142 NA
ATOM      8  C   UNL     1      -3.548   3.148  25.058  0.00  0.00    +0.425 C 
ATOM      9  O   UNL     1      -3.578   3.592  24.362  0.00  0.00    -0.224 OA
BRANCH   7   6
ATOM      3  C   UNL     1      -1.166   4.930  25.114  0.00  0.00    +0.139 A 
ATOM      4  C   UNL     1      -1.002   4.125  25.044  0.00  0.00    +0.038 A 
ATOM      5  C   UNL     1      -1.590   3.569  25.203  0.00  0.00    +0.020 A 
ATOM      6  C   UNL     1      -2.342   3.818  25.433  0.00  0.00    +0.077 A 
ATOM     28  C   UNL     1      -2.506   4.623  25.502  0.00  0.00    +0.020 A 
ATOM     29  C   UNL     1      -1.918   5.180  25.343  0.00  0.00    +0.038 A 
BRANCH   3   2
ATOM      1  C   UNL     1      -0.136   5.431  24.259  0.00  0.00    +0.252 C 
ATOM      2  O   UNL     1      -0.578   5.486  24.954  0.00  0.00    -0.471 OA
ENDBRANCH   3   2
ENDBRANCH   7   6
ENDBRANCH  10   8
ENDBRANCH  11  10
BRANCH  15  19
ATOM     19  N   UNL     1      -4.348  -0.826  24.204  0.00  0.00    -0.074 NA
BRANCH  19  20
ATOM     20  S   UNL     1      -3.805  -1.440  24.300  0.00  0.00    +0.083 S 
ATOM     21  O   UNL     1      -4.187  -1.668  24.995  0.00  0.00    -0.151 OA
ATOM     22  O   UNL     1      -3.423  -1.210  23.606  0.00  0.00    -0.151 OA
BRANCH  20  23
ATOM     23  C   UNL     1      -3.262  -2.053  24.398  0.00  0.00    +0.153 A 
ATOM     24  C   UNL     1      -3.445  -2.840  24.563  0.00  0.00    +0.027 A 
ATOM     25  C   UNL     1      -2.737  -3.262  24.615  0.00  0.00    +0.009 A 
ATOM     26  C   UNL     1      -2.117  -2.734  24.480  0.00  0.00    +0.037 A 
ATOM     27  S   UNL     1      -2.441  -1.987  24.346  0.00  0.00    -0.067 S 
ENDBRANCH  20  23
ENDBRANCH  19  20
ENDBRANCH  15  19
TORSDOF 7
ENDMDL
MODEL 5
REMARK VINA RESULT:      -8.6      4.558      5.633
REMARK  Name = 
REMARK  7 active torsions:
REMARK  status: ('A' for Active; 'I' for Inactive)
REMARK    1  A    between atoms: O_2  and  C_3
REMARK    2  A    between atoms: C_6  and  N_7
REMARK    3  A    between atoms: C_8  and  O_10
REMARK    4  A    between atoms: O_10  and  C_11
REMARK    5  A    between atoms: C_15  and  N_19
REMARK    6  A    between atoms: N_19  and  S_20
REMARK    7  A    between atoms: S_20  and  C_23
REMARK                            x       y       z     vdW  Elec       q    Type
REMARK                         _______ _______ _______ _____ _____    ______ ____
ROOT
ATOM     11  C   UNL     1       0.037   0.311  23.559  0.00  0.00    +0.229 C 
ATOM     12  C   UNL     1       0.112  -0.112  24.263  0.00  0.00    +0.188 C 
ATOM     13  O   UNL     1      -0.543   0.060  24.734  0.00  0.00    -0.348 OA
ATOM     14  C   UNL     1      -1.022   0.590  24.322  0.00  0.00    +0.166 C 
ATOM     15  C   UNL     1      -1.722   1.024  24.357  0.00  0.00    +0.157 C 
ATOM     16  C   UNL     1      -1.797   1.448  23.654  0.00  0.00    +0.164 C 
ATOM     17  O   UNL     1      -1.142   1.275  23.183  0.00  0.00    -0.348 OA
ATOM     18  C   UNL     1      -0.663   0.745  23.595  0.00  0.00    +0.186 C 
ENDROOT
BRANCH  11  10
ATOM     10  O   UNL     1       0.570   0.302  22.929  0.00  0.00    -0.432 OA
BRANCH  10   8
ATOM      7  N   UNL     1       1.930   0.024  22.591  0.00  0.00    -0.142 NA
ATOM      8  C   UNL     1       1.377   0.405  23.068  0.00  0.00    +0.425 C 
ATOM      9  O   UNL     1       1.629   0.890  23.687  0.00  0.00    -0.224 OA
BRANCH   7   6
ATOM      3  C   UNL     1       4.350   0.334  23.010  0.00  0.00    +0.139 A 
ATOM      4  C   UNL     1       3.910   0.940  22.663  0.00  0.00    +0.038 A 
ATOM      5  C   UNL     1       3.104   0.836  22.523  0.00  0.00    +0.020 A 
ATOM      6  C   UNL     1       2.737   0.127  22.731  0.00  0.00    +0.077 A 
ATOM     28  C   UNL     1       3.176  -0.478  23.077  0.00  0.00    +0.020 A 
ATOM     29  C   UNL     1       3.983  -0.376  23.217  0.00  0.00    +0.038 A 
BRANCH   3   2
ATOM      1  C   UNL     1       5.493   0.157  23.849  0.00  0.00    +0.252 C 
ATOM      2  O   UNL     1       5.156   0.437  23.149  0.00  0.00    -0.471 OA
ENDBRANCH   3   2
ENDBRANCH   7   6
ENDBRANCH  10   8
ENDBRANCH  11  10
BRANCH  15  19
ATOM     19  N   UNL     1      -2.255   1.033  24.988  0.00  0.00    -0.074 NA
BRANCH  19  20
ATOM     20  S   UNL     1      -2.990   1.398  24.902  0.00  0.00    +0.083 S 
ATOM     21  O   UNL     1      -3.318   0.679  24.665  0.00  0.00    -0.151 OA
ATOM     22  O   UNL     1      -2.661   2.117  25.138  0.00  0.00    -0.151 OA
BRANCH  20  23
ATOM     23  C   UNL     1      -3.726   1.762  24.815  0.00  0.00    +0.153 A 
ATOM     24  C   UNL     1      -4.430   1.386  24.607  0.00  0.00    +0.027 A 
ATOM     25  C   UNL     1      -5.026   1.956  24.585  0.00  0.00    +0.009 A 
ATOM     26  C   UNL     1      -4.689   2.684  24.780  0.00  0.00    +0.037 A 
ATOM     27  S   UNL     1      -3.886   2.564  24.922  0.00  0.00    -0.067 S 
ENDBRANCH  20  23
ENDBRANCH  19  20
ENDBRANCH  15  19
TORSDOF 7
ENDMDL
MODEL 6
REMARK VINA RESULT:      -8.2      5.022      6.510
REMARK  Name = 
REMARK  7 active torsions:
REMARK  status: ('A' for Active; 'I' for Inactive)
REMARK    1  A    between atoms: O_2  and  C_3
REMARK    2  A    between atoms: C_6  and  N_7
REMARK    3  A    between atoms: C_8  and  O_10
REMARK    4  A    between atoms: O_10  and  C_11
REMARK    5  A    between atoms: C_15  and  N_19
REMARK    6  A    between atoms: N_19  and  S_20
REMARK    7  A    between atoms: S_20  and  C_23
REMARK                            x       y       z     vdW  Elec       q    Type
REMARK                         _______ _______ _______ _____ _____    ______ ____
ROOT
ATOM     11  C   UNL     1       0.608   0.640  23.462  0.00  0.00    +0.229 C 
ATOM     12  C   UNL     1       0.476   1.371  23.821  0.00  0.00    +0.188 C 
ATOM     13  O   UNL     1      -0.127   1.277  24.376  0.00  0.00    -0.348 OA
ATOM     14  C   UNL     1      -0.368   0.489  24.361  0.00  0.00    +0.166 C 
ATOM     15  C   UNL     1      -0.889  -0.057  24.693  0.00  0.00    +0.157 C 
ATOM     16  C   UNL     1      -0.758  -0.788  24.335  0.00  0.00    +0.164 C 
ATOM     17  O   UNL     1      -0.155  -0.694  23.780  0.00  0.00    -0.348 OA
ATOM     18  C   UNL     1       0.086   0.095  23.796  0.00  0.00    +0.186 C 
ENDROOT
BRANCH  11  10
ATOM     10  O   UNL     1       1.164   0.482  22.873  0.00  0.00    -0.432 OA
BRANCH  10   8
ATOM      7  N   UNL     1       2.510   0.041  22.690  0.00  0.00    -0.142 NA
ATOM      8  C   UNL     1       1.969   0.559  23.035  0.00  0.00    +0.425 C 
ATOM      9  O   UNL     1       2.233   1.154  23.542  0.00  0.00    -0.224 OA
BRANCH   7   6
ATOM      3  C   UNL     1       4.927   0.270  23.174  0.00  0.00    +0.139 A 
ATOM      4  C   UNL     1       4.508  -0.380  23.463  0.00  0.00    +0.038 A 
ATOM      5  C   UNL     1       3.702  -0.456  23.301  0.00  0.00    +0.020 A 
ATOM      6  C   UNL     1       3.316   0.118  22.851  0.00  0.00    +0.077 A 
ATOM     28  C   UNL     1       3.735   0.767  22.563  0.00  0.00    +0.020 A 
ATOM     29  C   UNL     1       4.540   0.844  22.725  0.00  0.00    +0.038 A 
BRANCH   3   2
ATOM      1  C   UNL     1       6.112  -0.215  23.807  0.00  0.00    +0.252 C 
ATOM      2  O   UNL     1       5.732   0.346  23.336  0.00  0.00    -0.471 OA
ENDBRANCH   3   2
ENDBRANCH   7   6
ENDBRANCH  10   8
ENDBRANCH  11  10
BRANCH  15  19
ATOM     19  N   UNL     1      -1.445   0.101  25.282  0.00  0.00    -0.074 NA
BRANCH  19  20
ATOM     20  S   UNL     1      -2.186  -0.263  25.260  0.00  0.00    +0.083 S 
ATOM     21  O   UNL     1      -1.893  -0.884  25.718  0.00  0.00    -0.151 OA
ATOM     22  O   UNL     1      -2.477   0.358  24.802  0.00  0.00    -0.151 OA
BRANCH  20  23
ATOM     23  C   UNL     1      -2.925  -0.628  25.238  0.00  0.00    +0.153 A 
ATOM     24  C   UNL     1      -3.106  -1.374  25.539  0.00  0.00    +0.027 A 
ATOM     25  C   UNL     1      -3.906  -1.519  25.399  0.00  0.00    +0.009 A 
ATOM     26  C   UNL     1      -4.219  -0.862  25.010  0.00  0.00    +0.037 A 
ATOM     27  S   UNL     1      -3.613  -0.311  24.911  0.00  0.00    -0.067 S 
ENDBRANCH  20  23
ENDBRANCH  19  20
ENDBRANCH  15  19
TORSDOF 7
ENDMDL
MODEL 7
REMARK VINA RESULT:      -7.9      4.425      5.441
REMARK  Name = 
REMARK  7 active torsions:
REMARK  status: ('A' for Active; 'I' for Inactive)
REMARK    1  A    between atoms: O_2  and  C_3
REMARK    2  A    between atoms: C_6  and  N_7
REMARK    3  A    between atoms: C_8  and  O_10
REMARK    4  A    between atoms: O_10  and  C_11
REMARK    5  A    between atoms: C_15  and  N_19
REMARK    6  A    between atoms: N_19  and  S_20
REMARK    7  A    between atoms: S_20  and  C_23
REMARK                            x       y       z     vdW  Elec       q    Type
REMARK                         _______ _______ _______ _____ _____    ______ ____
ROOT
ATOM     11  C   UNL     1      -0.405   0.249  24.152  0.00  0.00    +0.229 C 
ATOM     12  C   UNL     1      -0.326   1.063  24.262  0.00  0.00    +0.188 C 
ATOM     13  O   UNL     1       0.356   1.307  23.868  0.00  0.00    -0.348 OA
ATOM     14  C   UNL     1       0.699   0.646  23.515  0.00  0.00    +0.166 C 
ATOM     15  C   UNL     1       1.332   0.387  23.054  0.00  0.00    +0.157 C 
ATOM     16  C   UNL     1       1.253  -0.427  22.944  0.00  0.00    +0.164 C 
ATOM     17  O   UNL     1       0.571  -0.671  23.338  0.00  0.00    -0.348 OA
ATOM     18  C   UNL     1       0.228  -0.008  23.691  0.00  0.00    +0.186 C 
ENDROOT
BRANCH  11  10
ATOM     10  O   UNL     1      -1.011  -0.224  24.452  0.00  0.00    -0.432 OA
BRANCH  10   8
ATOM      7  N   UNL     1      -2.427  -0.125  24.282  0.00  0.00    -0.142 NA
ATOM      8  C   UNL     1      -1.734   0.115  24.660  0.00  0.00    +0.425 C 
ATOM      9  O   UNL     1      -1.764   0.694  25.248  0.00  0.00    -0.224 OA
BRANCH   7   6
ATOM      3  C   UNL     1      -4.596   0.891  24.906  0.00  0.00    +0.139 A 
ATOM      4  C   UNL     1      -4.127   1.244  24.325  0.00  0.00    +0.038 A 
ATOM      5  C   UNL     1      -3.404   0.904  24.118  0.00  0.00    +0.020 A 
ATOM      6  C   UNL     1      -3.150   0.214  24.490  0.00  0.00    +0.077 A 
ATOM     28  C   UNL     1      -3.618  -0.138  25.070  0.00  0.00    +0.020 A 
ATOM     29  C   UNL     1      -4.341   0.201  25.279  0.00  0.00    +0.038 A 
BRANCH   3   2
ATOM      1  C   UNL     1      -5.463   2.026  24.948  0.00  0.00    +0.252 C 
ATOM      2  O   UNL     1      -5.318   1.231  25.114  0.00  0.00    -0.471 OA
ENDBRANCH   3   2
ENDBRANCH   7   6
ENDBRANCH  10   8
ENDBRANCH  11  10
BRANCH  15  19
ATOM     19  N   UNL     1       1.938   0.860  22.754  0.00  0.00    -0.074 NA
BRANCH  19  20
ATOM     20  S   UNL     1       2.726   0.637  22.859  0.00  0.00    +0.083 S 
ATOM     21  O   UNL     1       2.656   0.101  22.235  0.00  0.00    -0.151 OA
ATOM     22  O   UNL     1       2.795   1.173  23.482  0.00  0.00    -0.151 OA
BRANCH  20  23
ATOM     23  C   UNL     1       3.513   0.413  22.962  0.00  0.00    +0.153 A 
ATOM     24  C   UNL     1       3.776  -0.280  23.325  0.00  0.00    +0.027 A 
ATOM     25  C   UNL     1       4.601  -0.279  23.309  0.00  0.00    +0.009 A 
ATOM     26  C   UNL     1       4.847   0.414  22.936  0.00  0.00    +0.037 A 
ATOM     27  S   UNL     1       4.175   0.842  22.722  0.00  0.00    -0.067 S 
ENDBRANCH  20  23
ENDBRANCH  19  20
ENDBRANCH  15  19
TORSDOF 7
ENDMDL
MODEL 8
REMARK VINA RESULT:      -6.6     17.636     18.738
REMARK  Name = 
REMARK  7 active torsions:
REMARK  status: ('A' for Active; 'I' for Inactive)
REMARK    1  A    between atoms: O_2  and  C_3
REMARK    2  A    between atoms: C_6  and  N_7
REMARK    3  A    between atoms: C_8  and  O_10
REMARK    4  A    between atoms: O_10  and  C_11
REMARK    5  A    between atoms: C_15  and  N_19
REMARK    6  A    between atoms: N_19  and  S_20
REMARK    7  A    between atoms: S_20  and  C_23
REMARK                            x       y       z     vdW  Elec       q    Type
REMARK                         _______ _______ _______ _____ _____    ______ ____
ROOT
ATOM     11  C   UNL     1      -6.105  -9.203   9.614  0.00  0.00    +0.229 C 
ATOM     12  C   UNL     1      -5.729  -9.125   8.884  0.00  0.00    +0.188 C 
ATOM     13  O   UNL     1      -6.214  -8.672   8.395  0.00  0.00    -0.348 OA
ATOM     14  C   UNL     1      -6.889  -8.470   8.821  0.00  0.00    +0.166 C 
ATOM     15  C   UNL     1      -7.607  -8.065   8.783  0.00  0.00    +0.157 C 
ATOM     16  C   UNL     1      -7.984  -8.143   9.513  0.00  0.00    +0.164 C 
ATOM     17  O   UNL     1      -7.499  -8.596  10.002  0.00  0.00    -0.348 OA
ATOM     18  C   UNL     1      -6.822  -8.798   9.575  0.00  0.00    +0.186 C 
ENDROOT
BRANCH  11  10
ATOM     10  O   UNL     1      -5.815  -9.614  10.268  0.00  0.00    -0.432 OA
BRANCH  10   8
ATOM      7  N   UNL     1      -4.515 -10.159  10.503  0.00  0.00    -0.142 NA
ATOM      8  C   UNL     1      -5.030  -9.516  10.502  0.00  0.00    +0.425 C 
ATOM      9  O   UNL     1      -4.761  -8.771  10.737  0.00  0.00    -0.224 OA
BRANCH   7   6
ATOM      3  C   UNL     1      -2.161  -9.864  11.207  0.00  0.00    +0.139 A 
ATOM      4  C   UNL     1      -2.665 -10.350  11.644  0.00  0.00    +0.038 A 
ATOM      5  C   UNL     1      -3.449 -10.448  11.409  0.00  0.00    +0.020 A 
ATOM      6  C   UNL     1      -3.730 -10.061  10.737  0.00  0.00    +0.077 A 
ATOM     28  C   UNL     1      -3.227  -9.575  10.301  0.00  0.00    +0.020 A 
ATOM     29  C   UNL     1      -2.442  -9.477  10.535  0.00  0.00    +0.038 A 
BRANCH   3   2
ATOM      1  C   UNL     1      -1.184  -9.760  12.245  0.00  0.00    +0.252 C 
ATOM      2  O   UNL     1      -1.376  -9.766  11.442  0.00  0.00    -0.471 OA
ENDBRANCH   3   2
ENDBRANCH   7   6
ENDBRANCH  10   8
ENDBRANCH  11  10
BRANCH  15  19
ATOM     19  N   UNL     1      -7.898  -7.654   8.129  0.00  0.00    -0.074 NA
BRANCH  19  20
ATOM     20  S   UNL     1      -8.432  -7.034   8.235  0.00  0.00    +0.083 S 
ATOM     21  O   UNL     1      -9.060  -7.562   8.154  0.00  0.00    -0.151 OA
ATOM     22  O   UNL     1      -7.803  -6.506   8.316  0.00  0.00    -0.151 OA
BRANCH  20  23
ATOM     23  C   UNL     1      -8.966  -6.414   8.341  0.00  0.00    +0.153 A 
ATOM     24  C   UNL     1      -8.771  -5.620   8.450  0.00  0.00    +0.027 A 
ATOM     25  C   UNL     1      -9.474  -5.194   8.532  0.00  0.00    +0.009 A 
ATOM     26  C   UNL     1     -10.102  -5.726   8.474  0.00  0.00    +0.037 A 
ATOM     27  S   UNL     1      -9.788  -6.480   8.356  0.00  0.00    -0.067 S 
ENDBRANCH  20  23
ENDBRANCH  19  20
ENDBRANCH  15  19
TORSDOF 7
ENDMDL
MODEL 9
REMARK VINA RESULT:      -6.6     14.715     16.485
REMARK  Name = 
REMARK  7 active torsions:
REMARK  status: ('A' for Active; 'I' for Inactive)
REMARK    1  A    between atoms: O_2  and  C_3
REMARK    2  A    between atoms: C_6  and  N_7
REMARK    3  A    between atoms: C_8  and  O_10
REMARK    4  A    between atoms: O_10  and  C_11
REMARK    5  A    between atoms: C_15  and  N_19
REMARK    6  A    between atoms: N_19  and  S_20
REMARK    7  A    between atoms: S_20  and  C_23
REMARK                            x       y       z     vdW  Elec       q    Type
REMARK                         _______ _______ _______ _____ _____    ______ ____
ROOT
ATOM     11  C   UNL     1      -5.687 -10.189  14.504  0.00  0.00    +0.229 C 
ATOM     12  C   UNL     1      -6.406 -10.270  14.109  0.00  0.00    +0.188 C 
ATOM     13  O   UNL     1      -6.244 -10.388  13.309  0.00  0.00    -0.348 OA
ATOM     14  C   UNL     1      -5.426 -10.380  13.209  0.00  0.00    +0.166 C 
ATOM     15  C   UNL     1      -4.820 -10.448  12.654  0.00  0.00    +0.157 C 
ATOM     16  C   UNL     1      -4.100 -10.367  13.050  0.00  0.00    +0.164 C 
ATOM     17  O   UNL     1      -4.262 -10.249  13.850  0.00  0.00    -0.348 OA
ATOM     18  C   UNL     1      -5.082 -10.257  13.949  0.00  0.00    +0.186 C 
ENDROOT
BRANCH  11  10
ATOM     10  O   UNL     1      -5.590 -10.063  15.314  0.00  0.00    -0.432 OA
BRANCH  10   8
ATOM      7  N   UNL     1      -6.342  -9.631  16.450  0.00  0.00    -0.142 NA
ATOM      8  C   UNL     1      -6.231 -10.158  15.826  0.00  0.00    +0.425 C 
ATOM      9  O   UNL     1      -6.760 -10.781  15.713  0.00  0.00    -0.224 OA
BRANCH   7   6
ATOM      3  C   UNL     1      -8.263  -9.915  17.985  0.00  0.00    +0.139 A 
ATOM      4  C   UNL     1      -8.316  -9.391  17.350  0.00  0.00    +0.038 A 
ATOM      5  C   UNL     1      -7.675  -9.296  16.839  0.00  0.00    +0.020 A 
ATOM      6  C   UNL     1      -6.982  -9.726  16.962  0.00  0.00    +0.077 A 
ATOM     28  C   UNL     1      -6.929 -10.250  17.597  0.00  0.00    +0.020 A 
ATOM     29  C   UNL     1      -7.569 -10.345  18.108  0.00  0.00    +0.038 A 
BRANCH   3   2
ATOM      1  C   UNL     1      -9.597 -10.365  18.226  0.00  0.00    +0.252 C 
ATOM      2  O   UNL     1      -8.903 -10.010  18.497  0.00  0.00    -0.471 OA
ENDBRANCH   3   2
ENDBRANCH   7   6
ENDBRANCH  10   8
ENDBRANCH  11  10
BRANCH  15  19
ATOM     19  N   UNL     1      -4.916 -10.574  11.844  0.00  0.00    -0.074 NA
BRANCH  19  20
ATOM     20  S   UNL     1      -4.456 -10.154  11.303  0.00  0.00    +0.083 S 
ATOM     21  O   UNL     1      -3.864 -10.726  11.365  0.00  0.00    -0.151 OA
ATOM     22  O   UNL     1      -5.049  -9.584  11.242  0.00  0.00    -0.151 OA
BRANCH  20  23
ATOM     23  C   UNL     1      -3.995  -9.735  10.762  0.00  0.00    +0.153 A 
ATOM     24  C   UNL     1      -3.195  -9.863  10.606  0.00  0.00    +0.027 A 
ATOM     25  C   UNL     1      -2.958  -9.322  10.030  0.00  0.00    +0.009 A 
ATOM     26  C   UNL     1      -3.613  -8.860   9.830  0.00  0.00    +0.037 A 
ATOM     27  S   UNL     1      -4.253  -9.116  10.283  0.00  0.00    -0.067 S 
ENDBRANCH  20  23
ENDBRANCH  19  20
ENDBRANCH  15  19
TORSDOF 7
ENDMDL
MODEL 10
REMARK VINA RESULT:      -6.3     17.323     18.951
REMARK  Name = 
REMARK  7 active torsions:
REMARK  status: ('A' for Active; 'I' for Inactive)
REMARK    1  A    between atoms: O_2  and  C_3
REMARK    2  A    between atoms: C_6  and  N_7
REMARK    3  A    between atoms: C_8  and  O_10
REMARK    4  A    between atoms: O_10  and  C_11
REMARK    5  A    between atoms: C_15  and  N_19
REMARK    6  A    between atoms: N_19  and  S_20
REMARK    7  A    between atoms: S_20  and  C_23
REMARK                            x       y       z     vdW  Elec       q    Type
REMARK                         _______ _______ _______ _____ _____    ______ ____
ROOT
ATOM     11  C   UNL     1      -5.760  -9.022   9.308  0.00  0.00    +0.229 C 
ATOM     12  C   UNL     1      -6.210  -9.700   9.445  0.00  0.00    +0.188 C 
ATOM     13  O   UNL     1      -5.749 -10.226   9.882  0.00  0.00    -0.348 OA
ATOM     14  C   UNL     1      -5.015  -9.875  10.014  0.00  0.00    +0.166 C 
ATOM     15  C   UNL     1      -4.276  -9.982  10.365  0.00  0.00    +0.157 C 
ATOM     16  C   UNL     1      -3.827  -9.304  10.227  0.00  0.00    +0.164 C 
ATOM     17  O   UNL     1      -4.288  -8.778   9.791  0.00  0.00    -0.348 OA
ATOM     18  C   UNL     1      -5.022  -9.130   9.659  0.00  0.00    +0.186 C 
ENDROOT
BRANCH  11  10
ATOM     10  O   UNL     1      -6.006  -8.354   8.891  0.00  0.00    -0.432 OA
BRANCH  10   8
ATOM      7  N   UNL     1      -7.169  -7.816   8.258  0.00  0.00    -0.142 NA
ATOM      8  C   UNL     1      -6.793  -8.109   8.931  0.00  0.00    +0.425 C 
ATOM      9  O   UNL     1      -7.204  -8.157   9.646  0.00  0.00    -0.224 OA
BRANCH   7   6
ATOM      3  C   UNL     1      -9.530  -7.080   8.378  0.00  0.00    +0.139 A 
ATOM      4  C   UNL     1      -8.921  -6.536   8.500  0.00  0.00    +0.038 A 
ATOM      5  C   UNL     1      -8.135  -6.782   8.460  0.00  0.00    +0.020 A 
ATOM      6  C   UNL     1      -7.956  -7.571   8.298  0.00  0.00    +0.077 A 
ATOM     28  C   UNL     1      -8.564  -8.114   8.177  0.00  0.00    +0.020 A 
ATOM     29  C   UNL     1      -9.351  -7.869   8.217  0.00  0.00    +0.038 A 
BRANCH   3   2
ATOM      1  C   UNL     1     -10.656  -6.659   9.150  0.00  0.00    +0.252 C 
ATOM      2  O   UNL     1     -10.316  -6.834   8.419  0.00  0.00    -0.471 OA
ENDBRANCH   3   2
ENDBRANCH   7   6
ENDBRANCH  10   8
ENDBRANCH  11  10
BRANCH  15  19
ATOM     19  N   UNL     1      -4.030 -10.651  10.782  0.00  0.00    -0.074 NA
BRANCH  19  20
ATOM     20  S   UNL     1      -3.462 -10.581  11.376  0.00  0.00    +0.083 S 
ATOM     21  O   UNL     1      -2.865 -10.684  10.816  0.00  0.00    -0.151 OA
ATOM     22  O   UNL     1      -4.060 -10.478  11.935  0.00  0.00    -0.151 OA
BRANCH  20  23
ATOM     23  C   UNL     1      -2.893 -10.512  11.969  0.00  0.00    +0.153 A 
ATOM     24  C   UNL     1      -2.077 -10.469  11.855  0.00  0.00    +0.027 A 
ATOM     25  C   UNL     1      -1.719 -10.404  12.596  0.00  0.00    +0.009 A 
ATOM     26  C   UNL     1      -2.315 -10.407  13.167  0.00  0.00    +0.037 A 
ATOM     27  S   UNL     1      -3.040 -10.474  12.780  0.00  0.00    -0.067 S 
ENDBRANCH  20  23
ENDBRANCH  19  20
ENDBRANCH  15  19
TORSDOF 7
ENDMDL
