MODEL 1
REMARK VINA RESULT:     -12.2      0.000      0.000
REMARK  Name = 
REMARK  7 active torsions:
REMARK  status: ('A' for Active; 'I' for Inactive)
REMARK    1  A    between atoms: C_4  and  C_27
REMARK    2  A    between atoms: C_6  and  C_7
REMARK    3  A    between atoms: C_14  and  C_15
REMARK    4  A    between atoms: C_15  and  N_16
REMARK    5  A    between atoms: C_17  and  C_19
REMARK    6  A    between atoms: C_19  and  O_20
REMARK    7  A    between atoms: O_20  and  C_21
REMARK                            x       y       z     vdW  Elec       q    Type
REMARK                         _______ _______ _______ _____ _____    ______ ____
ROOT
ATOM      7  C   UNL     1      -0.998   0.204  24.160  0.00  0.00    +0.056 C 
ATOM      8  C   UNL     1      -0.803  -0.462  23.808  0.00  0.00    +0.078 C 
ATOM      9  N   UNL     1      -0.367   0.238  23.801  0.00  0.00    -0.272 NA
ATOM     10  C   UNL     1      -0.902   0.941  24.366  0.00  0.00    +0.072 C 
ATOM     11  C   UNL     1      -0.962   1.542  24.615  0.00  0.00    +0.018 C 
ATOM     12  C   UNL     1      -0.564   0.887  24.148  0.00  0.00    +0.010 C 
ATOM     13  C   UNL     1       0.201   1.092  23.771  0.00  0.00    +0.018 C 
ATOM     14  C   UNL     1       0.428   0.459  23.412  0.00  0.00    +0.079 C 
ENDROOT
BRANCH   7   6
ATOM      1  C   UNL     1      -1.352  -0.727  25.653  0.00  0.00    +0.153 C 
ATOM      2  N   UNL     1      -1.871  -0.214  25.267  0.00  0.00    -0.253 N 
ATOM      3  N   UNL     1      -2.642  -0.039  25.499  0.00  0.00    -0.170 NA
ATOM      4  C   UNL     1      -2.957   0.496  24.957  0.00  0.00    +0.102 A 
ATOM      5  C   UNL     1      -2.379   0.652  24.390  0.00  0.00    +0.035 A 
ATOM      6  C   UNL     1      -1.708   0.213  24.581  0.00  0.00    +0.058 A 
BRANCH   4  27
ATOM     27  C   UNL     1      -3.716   0.819  24.979  0.00  0.00    +0.019 A 
ATOM     28  C   UNL     1      -3.823   1.606  25.204  0.00  0.00    +0.002 A 
ATOM     29  C   UNL     1      -4.583   1.929  25.226  0.00  0.00    +0.000 A 
ATOM     30  C   UNL     1      -5.234   1.465  25.022  0.00  0.00    +0.000 A 
ATOM     31  C   UNL     1      -5.993   1.787  25.043  0.00  0.00    +0.000 A 
ATOM     32  C   UNL     1      -6.100   2.574  25.269  0.00  0.00    +0.000 A 
ATOM     33  C   UNL     1      -5.449   3.037  25.472  0.00  0.00    +0.000 A 
ATOM     34  C   UNL     1      -4.690   2.714  25.451  0.00  0.00    +0.000 A 
ATOM     35  C   UNL     1      -5.127   0.678  24.796  0.00  0.00    +0.000 A 
ATOM     36  C   UNL     1      -4.367   0.355  24.775  0.00  0.00    +0.002 A 
ENDBRANCH   4  27
ENDBRANCH   7   6
BRANCH  14  15
ATOM     15  C   UNL     1       1.036   0.153  22.946  0.00  0.00    +0.131 C 
BRANCH  15  16
ATOM     16  N   UNL     1       1.823   0.322  23.131  0.00  0.00    -0.201 NA
ATOM     17  C   UNL     1       2.419   0.159  22.584  0.00  0.00    +0.286 C 
ATOM     18  O   UNL     1       2.229  -0.171  21.853  0.00  0.00    -0.269 OA
BRANCH  17  19
ATOM     19  C   UNL     1       3.205   0.328  22.769  0.00  0.00    +0.291 C 
BRANCH  19  20
ATOM     20  O   UNL     1       3.761  -0.280  22.799  0.00  0.00    -0.466 OA
BRANCH  20  21
ATOM     21  C   UNL     1       4.451  -0.187  23.242  0.00  0.00    +0.139 A 
ATOM     22  C   UNL     1       4.881   0.515  23.193  0.00  0.00    +0.037 A 
ATOM     23  C   UNL     1       5.571   0.609  23.636  0.00  0.00    +0.003 A 
ATOM     24  C   UNL     1       5.831   0.000  24.128  0.00  0.00    +0.000 A 
ATOM     25  C   UNL     1       5.400  -0.703  24.177  0.00  0.00    +0.003 A 
ATOM     26  C   UNL     1       4.711  -0.796  23.734  0.00  0.00    +0.037 A 
ENDBRANCH  20  21
ENDBRANCH  19  20
ENDBRANCH  17  19
ENDBRANCH  15  16
ENDBRANCH  14  15
TORSDOF 7
ENDMDL
