MODEL 1
REMARK VINA RESULT:      -9.5      0.000      0.000
REMARK  Name = 
REMARK  8 active torsions:
REMARK  status: ('A' for Active; 'I' for Inactive)
REMARK    1  A    between atoms: C_2  and  O_17
REMARK    2  A    between atoms: N_3  and  C_4
REMARK    3  A    between atoms: C_7  and  O_8
REMARK    4  A    between atoms: O_8  and  C_9
REMARK    5  A    between atoms: O_17  and  C_18
REMARK    6  A    between atoms: C_22  and  N_26
REMARK    7  A    between atoms: C_30  and  S_31
REMARK    8  A    between atoms: S_31  and  C_32
REMARK                            x       y       z     vdW  Elec       q    Type
REMARK                         _______ _______ _______ _____ _____    ______ ____
ROOT
ATOM     18  C   UNL     1      -0.683   0.574  24.015  0.00  0.00    +0.229 C 
ATOM     19  C   UNL     1      -0.569   0.603  24.831  0.00  0.00    +0.188 C 
ATOM     20  O   UNL     1      -1.056   1.196  25.134  0.00  0.00    -0.348 OA
ATOM     21  C   UNL     1      -1.471   1.533  24.506  0.00  0.00    +0.171 C 
ATOM     22  C   UNL     1      -2.028   2.107  24.304  0.00  0.00    +0.168 C 
ATOM     23  C   UNL     1      -2.141   2.077  23.488  0.00  0.00    +0.169 C 
ATOM     24  O   UNL     1      -1.654   1.485  23.185  0.00  0.00    -0.348 OA
ATOM     25  C   UNL     1      -1.240   1.148  23.814  0.00  0.00    +0.187 C 
ENDROOT
BRANCH  22  26
ATOM     26  N   UNL     1      -2.405   2.621  24.828  0.00  0.00    -0.205 N 
ATOM     27  N   UNL     1      -2.036   3.178  25.312  0.00  0.00    -0.042 NA
ATOM     28  N   UNL     1      -2.621   3.569  25.742  0.00  0.00    -0.022 NA
ATOM     29  N   UNL     1      -3.351   3.254  25.525  0.00  0.00    -0.101 NA
ATOM     30  C   UNL     1      -3.218   2.667  24.960  0.00  0.00    +0.211 A 
BRANCH  30  31
ATOM     31  S   UNL     1      -3.796   2.208  24.592  0.00  0.00    -0.075 S 
BRANCH  31  32
ATOM     32  C   UNL     1      -4.557   2.170  24.911  0.00  0.00    +0.055 C 
ATOM     33  C   UNL     1      -5.127   2.765  24.879  0.00  0.00    +0.011 C 
ATOM     34  C   UNL     1      -5.803   2.492  25.266  0.00  0.00    +0.001 C 
ATOM     35  C   UNL     1      -5.650   1.727  25.536  0.00  0.00    +0.001 C 
ATOM     36  C   UNL     1      -4.880   1.528  25.316  0.00  0.00    +0.011 C 
ENDBRANCH  31  32
ENDBRANCH  30  31
ENDBRANCH  22  26
BRANCH  18  17
ATOM     17  O   UNL     1      -0.305   0.060  23.491  0.00  0.00    -0.432 OA
BRANCH  17   2
ATOM      1  O   UNL     1       0.977  -0.264  24.033  0.00  0.00    -0.224 OA
ATOM      2  C   UNL     1       0.518   0.064  23.430  0.00  0.00    +0.425 C 
ATOM      3  N   UNL     1       0.881   0.394  22.767  0.00  0.00    -0.142 NA
BRANCH   3   4
ATOM      4  C   UNL     1       1.704   0.397  22.706  0.00  0.00    +0.077 A 
ATOM      5  C   UNL     1       2.089  -0.198  22.286  0.00  0.00    +0.020 A 
ATOM      6  C   UNL     1       2.912  -0.195  22.225  0.00  0.00    +0.039 A 
ATOM      7  C   UNL     1       3.349   0.406  22.584  0.00  0.00    +0.145 A 
ATOM     15  C   UNL     1       2.964   1.002  23.005  0.00  0.00    +0.039 A 
ATOM     16  C   UNL     1       2.141   0.998  23.065  0.00  0.00    +0.020 A 
BRANCH   7   8
ATOM      8  O   UNL     1       4.172   0.410  22.524  0.00  0.00    -0.453 OA
BRANCH   8   9
ATOM      9  C   UNL     1       4.633   0.129  23.147  0.00  0.00    +0.145 A 
ATOM     10  C   UNL     1       5.116   0.649  23.569  0.00  0.00    +0.037 A 
ATOM     11  C   UNL     1       5.578   0.368  24.192  0.00  0.00    +0.003 A 
ATOM     12  C   UNL     1       5.556  -0.432  24.394  0.00  0.00    +0.000 A 
ATOM     13  C   UNL     1       5.074  -0.952  23.972  0.00  0.00    +0.003 A 
ATOM     14  C   UNL     1       4.612  -0.670  23.348  0.00  0.00    +0.037 A 
ENDBRANCH   8   9
ENDBRANCH   7   8
ENDBRANCH   3   4
ENDBRANCH  17   2
ENDBRANCH  18  17
TORSDOF 8
ENDMDL
MODEL 2
REMARK VINA RESULT:      -9.1      3.033      4.753
REMARK  Name = 
REMARK  8 active torsions:
REMARK  status: ('A' for Active; 'I' for Inactive)
REMARK    1  A    between atoms: C_2  and  O_17
REMARK    2  A    between atoms: N_3  and  C_4
REMARK    3  A    between atoms: C_7  and  O_8
REMARK    4  A    between atoms: O_8  and  C_9
REMARK    5  A    between atoms: O_17  and  C_18
REMARK    6  A    between atoms: C_22  and  N_26
REMARK    7  A    between atoms: C_30  and  S_31
REMARK    8  A    between atoms: S_31  and  C_32
REMARK                            x       y       z     vdW  Elec       q    Type
REMARK                         _______ _______ _______ _____ _____    ______ ____
ROOT
ATOM     18  C   UNL     1      -0.069   1.854  24.281  0.00  0.00    +0.229 C 
ATOM     19  C   UNL     1      -0.306   2.246  23.595  0.00  0.00    +0.188 C 
ATOM     20  O   UNL     1      -0.628   2.973  23.816  0.00  0.00    -0.348 OA
ATOM     21  C   UNL     1      -0.591   3.030  24.637  0.00  0.00    +0.171 C 
ATOM     22  C   UNL     1      -0.767   3.514  25.282  0.00  0.00    +0.168 C 
ATOM     23  C   UNL     1      -0.530   3.122  25.968  0.00  0.00    +0.169 C 
ATOM     24  O   UNL     1      -0.208   2.396  25.747  0.00  0.00    -0.348 OA
ATOM     25  C   UNL     1      -0.246   2.339  24.925  0.00  0.00    +0.187 C 
ENDROOT
BRANCH  22  26
ATOM     26  N   UNL     1      -1.118   4.260  25.246  0.00  0.00    -0.205 N 
ATOM     27  N   UNL     1      -0.759   4.953  24.977  0.00  0.00    -0.042 NA
ATOM     28  N   UNL     1      -1.309   5.565  25.038  0.00  0.00    -0.022 NA
ATOM     29  N   UNL     1      -2.007   5.251  25.344  0.00  0.00    -0.101 NA
ATOM     30  C   UNL     1      -1.889   4.444  25.472  0.00  0.00    +0.211 A 
BRANCH  30  31
ATOM     31  S   UNL     1      -2.445   3.915  25.775  0.00  0.00    -0.075 S 
BRANCH  31  32
ATOM     32  C   UNL     1      -3.243   3.997  25.578  0.00  0.00    +0.055 C 
ATOM     33  C   UNL     1      -3.578   3.849  24.839  0.00  0.00    +0.011 C 
ATOM     34  C   UNL     1      -4.387   4.003  24.891  0.00  0.00    +0.001 C 
ATOM     35  C   UNL     1      -4.551   4.246  25.662  0.00  0.00    +0.001 C 
ATOM     36  C   UNL     1      -3.844   4.243  26.087  0.00  0.00    +0.011 C 
ENDBRANCH  31  32
ENDBRANCH  30  31
ENDBRANCH  22  26
BRANCH  18  17
ATOM     17  O   UNL     1       0.282   1.108  24.317  0.00  0.00    -0.432 OA
BRANCH  17   2
ATOM      1  O   UNL     1      -0.677   0.287  23.647  0.00  0.00    -0.224 OA
ATOM      2  C   UNL     1      -0.187   0.430  24.296  0.00  0.00    +0.425 C 
ATOM      3  N   UNL     1      -0.167  -0.105  24.923  0.00  0.00    -0.142 NA
BRANCH   3   4
ATOM      4  C   UNL     1      -0.636  -0.784  24.902  0.00  0.00    +0.077 A 
ATOM      5  C   UNL     1      -0.496  -1.366  24.335  0.00  0.00    +0.020 A 
ATOM      6  C   UNL     1      -0.965  -2.044  24.315  0.00  0.00    +0.039 A 
ATOM      7  C   UNL     1      -1.574  -2.141  24.862  0.00  0.00    +0.145 A 
ATOM     15  C   UNL     1      -1.715  -1.558  25.430  0.00  0.00    +0.039 A 
ATOM     16  C   UNL     1      -1.245  -0.880  25.450  0.00  0.00    +0.020 A 
BRANCH   7   8
ATOM      8  O   UNL     1      -2.044  -2.819  24.842  0.00  0.00    -0.453 OA
BRANCH   8   9
ATOM      9  C   UNL     1      -2.816  -2.778  24.555  0.00  0.00    +0.145 A 
ATOM     10  C   UNL     1      -3.413  -2.452  25.022  0.00  0.00    +0.037 A 
ATOM     11  C   UNL     1      -4.185  -2.411  24.735  0.00  0.00    +0.003 A 
ATOM     12  C   UNL     1      -4.360  -2.697  23.981  0.00  0.00    +0.000 A 
ATOM     13  C   UNL     1      -3.764  -3.023  23.514  0.00  0.00    +0.003 A 
ATOM     14  C   UNL     1      -2.991  -3.063  23.802  0.00  0.00    +0.037 A 
ENDBRANCH   8   9
ENDBRANCH   7   8
ENDBRANCH   3   4
ENDBRANCH  17   2
ENDBRANCH  18  17
TORSDOF 8
ENDMDL
MODEL 3
REMARK VINA RESULT:      -8.3      1.852      7.529
REMARK  Name = 
REMARK  8 active torsions:
REMARK  status: ('A' for Active; 'I' for Inactive)
REMARK    1  A    between atoms: C_2  and  O_17
REMARK    2  A    between atoms: N_3  and  C_4
REMARK    3  A    between atoms: C_7  and  O_8
REMARK    4  A    between atoms: O_8  and  C_9
REMARK    5  A    between atoms: O_17  and  C_18
REMARK    6  A    between atoms: C_22  and  N_26
REMARK    7  A    between atoms: C_30  and  S_31
REMARK    8  A    between atoms: S_31  and  C_32
REMARK                            x       y       z     vdW  Elec       q    Type
REMARK                         _______ _______ _______ _____ _____    ______ ____
ROOT
ATOM     18  C   UNL     1      -0.112  -0.233  24.323  0.00  0.00    +0.229 C 
ATOM     19  C   UNL     1      -0.077  -0.949  23.915  0.00  0.00    +0.188 C 
ATOM     20  O   UNL     1       0.525  -0.892  23.354  0.00  0.00    -0.348 OA
ATOM     21  C   UNL     1       0.863  -0.143  23.416  0.00  0.00    +0.171 C 
ATOM     22  C   UNL     1       1.444   0.356  23.108  0.00  0.00    +0.168 C 
ATOM     23  C   UNL     1       1.409   1.071  23.517  0.00  0.00    +0.169 C 
ATOM     24  O   UNL     1       0.807   1.015  24.078  0.00  0.00    -0.348 OA
ATOM     25  C   UNL     1       0.469   0.264  24.015  0.00  0.00    +0.187 C 
ENDROOT
BRANCH  22  26
ATOM     26  N   UNL     1       1.968   0.171  22.498  0.00  0.00    -0.205 N 
ATOM     27  N   UNL     1       1.761  -0.106  21.748  0.00  0.00    -0.042 NA
ATOM     28  N   UNL     1       2.456  -0.218  21.318  0.00  0.00    -0.022 NA
ATOM     29  N   UNL     1       3.091  -0.011  21.801  0.00  0.00    -0.101 NA
ATOM     30  C   UNL     1       2.789   0.229  22.530  0.00  0.00    +0.211 A 
BRANCH  30  31
ATOM     31  S   UNL     1       3.233   0.484  23.178  0.00  0.00    -0.075 S 
BRANCH  31  32
ATOM     32  C   UNL     1       4.030   0.280  23.238  0.00  0.00    +0.055 C 
ATOM     33  C   UNL     1       4.668   0.747  23.003  0.00  0.00    +0.011 C 
ATOM     34  C   UNL     1       5.362   0.330  23.163  0.00  0.00    +0.001 C 
ATOM     35  C   UNL     1       5.152  -0.395  23.497  0.00  0.00    +0.001 C 
ATOM     36  C   UNL     1       4.329  -0.425  23.544  0.00  0.00    +0.011 C 
ENDBRANCH  31  32
ENDBRANCH  30  31
ENDBRANCH  22  26
BRANCH  18  17
ATOM     17  O   UNL     1      -0.636  -0.048  24.934  0.00  0.00    -0.432 OA
BRANCH  17   2
ATOM      1  O   UNL     1      -1.852  -0.332  24.239  0.00  0.00    -0.224 OA
ATOM      2  C   UNL     1      -1.420   0.140  24.761  0.00  0.00    +0.425 C 
ATOM      3  N   UNL     1      -1.773   0.798  25.110  0.00  0.00    -0.142 NA
BRANCH   3   4
ATOM      4  C   UNL     1      -2.558   0.986  24.938  0.00  0.00    +0.077 A 
ATOM      5  C   UNL     1      -3.168   0.511  25.223  0.00  0.00    +0.020 A 
ATOM      6  C   UNL     1      -3.953   0.699  25.050  0.00  0.00    +0.039 A 
ATOM      7  C   UNL     1      -4.127   1.363  24.593  0.00  0.00    +0.145 A 
ATOM     15  C   UNL     1      -3.516   1.839  24.308  0.00  0.00    +0.039 A 
ATOM     16  C   UNL     1      -2.731   1.651  24.480  0.00  0.00    +0.020 A 
BRANCH   7   8
ATOM      8  O   UNL     1      -4.911   1.552  24.420  0.00  0.00    -0.453 OA
BRANCH   8   9
ATOM      9  C   UNL     1      -5.352   2.009  24.947  0.00  0.00    +0.145 A 
ATOM     10  C   UNL     1      -5.904   1.648  25.443  0.00  0.00    +0.037 A 
ATOM     11  C   UNL     1      -6.344   2.104  25.970  0.00  0.00    +0.003 A 
ATOM     12  C   UNL     1      -6.233   2.921  26.002  0.00  0.00    +0.000 A 
ATOM     13  C   UNL     1      -5.681   3.282  25.506  0.00  0.00    +0.003 A 
ATOM     14  C   UNL     1      -5.240   2.825  24.979  0.00  0.00    +0.037 A 
ENDBRANCH   8   9
ENDBRANCH   7   8
ENDBRANCH   3   4
ENDBRANCH  17   2
ENDBRANCH  18  17
TORSDOF 8
ENDMDL
MODEL 4
REMARK VINA RESULT:      -8.3      1.986      2.336
REMARK  Name = 
REMARK  8 active torsions:
REMARK  status: ('A' for Active; 'I' for Inactive)
REMARK    1  A    between atoms: C_2  and  O_17
REMARK    2  A    between atoms: N_3  and  C_4
REMARK    3  A    between atoms: C_7  and  O_8
REMARK    4  A    between atoms: O_8  and  C_9
REMARK    5  A    between atoms: O_17  and  C_18
REMARK    6  A    between atoms: C_22  and  N_26
REMARK    7  A    between atoms: C_30  and  S_31
REMARK    8  A    between atoms: S_31  and  C_32
REMARK                            x       y       z     vdW  Elec       q    Type
REMARK                         _______ _______ _______ _____ _____    ______ ____
ROOT
ATOM     18  C   UNL     1      -0.718   1.585  24.521  0.00  0.00    +0.229 C 
ATOM     19  C   UNL     1      -0.698   1.255  25.277  0.00  0.00    +0.188 C 
ATOM     20  O   UNL     1      -1.445   0.943  25.437  0.00  0.00    -0.348 OA
ATOM     21  C   UNL     1      -1.925   1.080  24.782  0.00  0.00    +0.171 C 
ATOM     22  C   UNL     1      -2.684   0.973  24.474  0.00  0.00    +0.168 C 
ATOM     23  C   UNL     1      -2.703   1.303  23.719  0.00  0.00    +0.169 C 
ATOM     24  O   UNL     1      -1.956   1.615  23.558  0.00  0.00    -0.348 OA
ATOM     25  C   UNL     1      -1.476   1.477  24.215  0.00  0.00    +0.187 C 
ENDROOT
BRANCH  22  26
ATOM     26  N   UNL     1      -3.313   0.600  24.857  0.00  0.00    -0.205 N 
ATOM     27  N   UNL     1      -3.797   0.936  25.434  0.00  0.00    -0.042 NA
ATOM     28  N   UNL     1      -4.352   0.370  25.663  0.00  0.00    -0.022 NA
ATOM     29  N   UNL     1      -4.210  -0.316  25.227  0.00  0.00    -0.101 NA
ATOM     30  C   UNL     1      -3.568  -0.173  24.729  0.00  0.00    +0.211 A 
BRANCH  30  31
ATOM     31  S   UNL     1      -3.239  -0.711  24.196  0.00  0.00    -0.075 S 
BRANCH  31  32
ATOM     32  C   UNL     1      -3.487  -1.499  24.198  0.00  0.00    +0.055 C 
ATOM     33  C   UNL     1      -4.128  -1.806  23.780  0.00  0.00    +0.011 C 
ATOM     34  C   UNL     1      -4.174  -2.614  23.943  0.00  0.00    +0.001 C 
ATOM     35  C   UNL     1      -3.561  -2.804  24.462  0.00  0.00    +0.001 C 
ATOM     36  C   UNL     1      -3.137  -2.115  24.620  0.00  0.00    +0.011 C 
ENDBRANCH  31  32
ENDBRANCH  30  31
ENDBRANCH  22  26
BRANCH  18  17
ATOM     17  O   UNL     1      -0.088   1.958  24.139  0.00  0.00    -0.432 OA
BRANCH  17   2
ATOM      1  O   UNL     1       1.106   1.337  24.619  0.00  0.00    -0.224 OA
ATOM      2  C   UNL     1       0.610   1.543  23.992  0.00  0.00    +0.425 C 
ATOM      3  N   UNL     1       0.811   1.334  23.221  0.00  0.00    -0.142 NA
BRANCH   3   4
ATOM      4  C   UNL     1       1.510   0.919  23.074  0.00  0.00    +0.077 A 
ATOM      5  C   UNL     1       2.226   1.323  23.018  0.00  0.00    +0.020 A 
ATOM      6  C   UNL     1       2.924   0.909  22.872  0.00  0.00    +0.039 A 
ATOM      7  C   UNL     1       2.905   0.089  22.781  0.00  0.00    +0.145 A 
ATOM     15  C   UNL     1       2.188  -0.316  22.837  0.00  0.00    +0.039 A 
ATOM     16  C   UNL     1       1.491   0.099  22.983  0.00  0.00    +0.020 A 
BRANCH   7   8
ATOM      8  O   UNL     1       3.603  -0.327  22.634  0.00  0.00    -0.453 OA
BRANCH   8   9
ATOM      9  C   UNL     1       4.241  -0.258  23.152  0.00  0.00    +0.145 A 
ATOM     10  C   UNL     1       4.725   0.410  23.124  0.00  0.00    +0.037 A 
ATOM     11  C   UNL     1       5.363   0.478  23.642  0.00  0.00    +0.003 A 
ATOM     12  C   UNL     1       5.517  -0.120  24.188  0.00  0.00    +0.000 A 
ATOM     13  C   UNL     1       5.033  -0.788  24.217  0.00  0.00    +0.003 A 
ATOM     14  C   UNL     1       4.395  -0.856  23.698  0.00  0.00    +0.037 A 
ENDBRANCH   8   9
ENDBRANCH   7   8
ENDBRANCH   3   4
ENDBRANCH  17   2
ENDBRANCH  18  17
TORSDOF 8
ENDMDL
