MODEL 1
REMARK VINA RESULT:      -9.7      0.000      0.000
REMARK  Name = 
REMARK  6 active torsions:
REMARK  status: ('A' for Active; 'I' for Inactive)
REMARK    1  A    between atoms: C_4  and  C_7
REMARK    2  A    between atoms: N_9  and  C_10
REMARK    3  A    between atoms: C_13  and  C_16
REMARK    4  A    between atoms: N_21  and  C_22
REMARK    5  A    between atoms: C_22  and  C_23
REMARK    6  A    between atoms: C_29  and  C_30
REMARK                            x       y       z     vdW  Elec       q    Type
REMARK                         _______ _______ _______ _____ _____    ______ ____
ROOT
ATOM     16  C   UNL     1      -1.218  -0.421  24.682  0.00  0.00    +0.159 C 
ATOM     17  O   UNL     1      -0.625  -0.925  24.408  0.00  0.00    -0.341 OA
ATOM     18  C   UNL     1      -0.743  -1.742  24.416  0.00  0.00    +0.227 C 
ATOM     19  C   UNL     1      -1.453  -2.054  24.697  0.00  0.00    +0.256 C 
ATOM     20  O   UNL     1      -1.570  -2.871  24.705  0.00  0.00    -0.272 OA
ATOM     21  N   UNL     1      -2.045  -1.550  24.971  0.00  0.00    -0.270 N 
ATOM     29  C   UNL     1      -1.928  -0.733  24.963  0.00  0.00    +0.140 C 
ENDROOT
BRANCH  16  13
ATOM     10  C   UNL     1      -0.867   2.029  24.658  0.00  0.00    +0.074 A 
ATOM     11  C   UNL     1      -1.238   1.659  24.021  0.00  0.00    +0.016 A 
ATOM     12  C   UNL     1      -1.354   0.843  24.029  0.00  0.00    -0.001 A 
ATOM     13  C   UNL     1      -1.101   0.395  24.674  0.00  0.00    +0.006 A 
ATOM     14  C   UNL     1      -0.730   0.766  25.312  0.00  0.00    -0.001 A 
ATOM     15  C   UNL     1      -0.613   1.582  25.304  0.00  0.00    +0.016 A 
BRANCH  10   9
ATOM      7  C   UNL     1      -1.312   3.346  24.990  0.00  0.00    +0.290 C 
ATOM      8  O   UNL     1      -1.991   3.029  25.336  0.00  0.00    -0.266 OA
ATOM      9  N   UNL     1      -0.750   2.845  24.651  0.00  0.00    -0.174 NA
BRANCH   7   4
ATOM      1  C   UNL     1      -1.796   6.207  25.097  0.00  0.00    +0.075 C 
ATOM      2  C   UNL     1      -1.417   5.478  25.031  0.00  0.00    +0.155 A 
ATOM      3  C   UNL     1      -1.778   4.738  25.076  0.00  0.00    +0.063 A 
ATOM      4  C   UNL     1      -1.194   4.163  24.982  0.00  0.00    +0.178 A 
ATOM      5  N   UNL     1      -0.472   4.548  24.878  0.00  0.00    -0.073 NA
ATOM      6  O   UNL     1      -0.610   5.360  24.908  0.00  0.00    -0.358 OA
ENDBRANCH   7   4
ENDBRANCH  10   9
ENDBRANCH  16  13
BRANCH  29  30
ATOM     30  C   UNL     1      -2.520  -0.229  25.237  0.00  0.00    +0.205 C 
ATOM     31  O   UNL     1      -2.719  -0.221  26.037  0.00  0.00    -0.218 OA
ENDBRANCH  29  30
BRANCH  21  22
ATOM     22  C   UNL     1      -2.755  -1.862  25.252  0.00  0.00    +0.122 C 
BRANCH  22  23
ATOM     23  C   UNL     1      -3.323  -2.138  24.722  0.00  0.00    +0.017 A 
ATOM     24  C   UNL     1      -3.808  -1.604  24.321  0.00  0.00    +0.001 A 
ATOM     25  C   UNL     1      -4.375  -1.880  23.791  0.00  0.00    +0.020 A 
ATOM     26  C   UNL     1      -4.460  -2.690  23.661  0.00  0.00    +0.099 A 
ATOM     27  N   UNL     1      -3.976  -3.225  24.062  0.00  0.00    -0.243 NA
ATOM     28  C   UNL     1      -3.407  -2.948  24.593  0.00  0.00    +0.096 A 
ENDBRANCH  22  23
ENDBRANCH  21  22
TORSDOF 6
ENDMDL
MODEL 2
REMARK VINA RESULT:      -9.3      3.031      4.836
REMARK  Name = 
REMARK  6 active torsions:
REMARK  status: ('A' for Active; 'I' for Inactive)
REMARK    1  A    between atoms: C_4  and  C_7
REMARK    2  A    between atoms: N_9  and  C_10
REMARK    3  A    between atoms: C_13  and  C_16
REMARK    4  A    between atoms: N_21  and  C_22
REMARK    5  A    between atoms: C_22  and  C_23
REMARK    6  A    between atoms: C_29  and  C_30
REMARK                            x       y       z     vdW  Elec       q    Type
REMARK                         _______ _______ _______ _____ _____    ______ ____
ROOT
ATOM     16  C   UNL     1      -2.071   3.048  25.259  0.00  0.00    +0.159 C 
ATOM     17  O   UNL     1      -2.002   3.548  25.910  0.00  0.00    -0.341 OA
ATOM     18  C   UNL     1      -2.665   3.952  26.192  0.00  0.00    +0.227 C 
ATOM     19  C   UNL     1      -3.395   3.854  25.822  0.00  0.00    +0.256 C 
ATOM     20  O   UNL     1      -4.058   4.258  26.104  0.00  0.00    -0.272 OA
ATOM     21  N   UNL     1      -3.464   3.354  25.170  0.00  0.00    -0.270 N 
ATOM     29  C   UNL     1      -2.802   2.950  24.888  0.00  0.00    +0.140 C 
ENDROOT
BRANCH  16  13
ATOM     10  C   UNL     1      -0.085   1.838  24.412  0.00  0.00    +0.074 A 
ATOM     11  C   UNL     1      -0.245   2.603  24.148  0.00  0.00    +0.016 A 
ATOM     12  C   UNL     1      -0.907   3.006  24.431  0.00  0.00    -0.001 A 
ATOM     13  C   UNL     1      -1.409   2.645  24.977  0.00  0.00    +0.006 A 
ATOM     14  C   UNL     1      -1.248   1.879  25.240  0.00  0.00    -0.001 A 
ATOM     15  C   UNL     1      -0.587   1.476  24.958  0.00  0.00    +0.016 A 
BRANCH  10   9
ATOM      7  C   UNL     1       0.502   0.908  23.499  0.00  0.00    +0.290 C 
ATOM      8  O   UNL     1      -0.236   0.786  23.150  0.00  0.00    -0.266 OA
ATOM      9  N   UNL     1       0.577   1.435  24.130  0.00  0.00    -0.174 NA
BRANCH   7   4
ATOM      1  C   UNL     1       3.209   0.305  22.639  0.00  0.00    +0.075 C 
ATOM      2  C   UNL     1       2.408   0.228  22.822  0.00  0.00    +0.155 A 
ATOM      3  C   UNL     1       1.918   0.823  23.113  0.00  0.00    +0.063 A 
ATOM      4  C   UNL     1       1.165   0.505  23.217  0.00  0.00    +0.178 A 
ATOM      5  N   UNL     1       1.189  -0.288  22.989  0.00  0.00    -0.073 NA
ATOM      6  O   UNL     1       1.957  -0.459  22.745  0.00  0.00    -0.358 OA
ENDBRANCH   7   4
ENDBRANCH  10   9
ENDBRANCH  16  13
BRANCH  29  30
ATOM     30  C   UNL     1      -2.871   2.450  24.236  0.00  0.00    +0.205 C 
ATOM     31  O   UNL     1      -3.009   2.765  23.487  0.00  0.00    -0.218 OA
ENDBRANCH  29  30
BRANCH  21  22
ATOM     22  C   UNL     1      -4.195   3.256  24.799  0.00  0.00    +0.122 C 
BRANCH  22  23
ATOM     23  C   UNL     1      -4.787   2.814  25.165  0.00  0.00    +0.017 A 
ATOM     24  C   UNL     1      -4.875   2.013  24.986  0.00  0.00    +0.001 A 
ATOM     25  C   UNL     1      -5.467   1.571  25.352  0.00  0.00    +0.020 A 
ATOM     26  C   UNL     1      -5.971   1.929  25.897  0.00  0.00    +0.099 A 
ATOM     27  N   UNL     1      -5.884   2.729  26.077  0.00  0.00    -0.243 NA
ATOM     28  C   UNL     1      -5.292   3.172  25.711  0.00  0.00    +0.096 A 
ENDBRANCH  22  23
ENDBRANCH  21  22
TORSDOF 6
ENDMDL
MODEL 3
REMARK VINA RESULT:      -9.2      2.831      4.297
REMARK  Name = 
REMARK  6 active torsions:
REMARK  status: ('A' for Active; 'I' for Inactive)
REMARK    1  A    between atoms: C_4  and  C_7
REMARK    2  A    between atoms: N_9  and  C_10
REMARK    3  A    between atoms: C_13  and  C_16
REMARK    4  A    between atoms: N_21  and  C_22
REMARK    5  A    between atoms: C_22  and  C_23
REMARK    6  A    between atoms: C_29  and  C_30
REMARK                            x       y       z     vdW  Elec       q    Type
REMARK                         _______ _______ _______ _____ _____    ______ ____
ROOT
ATOM     16  C   UNL     1      -2.476  -0.021  24.838  0.00  0.00    +0.159 C 
ATOM     17  O   UNL     1      -2.731  -0.526  25.438  0.00  0.00    -0.341 OA
ATOM     18  C   UNL     1      -3.517  -0.506  25.688  0.00  0.00    +0.227 C 
ATOM     19  C   UNL     1      -4.048   0.020  25.338  0.00  0.00    +0.256 C 
ATOM     20  O   UNL     1      -4.834   0.040  25.589  0.00  0.00    -0.272 OA
ATOM     21  N   UNL     1      -3.793   0.525  24.738  0.00  0.00    -0.270 N 
ATOM     29  C   UNL     1      -3.007   0.505  24.488  0.00  0.00    +0.140 C 
ENDROOT
BRANCH  16  13
ATOM     10  C   UNL     1      -0.119  -0.082  24.086  0.00  0.00    +0.074 A 
ATOM     11  C   UNL     1      -0.631  -0.697  23.888  0.00  0.00    +0.016 A 
ATOM     12  C   UNL     1      -1.417  -0.677  24.139  0.00  0.00    -0.001 A 
ATOM     13  C   UNL     1      -1.691  -0.041  24.587  0.00  0.00    +0.006 A 
ATOM     14  C   UNL     1      -1.178   0.575  24.785  0.00  0.00    -0.001 A 
ATOM     15  C   UNL     1      -0.393   0.555  24.534  0.00  0.00    +0.016 A 
BRANCH  10   9
ATOM      7  C   UNL     1       0.874   0.213  23.101  0.00  0.00    +0.290 C 
ATOM      8  O   UNL     1       0.295   0.549  22.618  0.00  0.00    -0.266 OA
ATOM      9  N   UNL     1       0.666  -0.102  23.835  0.00  0.00    -0.174 NA
BRANCH   7   4
ATOM      1  C   UNL     1       3.706   0.802  22.841  0.00  0.00    +0.075 C 
ATOM      2  C   UNL     1       2.961   0.463  22.731  0.00  0.00    +0.155 A 
ATOM      3  C   UNL     1       2.271   0.669  23.133  0.00  0.00    +0.063 A 
ATOM      4  C   UNL     1       1.660   0.193  22.851  0.00  0.00    +0.178 A 
ATOM      5  N   UNL     1       1.973  -0.307  22.274  0.00  0.00    -0.073 NA
ATOM      6  O   UNL     1       2.776  -0.140  22.200  0.00  0.00    -0.358 OA
ENDBRANCH   7   4
ENDBRANCH  10   9
ENDBRANCH  16  13
BRANCH  29  30
ATOM     30  C   UNL     1      -2.753   1.010  23.888  0.00  0.00    +0.205 C 
ATOM     31  O   UNL     1      -3.048   0.924  23.123  0.00  0.00    -0.218 OA
ENDBRANCH  29  30
BRANCH  21  22
ATOM     22  C   UNL     1      -4.324   1.051  24.388  0.00  0.00    +0.122 C 
BRANCH  22  23
ATOM     23  C   UNL     1      -4.616   1.690  24.819  0.00  0.00    +0.017 A 
ATOM     24  C   UNL     1      -5.415   1.721  25.022  0.00  0.00    +0.001 A 
ATOM     25  C   UNL     1      -5.707   2.360  25.453  0.00  0.00    +0.020 A 
ATOM     26  C   UNL     1      -5.200   2.969  25.682  0.00  0.00    +0.099 A 
ATOM     27  N   UNL     1      -4.401   2.939  25.480  0.00  0.00    -0.243 NA
ATOM     28  C   UNL     1      -4.109   2.299  25.048  0.00  0.00    +0.096 A 
ENDBRANCH  22  23
ENDBRANCH  21  22
TORSDOF 6
ENDMDL
MODEL 4
REMARK VINA RESULT:      -8.8      1.745      6.254
REMARK  Name = 
REMARK  6 active torsions:
REMARK  status: ('A' for Active; 'I' for Inactive)
REMARK    1  A    between atoms: C_4  and  C_7
REMARK    2  A    between atoms: N_9  and  C_10
REMARK    3  A    between atoms: C_13  and  C_16
REMARK    4  A    between atoms: N_21  and  C_22
REMARK    5  A    between atoms: C_22  and  C_23
REMARK    6  A    between atoms: C_29  and  C_30
REMARK                            x       y       z     vdW  Elec       q    Type
REMARK                         _______ _______ _______ _____ _____    ______ ____
ROOT
ATOM     16  C   UNL     1      -3.728   2.599  24.369  0.00  0.00    +0.159 C 
ATOM     17  O   UNL     1      -4.179   3.061  23.855  0.00  0.00    -0.341 OA
ATOM     18  C   UNL     1      -4.117   3.884  23.878  0.00  0.00    +0.227 C 
ATOM     19  C   UNL     1      -3.604   4.244  24.415  0.00  0.00    +0.256 C 
ATOM     20  O   UNL     1      -3.542   5.066  24.438  0.00  0.00    -0.272 OA
ATOM     21  N   UNL     1      -3.153   3.782  24.928  0.00  0.00    -0.270 N 
ATOM     29  C   UNL     1      -3.215   2.960  24.905  0.00  0.00    +0.140 C 
ENDROOT
BRANCH  16  13
ATOM     10  C   UNL     1      -3.912   0.132  24.300  0.00  0.00    +0.074 A 
ATOM     11  C   UNL     1      -3.338   0.516  23.850  0.00  0.00    +0.016 A 
ATOM     12  C   UNL     1      -3.277   1.338  23.872  0.00  0.00    -0.001 A 
ATOM     13  C   UNL     1      -3.790   1.777  24.346  0.00  0.00    +0.006 A 
ATOM     14  C   UNL     1      -4.365   1.393  24.797  0.00  0.00    -0.001 A 
ATOM     15  C   UNL     1      -4.426   0.571  24.774  0.00  0.00    +0.016 A 
BRANCH  10   9
ATOM      7  C   UNL     1      -3.495  -1.154  24.764  0.00  0.00    +0.290 C 
ATOM      8  O   UNL     1      -2.955  -0.794  25.273  0.00  0.00    -0.266 OA
ATOM      9  N   UNL     1      -3.974  -0.690  24.278  0.00  0.00    -0.174 NA
BRANCH   7   4
ATOM      1  C   UNL     1      -3.885  -3.868  23.810  0.00  0.00    +0.075 C 
ATOM      2  C   UNL     1      -3.736  -3.224  24.303  0.00  0.00    +0.155 A 
ATOM      3  C   UNL     1      -3.729  -2.431  24.075  0.00  0.00    +0.063 A 
ATOM      4  C   UNL     1      -3.557  -1.976  24.741  0.00  0.00    +0.178 A 
ATOM      5  N   UNL     1      -3.458  -2.488  25.381  0.00  0.00    -0.073 NA
ATOM      6  O   UNL     1      -3.569  -3.258  25.109  0.00  0.00    -0.358 OA
ENDBRANCH   7   4
ENDBRANCH  10   9
ENDBRANCH  16  13
BRANCH  29  30
ATOM     30  C   UNL     1      -2.764   2.498  25.419  0.00  0.00    +0.205 C 
ATOM     31  O   UNL     1      -2.908   2.523  26.230  0.00  0.00    -0.218 OA
ENDBRANCH  29  30
BRANCH  21  22
ATOM     22  C   UNL     1      -2.640   4.142  25.465  0.00  0.00    +0.122 C 
BRANCH  22  23
ATOM     23  C   UNL     1      -1.919   4.447  25.205  0.00  0.00    +0.017 A 
ATOM     24  C   UNL     1      -1.800   5.264  25.186  0.00  0.00    +0.001 A 
ATOM     25  C   UNL     1      -1.079   5.569  24.926  0.00  0.00    +0.020 A 
ATOM     26  C   UNL     1      -0.477   5.058  24.686  0.00  0.00    +0.099 A 
ATOM     27  N   UNL     1      -0.596   4.242  24.705  0.00  0.00    -0.243 NA
ATOM     28  C   UNL     1      -1.318   3.937  24.965  0.00  0.00    +0.096 A 
ENDBRANCH  22  23
ENDBRANCH  21  22
TORSDOF 6
ENDMDL
MODEL 5
REMARK VINA RESULT:      -8.5      2.557      3.758
REMARK  Name = 
REMARK  6 active torsions:
REMARK  status: ('A' for Active; 'I' for Inactive)
REMARK    1  A    between atoms: C_4  and  C_7
REMARK    2  A    between atoms: N_9  and  C_10
REMARK    3  A    between atoms: C_13  and  C_16
REMARK    4  A    between atoms: N_21  and  C_22
REMARK    5  A    between atoms: C_22  and  C_23
REMARK    6  A    between atoms: C_29  and  C_30
REMARK                            x       y       z     vdW  Elec       q    Type
REMARK                         _______ _______ _______ _____ _____    ______ ____
ROOT
ATOM     16  C   UNL     1      -1.786   0.689  24.463  0.00  0.00    +0.159 C 
ATOM     17  O   UNL     1      -2.302   1.332  24.423  0.00  0.00    -0.341 OA
ATOM     18  C   UNL     1      -3.075   1.258  24.703  0.00  0.00    +0.227 C 
ATOM     19  C   UNL     1      -3.331   0.542  25.022  0.00  0.00    +0.256 C 
ATOM     20  O   UNL     1      -4.104   0.469  25.301  0.00  0.00    -0.272 OA
ATOM     21  N   UNL     1      -2.816  -0.100  25.061  0.00  0.00    -0.270 N 
ATOM     29  C   UNL     1      -2.043  -0.027  24.782  0.00  0.00    +0.140 C 
ENDROOT
BRANCH  16  13
ATOM     10  C   UNL     1       0.532   0.908  23.625  0.00  0.00    +0.074 A 
ATOM     11  C   UNL     1      -0.051   0.577  23.145  0.00  0.00    +0.016 A 
ATOM     12  C   UNL     1      -0.823   0.504  23.424  0.00  0.00    -0.001 A 
ATOM     13  C   UNL     1      -1.014   0.762  24.184  0.00  0.00    +0.006 A 
ATOM     14  C   UNL     1      -0.430   1.094  24.665  0.00  0.00    -0.001 A 
ATOM     15  C   UNL     1       0.343   1.166  24.385  0.00  0.00    +0.016 A 
BRANCH  10   9
ATOM      7  C   UNL     1       1.715   0.313  23.086  0.00  0.00    +0.290 C 
ATOM      8  O   UNL     1       1.352  -0.427  23.106  0.00  0.00    -0.266 OA
ATOM      9  N   UNL     1       1.305   0.981  23.346  0.00  0.00    -0.174 NA
BRANCH   7   4
ATOM      1  C   UNL     1       4.588   0.727  22.985  0.00  0.00    +0.075 C 
ATOM      2  C   UNL     1       3.808   0.577  22.760  0.00  0.00    +0.155 A 
ATOM      3  C   UNL     1       3.154   0.554  23.263  0.00  0.00    +0.063 A 
ATOM      4  C   UNL     1       2.488   0.387  22.807  0.00  0.00    +0.178 A 
ATOM      5  N   UNL     1       2.730   0.305  22.022  0.00  0.00    -0.073 NA
ATOM      6  O   UNL     1       3.545   0.422  21.994  0.00  0.00    -0.358 OA
ENDBRANCH   7   4
ENDBRANCH  10   9
ENDBRANCH  16  13
BRANCH  29  30
ATOM     30  C   UNL     1      -1.528  -0.670  24.822  0.00  0.00    +0.205 C 
ATOM     31  O   UNL     1      -1.207  -0.897  25.547  0.00  0.00    -0.218 OA
ENDBRANCH  29  30
BRANCH  21  22
ATOM     22  C   UNL     1      -3.073  -0.817  25.381  0.00  0.00    +0.122 C 
BRANCH  22  23
ATOM     23  C   UNL     1      -3.463  -1.364  24.903  0.00  0.00    +0.017 A 
ATOM     24  C   UNL     1      -3.254  -2.162  24.934  0.00  0.00    +0.001 A 
ATOM     25  C   UNL     1      -3.644  -2.710  24.457  0.00  0.00    +0.020 A 
ATOM     26  C   UNL     1      -4.244  -2.461  23.949  0.00  0.00    +0.099 A 
ATOM     27  N   UNL     1      -4.454  -1.663  23.917  0.00  0.00    -0.243 NA
ATOM     28  C   UNL     1      -4.063  -1.115  24.395  0.00  0.00    +0.096 A 
ENDBRANCH  22  23
ENDBRANCH  21  22
TORSDOF 6
ENDMDL
MODEL 6
REMARK VINA RESULT:      -8.3      1.173      5.878
REMARK  Name = 
REMARK  6 active torsions:
REMARK  status: ('A' for Active; 'I' for Inactive)
REMARK    1  A    between atoms: C_4  and  C_7
REMARK    2  A    between atoms: N_9  and  C_10
REMARK    3  A    between atoms: C_13  and  C_16
REMARK    4  A    between atoms: N_21  and  C_22
REMARK    5  A    between atoms: C_22  and  C_23
REMARK    6  A    between atoms: C_29  and  C_30
REMARK                            x       y       z     vdW  Elec       q    Type
REMARK                         _______ _______ _______ _____ _____    ______ ____
ROOT
ATOM     16  C   UNL     1      -0.748   1.463  25.473  0.00  0.00    +0.159 C 
ATOM     17  O   UNL     1      -0.235   1.539  26.114  0.00  0.00    -0.341 OA
ATOM     18  C   UNL     1       0.162   2.251  26.241  0.00  0.00    +0.227 C 
ATOM     19  C   UNL     1       0.046   2.886  25.728  0.00  0.00    +0.256 C 
ATOM     20  O   UNL     1       0.443   3.598  25.855  0.00  0.00    -0.272 OA
ATOM     21  N   UNL     1      -0.467   2.809  25.087  0.00  0.00    -0.270 N 
ATOM     29  C   UNL     1      -0.865   2.098  24.959  0.00  0.00    +0.140 C 
ENDROOT
BRANCH  16  13
ATOM     10  C   UNL     1      -1.941  -0.672  25.090  0.00  0.00    +0.074 A 
ATOM     11  C   UNL     1      -2.285  -0.085  25.556  0.00  0.00    +0.016 A 
ATOM     12  C   UNL     1      -1.888   0.627  25.684  0.00  0.00    -0.001 A 
ATOM     13  C   UNL     1      -1.146   0.751  25.345  0.00  0.00    +0.006 A 
ATOM     14  C   UNL     1      -0.802   0.164  24.879  0.00  0.00    -0.001 A 
ATOM     15  C   UNL     1      -1.199  -0.547  24.751  0.00  0.00    +0.016 A 
BRANCH  10   9
ATOM      7  C   UNL     1      -3.033  -1.394  24.516  0.00  0.00    +0.290 C 
ATOM      8  O   UNL     1      -3.330  -0.692  24.199  0.00  0.00    -0.266 OA
ATOM      9  N   UNL     1      -2.339  -1.383  24.962  0.00  0.00    -0.174 NA
BRANCH   7   4
ATOM      1  C   UNL     1      -4.820  -3.401  23.415  0.00  0.00    +0.075 C 
ATOM      2  C   UNL     1      -4.252  -3.028  23.882  0.00  0.00    +0.155 A 
ATOM      3  C   UNL     1      -4.004  -2.245  23.812  0.00  0.00    +0.063 A 
ATOM      4  C   UNL     1      -3.431  -2.106  24.388  0.00  0.00    +0.178 A 
ATOM      5  N   UNL     1      -3.324  -2.804  24.815  0.00  0.00    -0.073 NA
ATOM      6  O   UNL     1      -3.831  -3.373  24.502  0.00  0.00    -0.358 OA
ENDBRANCH   7   4
ENDBRANCH  10   9
ENDBRANCH  16  13
BRANCH  29  30
ATOM     30  C   UNL     1      -1.378   2.022  24.319  0.00  0.00    +0.205 C 
ATOM     31  O   UNL     1      -1.081   2.023  23.549  0.00  0.00    -0.218 OA
ENDBRANCH  29  30
BRANCH  21  22
ATOM     22  C   UNL     1      -0.584   3.445  24.573  0.00  0.00    +0.122 C 
BRANCH  22  23
ATOM     23  C   UNL     1      -1.024   4.098  24.818  0.00  0.00    +0.017 A 
ATOM     24  C   UNL     1      -0.708   4.857  24.749  0.00  0.00    +0.001 A 
ATOM     25  C   UNL     1      -1.148   5.510  24.994  0.00  0.00    +0.020 A 
ATOM     26  C   UNL     1      -1.904   5.405  25.307  0.00  0.00    +0.099 A 
ATOM     27  N   UNL     1      -2.220   4.646  25.376  0.00  0.00    -0.243 NA
ATOM     28  C   UNL     1      -1.779   3.992  25.131  0.00  0.00    +0.096 A 
ENDBRANCH  22  23
ENDBRANCH  21  22
TORSDOF 6
ENDMDL
MODEL 7
REMARK VINA RESULT:      -7.9      1.481      2.139
REMARK  Name = 
REMARK  6 active torsions:
REMARK  status: ('A' for Active; 'I' for Inactive)
REMARK    1  A    between atoms: C_4  and  C_7
REMARK    2  A    between atoms: N_9  and  C_10
REMARK    3  A    between atoms: C_13  and  C_16
REMARK    4  A    between atoms: N_21  and  C_22
REMARK    5  A    between atoms: C_22  and  C_23
REMARK    6  A    between atoms: C_29  and  C_30
REMARK                            x       y       z     vdW  Elec       q    Type
REMARK                         _______ _______ _______ _____ _____    ______ ____
ROOT
ATOM     16  C   UNL     1      -3.777   0.059  24.311  0.00  0.00    +0.159 C 
ATOM     17  O   UNL     1      -4.397  -0.141  23.805  0.00  0.00    -0.341 OA
ATOM     18  C   UNL     1      -4.629  -0.929  23.728  0.00  0.00    +0.227 C 
ATOM     19  C   UNL     1      -4.240  -1.516  24.158  0.00  0.00    +0.256 C 
ATOM     20  O   UNL     1      -4.472  -2.305  24.081  0.00  0.00    -0.272 OA
ATOM     21  N   UNL     1      -3.620  -1.316  24.663  0.00  0.00    -0.270 N 
ATOM     29  C   UNL     1      -3.388  -0.529  24.740  0.00  0.00    +0.140 C 
ENDROOT
BRANCH  16  13
ATOM     10  C   UNL     1      -3.080   2.423  24.541  0.00  0.00    +0.074 A 
ATOM     11  C   UNL     1      -2.693   1.929  24.005  0.00  0.00    +0.016 A 
ATOM     12  C   UNL     1      -2.926   1.142  23.928  0.00  0.00    -0.001 A 
ATOM     13  C   UNL     1      -3.545   0.847  24.388  0.00  0.00    +0.006 A 
ATOM     14  C   UNL     1      -3.931   1.341  24.924  0.00  0.00    -0.001 A 
ATOM     15  C   UNL     1      -3.699   2.129  25.001  0.00  0.00    +0.016 A 
BRANCH  10   9
ATOM      7  C   UNL     1      -2.191   3.405  25.079  0.00  0.00    +0.290 C 
ATOM      8  O   UNL     1      -1.767   2.810  25.463  0.00  0.00    -0.266 OA
ATOM      9  N   UNL     1      -2.847   3.210  24.618  0.00  0.00    -0.174 NA
BRANCH   7   4
ATOM      1  C   UNL     1      -0.704   5.885  24.811  0.00  0.00    +0.075 C 
ATOM      2  C   UNL     1      -1.276   5.332  25.033  0.00  0.00    +0.155 A 
ATOM      3  C   UNL     1      -1.294   4.538  24.811  0.00  0.00    +0.063 A 
ATOM      4  C   UNL     1      -1.959   4.193  25.156  0.00  0.00    +0.178 A 
ATOM      5  N   UNL     1      -2.351   4.774  25.591  0.00  0.00    -0.073 NA
ATOM      6  O   UNL     1      -1.929   5.477  25.515  0.00  0.00    -0.358 OA
ENDBRANCH   7   4
ENDBRANCH  10   9
ENDBRANCH  16  13
BRANCH  29  30
ATOM     30  C   UNL     1      -2.768  -0.329  25.246  0.00  0.00    +0.205 C 
ATOM     31  O   UNL     1      -2.871  -0.374  26.063  0.00  0.00    -0.218 OA
ENDBRANCH  29  30
BRANCH  21  22
ATOM     22  C   UNL     1      -3.232  -1.905  25.093  0.00  0.00    +0.122 C 
BRANCH  22  23
ATOM     23  C   UNL     1      -2.613  -2.327  24.748  0.00  0.00    +0.017 A 
ATOM     24  C   UNL     1      -1.832  -2.149  24.944  0.00  0.00    +0.001 A 
ATOM     25  C   UNL     1      -1.213  -2.571  24.599  0.00  0.00    +0.020 A 
ATOM     26  C   UNL     1      -1.375  -3.171  24.057  0.00  0.00    +0.099 A 
ATOM     27  N   UNL     1      -2.156  -3.350  23.861  0.00  0.00    -0.243 NA
ATOM     28  C   UNL     1      -2.775  -2.927  24.206  0.00  0.00    +0.096 A 
ENDBRANCH  22  23
ENDBRANCH  21  22
TORSDOF 6
ENDMDL
