MODEL 1
REMARK VINA RESULT:     -15.6      0.000      0.000
REMARK  Name = 
REMARK  4 active torsions:
REMARK  status: ('A' for Active; 'I' for Inactive)
REMARK    1  A    between atoms: O_2  and  C_3
REMARK    2  A    between atoms: C_6  and  S_9
REMARK    3  A    between atoms: S_9  and  N_12
REMARK    4  A    between atoms: C_19  and  C_26
REMARK                            x       y       z     vdW  Elec       q    Type
REMARK                         _______ _______ _______ _____ _____    ______ ____
ROOT
ATOM     12  N   UNL     1      -4.764   2.764  25.162  0.00  0.00    -0.155 NA
ATOM     13  C   UNL     1      -5.579   2.580  25.180  0.00  0.00    +0.098 C 
ATOM     14  C   UNL     1      -5.531   1.606  25.018  0.00  0.00    +0.041 C 
ATOM     15  C   UNL     1      -5.662   0.811  24.896  0.00  0.00    +0.011 C 
ATOM     16  C   UNL     1      -5.113   1.247  24.934  0.00  0.00    +0.056 C 
ATOM     17  C   UNL     1      -5.175   2.187  25.092  0.00  0.00    +0.102 C 
ATOM     18  C   UNL     1      -4.196   1.257  24.881  0.00  0.00    +0.041 A 
ATOM     19  C   UNL     1      -3.556   0.751  24.760  0.00  0.00    +0.012 A 
ATOM     20  C   UNL     1      -2.787   1.050  24.763  0.00  0.00    +0.006 A 
ATOM     21  C   UNL     1      -2.658   1.856  24.888  0.00  0.00    +0.061 A 
ATOM     22  C   UNL     1      -3.298   2.362  25.009  0.00  0.00    +0.261 A 
ATOM     23  O   UNL     1      -3.170   3.167  25.133  0.00  0.00    -0.267 OA
ATOM     24  N   UNL     1      -4.067   2.062  25.005  0.00  0.00    -0.299 N 
ATOM     25  C   UNL     1      -4.573   1.626  24.964  0.00  0.00    +0.110 C 
ENDROOT
BRANCH  19  26
ATOM     26  C   UNL     1      -3.684  -0.055  24.636  0.00  0.00    +0.001 A 
ATOM     27  C   UNL     1      -3.674  -0.577  25.274  0.00  0.00    +0.001 A 
ATOM     28  C   UNL     1      -3.803  -1.383  25.150  0.00  0.00    +0.011 A 
ATOM     29  C   UNL     1      -3.942  -1.666  24.387  0.00  0.00    +0.058 A 
ATOM     30 CL   UNL     1      -4.070  -2.470  24.263  0.00  0.00    -0.082 Cl
ATOM     31  C   UNL     1      -3.952  -1.143  23.749  0.00  0.00    +0.011 A 
ATOM     32  C   UNL     1      -3.823  -0.338  23.874  0.00  0.00    +0.001 A 
ENDBRANCH  19  26
BRANCH  12   9
ATOM      9  S   UNL     1      -4.077   3.221  25.196  0.00  0.00    +0.063 S 
ATOM     10  O   UNL     1      -4.113   3.335  24.379  0.00  0.00    -0.153 OA
ATOM     11  O   UNL     1      -4.041   3.106  26.012  0.00  0.00    -0.153 OA
BRANCH   9   6
ATOM      3  C   UNL     1      -2.018   4.590  25.297  0.00  0.00    +0.139 A 
ATOM      4  C   UNL     1      -2.389   4.456  24.572  0.00  0.00    +0.038 A 
ATOM      5  C   UNL     1      -3.076   4.000  24.539  0.00  0.00    +0.023 A 
ATOM      6  C   UNL     1      -3.390   3.677  25.229  0.00  0.00    +0.122 A 
ATOM      7  C   UNL     1      -3.020   3.811  25.954  0.00  0.00    +0.023 A 
ATOM      8  C   UNL     1      -2.333   4.268  25.987  0.00  0.00    +0.038 A 
BRANCH   3   2
ATOM      1  C   UNL     1      -0.739   4.943  24.766  0.00  0.00    +0.252 C 
ATOM      2  O   UNL     1      -1.331   5.047  25.331  0.00  0.00    -0.471 OA
ENDBRANCH   3   2
ENDBRANCH   9   6
ENDBRANCH  12   9
TORSDOF 4
ENDMDL
MODEL 2
REMARK VINA RESULT:     -15.2      2.167      4.350
REMARK  Name = 
REMARK  4 active torsions:
REMARK  status: ('A' for Active; 'I' for Inactive)
REMARK    1  A    between atoms: O_2  and  C_3
REMARK    2  A    between atoms: C_6  and  S_9
REMARK    3  A    between atoms: S_9  and  N_12
REMARK    4  A    between atoms: C_19  and  C_26
REMARK                            x       y       z     vdW  Elec       q    Type
REMARK                         _______ _______ _______ _____ _____    ______ ____
ROOT
ATOM     12  N   UNL     1      -4.639   1.303  24.714  0.00  0.00    -0.155 NA
ATOM     13  C   UNL     1      -5.200   1.919  24.653  0.00  0.00    +0.098 C 
ATOM     14  C   UNL     1      -4.598   2.700  24.721  0.00  0.00    +0.041 C 
ATOM     15  C   UNL     1      -4.245   3.433  24.761  0.00  0.00    +0.011 C 
ATOM     16  C   UNL     1      -4.047   2.760  24.782  0.00  0.00    +0.056 C 
ATOM     17  C   UNL     1      -4.642   2.016  24.715  0.00  0.00    +0.102 C 
ATOM     18  C   UNL     1      -3.300   2.231  24.864  0.00  0.00    +0.041 A 
ATOM     19  C   UNL     1      -2.482   2.287  24.954  0.00  0.00    +0.012 A 
ATOM     20  C   UNL     1      -2.025   1.602  25.004  0.00  0.00    +0.006 A 
ATOM     21  C   UNL     1      -2.386   0.861  24.962  0.00  0.00    +0.061 A 
ATOM     22  C   UNL     1      -3.204   0.805  24.872  0.00  0.00    +0.261 A 
ATOM     23  O   UNL     1      -3.564   0.064  24.830  0.00  0.00    -0.267 OA
ATOM     24  N   UNL     1      -3.661   1.490  24.822  0.00  0.00    -0.299 N 
ATOM     25  C   UNL     1      -3.824   2.139  24.806  0.00  0.00    +0.110 C 
ENDROOT
BRANCH  19  26
ATOM     26  C   UNL     1      -2.122   3.028  24.995  0.00  0.00    +0.001 A 
ATOM     27  C   UNL     1      -2.079   3.426  25.716  0.00  0.00    +0.001 A 
ATOM     28  C   UNL     1      -1.718   4.167  25.758  0.00  0.00    +0.011 A 
ATOM     29  C   UNL     1      -1.400   4.510  25.078  0.00  0.00    +0.058 A 
ATOM     30 CL   UNL     1      -1.040   5.250  25.119  0.00  0.00    -0.082 Cl
ATOM     31  C   UNL     1      -1.443   4.111  24.357  0.00  0.00    +0.011 A 
ATOM     32  C   UNL     1      -1.803   3.370  24.316  0.00  0.00    +0.001 A 
ENDBRANCH  19  26
BRANCH  12   9
ATOM      9  S   UNL     1      -4.340   0.535  24.746  0.00  0.00    +0.063 S 
ATOM     10  O   UNL     1      -4.486   0.511  25.557  0.00  0.00    -0.153 OA
ATOM     11  O   UNL     1      -4.193   0.558  23.934  0.00  0.00    -0.153 OA
BRANCH   9   6
ATOM      3  C   UNL     1      -3.443  -1.770  24.840  0.00  0.00    +0.139 A 
ATOM      4  C   UNL     1      -3.572  -1.407  24.111  0.00  0.00    +0.038 A 
ATOM      5  C   UNL     1      -3.871  -0.639  24.079  0.00  0.00    +0.023 A 
ATOM      6  C   UNL     1      -4.041  -0.234  24.777  0.00  0.00    +0.122 A 
ATOM      7  C   UNL     1      -3.912  -0.596  25.507  0.00  0.00    +0.023 A 
ATOM      8  C   UNL     1      -3.613  -1.365  25.538  0.00  0.00    +0.038 A 
BRANCH   3   2
ATOM      1  C   UNL     1      -3.535  -3.149  24.480  0.00  0.00    +0.252 C 
ATOM      2  O   UNL     1      -3.144  -2.539  24.872  0.00  0.00    -0.471 OA
ENDBRANCH   3   2
ENDBRANCH   9   6
ENDBRANCH  12   9
TORSDOF 4
ENDMDL
MODEL 3
REMARK VINA RESULT:     -14.0      1.451      2.516
REMARK  Name = 
REMARK  4 active torsions:
REMARK  status: ('A' for Active; 'I' for Inactive)
REMARK    1  A    between atoms: O_2  and  C_3
REMARK    2  A    between atoms: C_6  and  S_9
REMARK    3  A    between atoms: S_9  and  N_12
REMARK    4  A    between atoms: C_19  and  C_26
REMARK                            x       y       z     vdW  Elec       q    Type
REMARK                         _______ _______ _______ _____ _____    ______ ____
ROOT
ATOM     12  N   UNL     1      -2.137   1.678  24.468  0.00  0.00    -0.155 NA
ATOM     13  C   UNL     1      -1.377   1.384  24.283  0.00  0.00    +0.098 C 
ATOM     14  C   UNL     1      -1.565   0.414  24.306  0.00  0.00    +0.041 C 
ATOM     15  C   UNL     1      -1.556  -0.400  24.285  0.00  0.00    +0.011 C 
ATOM     16  C   UNL     1      -2.022   0.110  24.406  0.00  0.00    +0.056 C 
ATOM     17  C   UNL     1      -1.824   1.044  24.380  0.00  0.00    +0.102 C 
ATOM     18  C   UNL     1      -2.907   0.243  24.616  0.00  0.00    +0.041 A 
ATOM     19  C   UNL     1      -3.599  -0.178  24.768  0.00  0.00    +0.012 A 
ATOM     20  C   UNL     1      -4.298   0.225  24.941  0.00  0.00    +0.006 A 
ATOM     21  C   UNL     1      -4.304   1.050  24.961  0.00  0.00    +0.061 A 
ATOM     22  C   UNL     1      -3.612   1.471  24.809  0.00  0.00    +0.261 A 
ATOM     23  O   UNL     1      -3.618   2.296  24.829  0.00  0.00    -0.267 OA
ATOM     24  N   UNL     1      -2.913   1.068  24.636  0.00  0.00    -0.299 N 
ATOM     25  C   UNL     1      -2.488   0.563  24.525  0.00  0.00    +0.110 C 
ENDROOT
BRANCH  19  26
ATOM     26  C   UNL     1      -3.593  -1.003  24.748  0.00  0.00    +0.001 A 
ATOM     27  C   UNL     1      -3.794  -1.400  24.054  0.00  0.00    +0.001 A 
ATOM     28  C   UNL     1      -3.788  -2.225  24.034  0.00  0.00    +0.011 A 
ATOM     29  C   UNL     1      -3.581  -2.653  24.708  0.00  0.00    +0.058 A 
ATOM     30 CL   UNL     1      -3.574  -3.477  24.688  0.00  0.00    -0.082 Cl
ATOM     31  C   UNL     1      -3.379  -2.256  25.402  0.00  0.00    +0.011 A 
ATOM     32  C   UNL     1      -3.385  -1.431  25.422  0.00  0.00    +0.001 A 
ENDBRANCH  19  26
BRANCH  12   9
ATOM      9  S   UNL     1      -2.733   2.228  24.620  0.00  0.00    +0.063 S 
ATOM     10  O   UNL     1      -2.927   2.240  23.818  0.00  0.00    -0.153 OA
ATOM     11  O   UNL     1      -2.539   2.217  25.422  0.00  0.00    -0.153 OA
BRANCH   9   6
ATOM      3  C   UNL     1      -4.521   3.877  25.077  0.00  0.00    +0.139 A 
ATOM      4  C   UNL     1      -4.049   3.601  25.693  0.00  0.00    +0.038 A 
ATOM      5  C   UNL     1      -3.452   3.051  25.541  0.00  0.00    +0.023 A 
ATOM      6  C   UNL     1      -3.330   2.778  24.772  0.00  0.00    +0.122 A 
ATOM      7  C   UNL     1      -3.803   3.054  24.156  0.00  0.00    +0.023 A 
ATOM      8  C   UNL     1      -4.399   3.604  24.308  0.00  0.00    +0.038 A 
BRANCH   3   2
ATOM      1  C   UNL     1      -5.806   4.192  25.616  0.00  0.00    +0.252 C 
ATOM      2  O   UNL     1      -5.118   4.427  25.229  0.00  0.00    -0.471 OA
ENDBRANCH   3   2
ENDBRANCH   9   6
ENDBRANCH  12   9
TORSDOF 4
ENDMDL
MODEL 4
REMARK VINA RESULT:     -13.8      1.945      2.935
REMARK  Name = 
REMARK  4 active torsions:
REMARK  status: ('A' for Active; 'I' for Inactive)
REMARK    1  A    between atoms: O_2  and  C_3
REMARK    2  A    between atoms: C_6  and  S_9
REMARK    3  A    between atoms: S_9  and  N_12
REMARK    4  A    between atoms: C_19  and  C_26
REMARK                            x       y       z     vdW  Elec       q    Type
REMARK                         _______ _______ _______ _____ _____    ______ ____
ROOT
ATOM     12  N   UNL     1      -0.500   0.823  24.670  0.00  0.00    -0.155 NA
ATOM     13  C   UNL     1       0.040   0.209  24.499  0.00  0.00    +0.098 C 
ATOM     14  C   UNL     1      -0.588  -0.549  24.426  0.00  0.00    +0.041 C 
ATOM     15  C   UNL     1      -0.967  -1.265  24.334  0.00  0.00    +0.011 C 
ATOM     16  C   UNL     1      -1.142  -0.600  24.475  0.00  0.00    +0.056 C 
ATOM     17  C   UNL     1      -0.521   0.123  24.543  0.00  0.00    +0.102 C 
ATOM     18  C   UNL     1      -1.870  -0.069  24.651  0.00  0.00    +0.041 A 
ATOM     19  C   UNL     1      -2.690  -0.112  24.731  0.00  0.00    +0.012 A 
ATOM     20  C   UNL     1      -3.124   0.569  24.903  0.00  0.00    +0.006 A 
ATOM     21  C   UNL     1      -2.738   1.292  24.996  0.00  0.00    +0.061 A 
ATOM     22  C   UNL     1      -1.918   1.335  24.916  0.00  0.00    +0.261 A 
ATOM     23  O   UNL     1      -1.532   2.058  25.009  0.00  0.00    -0.267 OA
ATOM     24  N   UNL     1      -1.484   0.655  24.744  0.00  0.00    -0.299 N 
ATOM     25  C   UNL     1      -1.344   0.014  24.610  0.00  0.00    +0.110 C 
ENDROOT
BRANCH  19  26
ATOM     26  C   UNL     1      -3.076  -0.835  24.638  0.00  0.00    +0.001 A 
ATOM     27  C   UNL     1      -3.422  -1.028  23.915  0.00  0.00    +0.001 A 
ATOM     28  C   UNL     1      -3.808  -1.751  23.822  0.00  0.00    +0.011 A 
ATOM     29  C   UNL     1      -3.849  -2.281  24.453  0.00  0.00    +0.058 A 
ATOM     30 CL   UNL     1      -4.234  -3.004  24.360  0.00  0.00    -0.082 Cl
ATOM     31  C   UNL     1      -3.503  -2.088  25.176  0.00  0.00    +0.011 A 
ATOM     32  C   UNL     1      -3.117  -1.365  25.269  0.00  0.00    +0.001 A 
ENDBRANCH  19  26
BRANCH  12   9
ATOM      9  S   UNL     1      -0.772   1.583  24.840  0.00  0.00    +0.063 S 
ATOM     10  O   UNL     1      -0.863   1.731  24.033  0.00  0.00    -0.153 OA
ATOM     11  O   UNL     1      -0.682   1.436  25.647  0.00  0.00    -0.153 OA
BRANCH   9   6
ATOM      3  C   UNL     1      -1.590   3.863  25.349  0.00  0.00    +0.139 A 
ATOM      4  C   UNL     1      -1.525   3.614  24.565  0.00  0.00    +0.038 A 
ATOM      5  C   UNL     1      -1.253   2.854  24.396  0.00  0.00    +0.023 A 
ATOM      6  C   UNL     1      -1.045   2.344  25.010  0.00  0.00    +0.122 A 
ATOM      7  C   UNL     1      -1.110   2.593  25.793  0.00  0.00    +0.023 A 
ATOM      8  C   UNL     1      -1.382   3.354  25.963  0.00  0.00    +0.038 A 
BRANCH   3   2
ATOM      1  C   UNL     1      -1.523   5.276  25.145  0.00  0.00    +0.252 C 
ATOM      2  O   UNL     1      -1.862   4.624  25.518  0.00  0.00    -0.471 OA
ENDBRANCH   3   2
ENDBRANCH   9   6
ENDBRANCH  12   9
TORSDOF 4
ENDMDL
MODEL 5
REMARK VINA RESULT:     -13.1      2.579      4.963
REMARK  Name = 
REMARK  4 active torsions:
REMARK  status: ('A' for Active; 'I' for Inactive)
REMARK    1  A    between atoms: O_2  and  C_3
REMARK    2  A    between atoms: C_6  and  S_9
REMARK    3  A    between atoms: S_9  and  N_12
REMARK    4  A    between atoms: C_19  and  C_26
REMARK                            x       y       z     vdW  Elec       q    Type
REMARK                         _______ _______ _______ _____ _____    ______ ____
ROOT
ATOM     12  N   UNL     1      -1.289   0.233  25.396  0.00  0.00    -0.155 NA
ATOM     13  C   UNL     1      -0.524   0.347  25.713  0.00  0.00    +0.098 C 
ATOM     14  C   UNL     1      -0.492   1.335  25.715  0.00  0.00    +0.041 C 
ATOM     15  C   UNL     1      -0.310   2.126  25.781  0.00  0.00    +0.011 C 
ATOM     16  C   UNL     1      -0.849   1.734  25.561  0.00  0.00    +0.056 C 
ATOM     17  C   UNL     1      -0.865   0.779  25.566  0.00  0.00    +0.102 C 
ATOM     18  C   UNL     1      -1.694   1.805  25.207  0.00  0.00    +0.041 A 
ATOM     19  C   UNL     1      -2.244   2.373  24.971  0.00  0.00    +0.012 A 
ATOM     20  C   UNL     1      -2.975   2.138  24.669  0.00  0.00    +0.006 A 
ATOM     21  C   UNL     1      -3.156   1.336  24.603  0.00  0.00    +0.061 A 
ATOM     22  C   UNL     1      -2.606   0.768  24.840  0.00  0.00    +0.261 A 
ATOM     23  O   UNL     1      -2.788  -0.034  24.774  0.00  0.00    -0.267 OA
ATOM     24  N   UNL     1      -1.876   1.003  25.142  0.00  0.00    -0.299 N 
ATOM     25  C   UNL     1      -1.376   1.399  25.345  0.00  0.00    +0.110 C 
ENDROOT
BRANCH  19  26
ATOM     26  C   UNL     1      -2.063   3.175  25.037  0.00  0.00    +0.001 A 
ATOM     27  C   UNL     1      -2.318   3.603  25.695  0.00  0.00    +0.001 A 
ATOM     28  C   UNL     1      -2.137   4.405  25.760  0.00  0.00    +0.011 A 
ATOM     29  C   UNL     1      -1.701   4.780  25.168  0.00  0.00    +0.058 A 
ATOM     30 CL   UNL     1      -1.520   5.581  25.234  0.00  0.00    -0.082 Cl
ATOM     31  C   UNL     1      -1.446   4.352  24.511  0.00  0.00    +0.011 A 
ATOM     32  C   UNL     1      -1.627   3.550  24.445  0.00  0.00    +0.001 A 
ENDBRANCH  19  26
BRANCH  12   9
ATOM      9  S   UNL     1      -1.956  -0.168  25.122  0.00  0.00    +0.063 S 
ATOM     10  O   UNL     1      -2.269  -0.170  25.886  0.00  0.00    -0.153 OA
ATOM     11  O   UNL     1      -1.644  -0.166  24.358  0.00  0.00    -0.153 OA
BRANCH   9   6
ATOM      3  C   UNL     1      -3.958  -1.369  24.301  0.00  0.00    +0.139 A 
ATOM      4  C   UNL     1      -3.363  -1.153  23.774  0.00  0.00    +0.038 A 
ATOM      5  C   UNL     1      -2.695  -0.752  24.048  0.00  0.00    +0.023 A 
ATOM      6  C   UNL     1      -2.624  -0.569  24.849  0.00  0.00    +0.122 A 
ATOM      7  C   UNL     1      -3.220  -0.785  25.376  0.00  0.00    +0.023 A 
ATOM      8  C   UNL     1      -3.888  -1.186  25.102  0.00  0.00    +0.038 A 
BRANCH   3   2
ATOM      1  C   UNL     1      -4.550  -2.524  23.704  0.00  0.00    +0.252 C 
ATOM      2  O   UNL     1      -4.626  -1.770  24.028  0.00  0.00    -0.471 OA
ENDBRANCH   3   2
ENDBRANCH   9   6
ENDBRANCH  12   9
TORSDOF 4
ENDMDL
MODEL 6
REMARK VINA RESULT:     -12.6      2.637      4.519
REMARK  Name = 
REMARK  4 active torsions:
REMARK  status: ('A' for Active; 'I' for Inactive)
REMARK    1  A    between atoms: O_2  and  C_3
REMARK    2  A    between atoms: C_6  and  S_9
REMARK    3  A    between atoms: S_9  and  N_12
REMARK    4  A    between atoms: C_19  and  C_26
REMARK                            x       y       z     vdW  Elec       q    Type
REMARK                         _______ _______ _______ _____ _____    ______ ____
ROOT
ATOM     12  N   UNL     1      -0.733   1.975  25.369  0.00  0.00    -0.155 NA
ATOM     13  C   UNL     1      -0.418   2.720  25.578  0.00  0.00    +0.098 C 
ATOM     14  C   UNL     1      -1.245   3.260  25.557  0.00  0.00    +0.041 C 
ATOM     15  C   UNL     1      -1.823   3.834  25.584  0.00  0.00    +0.011 C 
ATOM     16  C   UNL     1      -1.779   3.147  25.446  0.00  0.00    +0.056 C 
ATOM     17  C   UNL     1      -0.971   2.638  25.470  0.00  0.00    +0.102 C 
ATOM     18  C   UNL     1      -2.296   2.425  25.209  0.00  0.00    +0.041 A 
ATOM     19  C   UNL     1      -3.078   2.226  25.039  0.00  0.00    +0.012 A 
ATOM     20  C   UNL     1      -3.273   1.449  24.843  0.00  0.00    +0.006 A 
ATOM     21  C   UNL     1      -2.685   0.871  24.817  0.00  0.00    +0.061 A 
ATOM     22  C   UNL     1      -1.902   1.070  24.986  0.00  0.00    +0.261 A 
ATOM     23  O   UNL     1      -1.314   0.492  24.960  0.00  0.00    -0.267 OA
ATOM     24  N   UNL     1      -1.708   1.847  25.183  0.00  0.00    -0.299 N 
ATOM     25  C   UNL     1      -1.777   2.501  25.310  0.00  0.00    +0.110 C 
ENDROOT
BRANCH  19  26
ATOM     26  C   UNL     1      -3.667   2.804  25.066  0.00  0.00    +0.001 A 
ATOM     27  C   UNL     1      -3.843   3.244  24.390  0.00  0.00    +0.001 A 
ATOM     28  C   UNL     1      -4.432   3.822  24.417  0.00  0.00    +0.011 A 
ATOM     29  C   UNL     1      -4.843   3.961  25.118  0.00  0.00    +0.058 A 
ATOM     30 CL   UNL     1      -5.430   4.538  25.145  0.00  0.00    -0.082 Cl
ATOM     31  C   UNL     1      -4.666   3.521  25.793  0.00  0.00    +0.011 A 
ATOM     32  C   UNL     1      -4.078   2.943  25.767  0.00  0.00    +0.001 A 
ENDBRANCH  19  26
BRANCH  12   9
ATOM      9  S   UNL     1      -0.751   1.168  25.195  0.00  0.00    +0.063 S 
ATOM     10  O   UNL     1      -0.627   1.337  24.397  0.00  0.00    -0.153 OA
ATOM     11  O   UNL     1      -0.874   0.999  25.993  0.00  0.00    -0.153 OA
BRANCH   9   6
ATOM      3  C   UNL     1      -0.805  -1.251  24.675  0.00  0.00    +0.139 A 
ATOM      4  C   UNL     1      -0.952  -0.991  25.444  0.00  0.00    +0.038 A 
ATOM      5  C   UNL     1      -0.934  -0.185  25.617  0.00  0.00    +0.023 A 
ATOM      6  C   UNL     1      -0.769   0.361  25.021  0.00  0.00    +0.122 A 
ATOM      7  C   UNL     1      -0.622   0.102  24.253  0.00  0.00    +0.023 A 
ATOM      8  C   UNL     1      -0.640  -0.705  24.079  0.00  0.00    +0.038 A 
BRANCH   3   2
ATOM      1  C   UNL     1      -1.546  -2.445  24.417  0.00  0.00    +0.252 C 
ATOM      2  O   UNL     1      -0.823  -2.058  24.501  0.00  0.00    -0.471 OA
ENDBRANCH   3   2
ENDBRANCH   9   6
ENDBRANCH  12   9
TORSDOF 4
ENDMDL
