MODEL 1
REMARK VINA RESULT:     -10.3      0.000      0.000
REMARK  Name = 
REMARK  6 active torsions:
REMARK  status: ('A' for Active; 'I' for Inactive)
REMARK    1  A    between atoms: C_2  and  C_3
REMARK    2  A    between atoms: C_6  and  C_7
REMARK    3  A    between atoms: C_7  and  N_8
REMARK    4  A    between atoms: C_12  and  C_13
REMARK    5  A    between atoms: C_15  and  C_18
REMARK    6  A    between atoms: C_21  and  N_24
REMARK                            x       y       z     vdW  Elec       q    Type
REMARK                         _______ _______ _______ _____ _____    ______ ____
ROOT
ATOM     13  C   UNL     1      -3.826   2.721  24.986  0.00  0.00    +0.251 A 
ATOM     14  N   UNL     1      -3.621   1.934  25.117  0.00  0.00    -0.190 NA
ATOM     15  C   UNL     1      -4.026   1.470  24.568  0.00  0.00    +0.205 A 
ATOM     16  N   UNL     1      -4.482   1.971  24.097  0.00  0.00    -0.056 NA
ATOM     17  O   UNL     1      -4.358   2.745  24.356  0.00  0.00    -0.336 OA
ENDROOT
BRANCH  15  18
ATOM     18  C   UNL     1      -3.983   0.649  24.500  0.00  0.00    +0.058 A 
ATOM     19  C   UNL     1      -4.368   0.169  25.051  0.00  0.00    +0.008 A 
ATOM     20  C   UNL     1      -4.325  -0.652  24.983  0.00  0.00    +0.038 A 
ATOM     21  C   UNL     1      -3.898  -0.994  24.365  0.00  0.00    +0.149 A 
ATOM     22  N   UNL     1      -3.514  -0.514  23.815  0.00  0.00    -0.226 NA
ATOM     23  C   UNL     1      -3.556   0.307  23.882  0.00  0.00    +0.104 A 
BRANCH  21  24
ATOM     24  N   UNL     1      -3.855  -1.815  24.298  0.00  0.00    -0.271 N 
ATOM     25  C   UNL     1      -3.335  -2.308  24.708  0.00  0.00    +0.104 A 
ATOM     26  C   UNL     1      -3.484  -3.085  24.472  0.00  0.00    +0.120 A 
ATOM     27  N   UNL     1      -4.094  -3.071  23.917  0.00  0.00    -0.222 NA
ATOM     28  C   UNL     1      -4.323  -2.287  23.810  0.00  0.00    +0.184 A 
ENDBRANCH  21  24
ENDBRANCH  15  18
BRANCH  13  12
ATOM      8  N   UNL     1      -2.811   3.732  25.319  0.00  0.00    -0.260 NA
ATOM      9  C   UNL     1      -2.765   4.358  25.853  0.00  0.00    +0.073 C 
ATOM     10  C   UNL     1      -3.473   4.385  26.276  0.00  0.00    +0.019 C 
ATOM     11  C   UNL     1      -3.957   3.776  26.003  0.00  0.00    +0.027 C 
ATOM     12  C   UNL     1      -3.548   3.372  25.411  0.00  0.00    +0.138 C 
BRANCH   8   7
ATOM      7  C   UNL     1      -2.224   3.506  24.786  0.00  0.00    +0.138 C 
BRANCH   7   6
ATOM      3  C   UNL     1      -0.290   2.991  25.529  0.00  0.00    +0.156 A 
ATOM      4  C   UNL     1      -0.169   3.772  25.294  0.00  0.00    +0.038 A 
ATOM      5  C   UNL     1      -0.877   4.060  24.988  0.00  0.00    +0.037 A 
ATOM      6  C   UNL     1      -1.438   3.456  25.033  0.00  0.00    +0.139 A 
ATOM     29  O   UNL     1      -1.075   2.796  25.367  0.00  0.00    -0.458 OA
BRANCH   3   2
ATOM      1  O   UNL     1       0.586   2.665  26.611  0.00  0.00    -0.212 OA
ATOM      2  C   UNL     1       0.274   2.492  25.866  0.00  0.00    +0.246 C 
ENDBRANCH   3   2
ENDBRANCH   7   6
ENDBRANCH   8   7
ENDBRANCH  13  12
TORSDOF 6
ENDMDL
MODEL 2
REMARK VINA RESULT:      -9.8      2.961      4.891
REMARK  Name = 
REMARK  6 active torsions:
REMARK  status: ('A' for Active; 'I' for Inactive)
REMARK    1  A    between atoms: C_2  and  C_3
REMARK    2  A    between atoms: C_6  and  C_7
REMARK    3  A    between atoms: C_7  and  N_8
REMARK    4  A    between atoms: C_12  and  C_13
REMARK    5  A    between atoms: C_15  and  C_18
REMARK    6  A    between atoms: C_21  and  N_24
REMARK                            x       y       z     vdW  Elec       q    Type
REMARK                         _______ _______ _______ _____ _____    ______ ____
ROOT
ATOM     13  C   UNL     1      -2.349  -0.097  24.829  0.00  0.00    +0.251 A 
ATOM     14  N   UNL     1      -1.808  -0.051  24.208  0.00  0.00    -0.190 NA
ATOM     15  C   UNL     1      -1.050  -0.029  24.531  0.00  0.00    +0.205 A 
ATOM     16  N   UNL     1      -1.121  -0.060  25.352  0.00  0.00    -0.056 NA
ATOM     17  O   UNL     1      -1.925  -0.102  25.537  0.00  0.00    -0.336 OA
ENDROOT
BRANCH  15  18
ATOM     18  C   UNL     1      -0.343   0.017  24.108  0.00  0.00    +0.058 A 
ATOM     19  C   UNL     1      -0.039   0.753  23.892  0.00  0.00    +0.008 A 
ATOM     20  C   UNL     1       0.668   0.799  23.469  0.00  0.00    +0.038 A 
ATOM     21  C   UNL     1       1.071   0.109  23.262  0.00  0.00    +0.149 A 
ATOM     22  N   UNL     1       0.766  -0.627  23.478  0.00  0.00    -0.226 NA
ATOM     23  C   UNL     1       0.059  -0.673  23.901  0.00  0.00    +0.104 A 
BRANCH  21  24
ATOM     24  N   UNL     1       1.777   0.155  22.838  0.00  0.00    -0.271 N 
ATOM     25  C   UNL     1       2.474   0.514  23.096  0.00  0.00    +0.104 A 
ATOM     26  C   UNL     1       3.038   0.430  22.500  0.00  0.00    +0.120 A 
ATOM     27  N   UNL     1       2.691   0.020  21.875  0.00  0.00    -0.222 NA
ATOM     28  C   UNL     1       1.912  -0.150  22.084  0.00  0.00    +0.184 A 
ENDBRANCH  21  24
ENDBRANCH  15  18
BRANCH  13  12
ATOM      8  N   UNL     1      -3.683   0.516  24.742  0.00  0.00    -0.260 NA
ATOM      9  C   UNL     1      -4.452   0.229  24.660  0.00  0.00    +0.073 C 
ATOM     10  C   UNL     1      -4.415  -0.593  24.623  0.00  0.00    +0.019 C 
ATOM     11  C   UNL     1      -3.623  -0.816  24.681  0.00  0.00    +0.027 C 
ATOM     12  C   UNL     1      -3.170  -0.131  24.755  0.00  0.00    +0.138 C 
BRANCH   8   7
ATOM      7  C   UNL     1      -3.465   1.309  24.801  0.00  0.00    +0.138 C 
BRANCH   7   6
ATOM      3  C   UNL     1      -4.996   2.701  25.323  0.00  0.00    +0.156 A 
ATOM      4  C   UNL     1      -4.872   2.890  24.530  0.00  0.00    +0.038 A 
ATOM      5  C   UNL     1      -4.284   2.392  24.237  0.00  0.00    +0.037 A 
ATOM      6  C   UNL     1      -4.044   1.894  24.851  0.00  0.00    +0.139 A 
ATOM     29  O   UNL     1      -4.484   2.086  25.521  0.00  0.00    -0.458 OA
BRANCH   3   2
ATOM      1  O   UNL     1      -5.739   3.857  25.719  0.00  0.00    -0.212 OA
ATOM      2  C   UNL     1      -5.537   3.064  25.829  0.00  0.00    +0.246 C 
ENDBRANCH   3   2
ENDBRANCH   7   6
ENDBRANCH   8   7
ENDBRANCH  13  12
TORSDOF 6
ENDMDL
MODEL 3
REMARK VINA RESULT:      -9.2      2.451      6.016
REMARK  Name = 
REMARK  6 active torsions:
REMARK  status: ('A' for Active; 'I' for Inactive)
REMARK    1  A    between atoms: C_2  and  C_3
REMARK    2  A    between atoms: C_6  and  C_7
REMARK    3  A    between atoms: C_7  and  N_8
REMARK    4  A    between atoms: C_12  and  C_13
REMARK    5  A    between atoms: C_15  and  C_18
REMARK    6  A    between atoms: C_21  and  N_24
REMARK                            x       y       z     vdW  Elec       q    Type
REMARK                         _______ _______ _______ _____ _____    ______ ____
ROOT
ATOM     13  C   UNL     1      -0.500  -0.208  24.482  0.00  0.00    +0.251 A 
ATOM     14  N   UNL     1      -0.752   0.485  24.849  0.00  0.00    -0.190 NA
ATOM     15  C   UNL     1      -0.582   1.117  24.347  0.00  0.00    +0.205 A 
ATOM     16  N   UNL     1      -0.223   0.813  23.669  0.00  0.00    -0.056 NA
ATOM     17  O   UNL     1      -0.173  -0.006  23.752  0.00  0.00    -0.336 OA
ENDROOT
BRANCH  15  18
ATOM     18  C   UNL     1      -0.741   1.912  24.495  0.00  0.00    +0.058 A 
ATOM     19  C   UNL     1      -0.367   2.298  25.121  0.00  0.00    +0.008 A 
ATOM     20  C   UNL     1      -0.527   3.094  25.270  0.00  0.00    +0.038 A 
ATOM     21  C   UNL     1      -1.061   3.504  24.793  0.00  0.00    +0.149 A 
ATOM     22  N   UNL     1      -1.435   3.118  24.167  0.00  0.00    -0.226 NA
ATOM     23  C   UNL     1      -1.275   2.322  24.018  0.00  0.00    +0.104 A 
BRANCH  21  24
ATOM     24  N   UNL     1      -1.220   4.299  24.941  0.00  0.00    -0.271 N 
ATOM     25  C   UNL     1      -1.909   4.600  25.282  0.00  0.00    +0.104 A 
ATOM     26  C   UNL     1      -1.833   5.421  25.327  0.00  0.00    +0.120 A 
ATOM     27  N   UNL     1      -1.098   5.626  25.014  0.00  0.00    -0.222 NA
ATOM     28  C   UNL     1      -0.719   4.934  24.776  0.00  0.00    +0.184 A 
ENDBRANCH  21  24
ENDBRANCH  15  18
BRANCH  13  12
ATOM      8  N   UNL     1      -1.266  -1.361  24.978  0.00  0.00    -0.260 NA
ATOM      9  C   UNL     1      -1.072  -2.108  25.270  0.00  0.00    +0.073 C 
ATOM     10  C   UNL     1      -0.251  -2.179  25.263  0.00  0.00    +0.019 C 
ATOM     11  C   UNL     1       0.064  -1.477  24.968  0.00  0.00    +0.027 C 
ATOM     12  C   UNL     1      -0.563  -0.971  24.791  0.00  0.00    +0.138 C 
BRANCH   8   7
ATOM      7  C   UNL     1      -2.027  -1.058  24.889  0.00  0.00    +0.138 C 
BRANCH   7   6
ATOM      3  C   UNL     1      -3.614  -2.391  24.375  0.00  0.00    +0.156 A 
ATOM      4  C   UNL     1      -3.721  -2.321  25.189  0.00  0.00    +0.038 A 
ATOM      5  C   UNL     1      -3.141  -1.815  25.481  0.00  0.00    +0.037 A 
ATOM      6  C   UNL     1      -2.673  -1.570  24.846  0.00  0.00    +0.139 A 
ATOM     29  O   UNL     1      -2.967  -1.926  24.163  0.00  0.00    -0.458 OA
BRANCH   3   2
ATOM      1  O   UNL     1      -4.742  -2.516  23.505  0.00  0.00    -0.212 OA
ATOM      2  C   UNL     1      -4.074  -2.845  23.862  0.00  0.00    +0.246 C 
ENDBRANCH   3   2
ENDBRANCH   7   6
ENDBRANCH   8   7
ENDBRANCH  13  12
TORSDOF 6
ENDMDL
MODEL 4
REMARK VINA RESULT:      -9.2      1.426      2.799
REMARK  Name = 
REMARK  6 active torsions:
REMARK  status: ('A' for Active; 'I' for Inactive)
REMARK    1  A    between atoms: C_2  and  C_3
REMARK    2  A    between atoms: C_6  and  C_7
REMARK    3  A    between atoms: C_7  and  N_8
REMARK    4  A    between atoms: C_12  and  C_13
REMARK    5  A    between atoms: C_15  and  C_18
REMARK    6  A    between atoms: C_21  and  N_24
REMARK                            x       y       z     vdW  Elec       q    Type
REMARK                         _______ _______ _______ _____ _____    ______ ____
ROOT
ATOM     13  C   UNL     1      -1.003   1.890  25.219  0.00  0.00    +0.251 A 
ATOM     14  N   UNL     1      -1.567   1.385  24.894  0.00  0.00    -0.190 NA
ATOM     15  C   UNL     1      -1.446   0.631  25.206  0.00  0.00    +0.205 A 
ATOM     16  N   UNL     1      -0.806   0.670  25.725  0.00  0.00    -0.056 NA
ATOM     17  O   UNL     1      -0.531   1.449  25.733  0.00  0.00    -0.336 OA
ENDROOT
BRANCH  15  18
ATOM     18  C   UNL     1      -1.887  -0.044  25.031  0.00  0.00    +0.058 A 
ATOM     19  C   UNL     1      -2.657  -0.119  25.316  0.00  0.00    +0.008 A 
ATOM     20  C   UNL     1      -3.098  -0.793  25.142  0.00  0.00    +0.038 A 
ATOM     21  C   UNL     1      -2.769  -1.394  24.681  0.00  0.00    +0.149 A 
ATOM     22  N   UNL     1      -1.998  -1.319  24.396  0.00  0.00    -0.226 NA
ATOM     23  C   UNL     1      -1.557  -0.644  24.571  0.00  0.00    +0.104 A 
BRANCH  21  24
ATOM     24  N   UNL     1      -3.210  -2.069  24.506  0.00  0.00    -0.271 N 
ATOM     25  C   UNL     1      -3.860  -2.105  23.999  0.00  0.00    +0.104 A 
ATOM     26  C   UNL     1      -4.130  -2.884  23.987  0.00  0.00    +0.120 A 
ATOM     27  N   UNL     1      -3.647  -3.329  24.486  0.00  0.00    -0.222 NA
ATOM     28  C   UNL     1      -3.079  -2.826  24.807  0.00  0.00    +0.184 A 
ENDBRANCH  21  24
ENDBRANCH  15  18
BRANCH  13  12
ATOM      8  N   UNL     1      -1.348   3.305  25.416  0.00  0.00    -0.260 NA
ATOM      9  C   UNL     1      -1.092   4.019  25.090  0.00  0.00    +0.073 C 
ATOM     10  C   UNL     1      -0.509   3.850  24.532  0.00  0.00    +0.019 C 
ATOM     11  C   UNL     1      -0.404   3.032  24.512  0.00  0.00    +0.027 C 
ATOM     12  C   UNL     1      -0.923   2.696  25.058  0.00  0.00    +0.138 C 
BRANCH   8   7
ATOM      7  C   UNL     1      -1.927   3.217  25.996  0.00  0.00    +0.138 C 
BRANCH   7   6
ATOM      3  C   UNL     1      -3.899   3.931  25.599  0.00  0.00    +0.156 A 
ATOM      4  C   UNL     1      -3.595   4.547  26.055  0.00  0.00    +0.038 A 
ATOM      5  C   UNL     1      -2.820   4.356  26.259  0.00  0.00    +0.037 A 
ATOM      6  C   UNL     1      -2.644   3.619  25.929  0.00  0.00    +0.139 A 
ATOM     29  O   UNL     1      -3.311   3.358  25.522  0.00  0.00    -0.458 OA
BRANCH   3   2
ATOM      1  O   UNL     1      -5.246   3.455  25.656  0.00  0.00    -0.212 OA
ATOM      2  C   UNL     1      -4.658   3.894  25.277  0.00  0.00    +0.246 C 
ENDBRANCH   3   2
ENDBRANCH   7   6
ENDBRANCH   8   7
ENDBRANCH  13  12
TORSDOF 6
ENDMDL
MODEL 5
REMARK VINA RESULT:      -9.1      1.695      5.111
REMARK  Name = 
REMARK  6 active torsions:
REMARK  status: ('A' for Active; 'I' for Inactive)
REMARK    1  A    between atoms: C_2  and  C_3
REMARK    2  A    between atoms: C_6  and  C_7
REMARK    3  A    between atoms: C_7  and  N_8
REMARK    4  A    between atoms: C_12  and  C_13
REMARK    5  A    between atoms: C_15  and  C_18
REMARK    6  A    between atoms: C_21  and  N_24
REMARK                            x       y       z     vdW  Elec       q    Type
REMARK                         _______ _______ _______ _____ _____    ______ ____
ROOT
ATOM     13  C   UNL     1      -4.023   0.189  24.713  0.00  0.00    +0.251 A 
ATOM     14  N   UNL     1      -3.436   0.750  24.567  0.00  0.00    -0.190 NA
ATOM     15  C   UNL     1      -3.628   1.435  24.984  0.00  0.00    +0.205 A 
ATOM     16  N   UNL     1      -4.334   1.298  25.388  0.00  0.00    -0.056 NA
ATOM     17  O   UNL     1      -4.578   0.528  25.220  0.00  0.00    -0.336 OA
ENDROOT
BRANCH  15  18
ATOM     18  C   UNL     1      -3.192   2.135  24.995  0.00  0.00    +0.058 A 
ATOM     19  C   UNL     1      -3.531   2.838  24.728  0.00  0.00    +0.008 A 
ATOM     20  C   UNL     1      -3.095   3.538  24.739  0.00  0.00    +0.038 A 
ATOM     21  C   UNL     1      -2.318   3.535  25.018  0.00  0.00    +0.149 A 
ATOM     22  N   UNL     1      -1.979   2.832  25.285  0.00  0.00    -0.226 NA
ATOM     23  C   UNL     1      -2.415   2.132  25.274  0.00  0.00    +0.104 A 
BRANCH  21  24
ATOM     24  N   UNL     1      -1.881   4.235  25.029  0.00  0.00    -0.271 N 
ATOM     25  C   UNL     1      -1.084   4.312  24.831  0.00  0.00    +0.104 A 
ATOM     26  C   UNL     1      -0.875   5.105  24.920  0.00  0.00    +0.120 A 
ATOM     27  N   UNL     1      -1.544   5.518  25.173  0.00  0.00    -0.222 NA
ATOM     28  C   UNL     1      -2.165   4.980  25.240  0.00  0.00    +0.184 A 
ENDBRANCH  21  24
ENDBRANCH  15  18
BRANCH  13  12
ATOM      8  N   UNL     1      -3.587  -1.214  24.653  0.00  0.00    -0.260 NA
ATOM      9  C   UNL     1      -3.795  -1.870  24.197  0.00  0.00    +0.073 C 
ATOM     10  C   UNL     1      -4.383  -1.637  23.668  0.00  0.00    +0.019 C 
ATOM     11  C   UNL     1      -4.541  -0.838  23.797  0.00  0.00    +0.027 C 
ATOM     12  C   UNL     1      -4.049  -0.576  24.405  0.00  0.00    +0.138 C 
BRANCH   8   7
ATOM      7  C   UNL     1      -3.020  -1.199  25.250  0.00  0.00    +0.138 C 
BRANCH   7   6
ATOM      3  C   UNL     1      -0.967  -1.653  24.881  0.00  0.00    +0.156 A 
ATOM      4  C   UNL     1      -1.286  -2.409  24.957  0.00  0.00    +0.038 A 
ATOM      5  C   UNL     1      -2.093  -2.332  25.105  0.00  0.00    +0.037 A 
ATOM      6  C   UNL     1      -2.273  -1.526  25.120  0.00  0.00    +0.139 A 
ATOM     29  O   UNL     1      -1.577  -1.107  24.982  0.00  0.00    -0.458 OA
BRANCH   3   2
ATOM      1  O   UNL     1       0.018  -0.891  24.179  0.00  0.00    -0.212 OA
ATOM      2  C   UNL     1      -0.175  -1.473  24.731  0.00  0.00    +0.246 C 
ENDBRANCH   3   2
ENDBRANCH   7   6
ENDBRANCH   8   7
ENDBRANCH  13  12
TORSDOF 6
ENDMDL
MODEL 6
REMARK VINA RESULT:      -9.0      2.445      5.102
REMARK  Name = 
REMARK  6 active torsions:
REMARK  status: ('A' for Active; 'I' for Inactive)
REMARK    1  A    between atoms: C_2  and  C_3
REMARK    2  A    between atoms: C_6  and  C_7
REMARK    3  A    between atoms: C_7  and  N_8
REMARK    4  A    between atoms: C_12  and  C_13
REMARK    5  A    between atoms: C_15  and  C_18
REMARK    6  A    between atoms: C_21  and  N_24
REMARK                            x       y       z     vdW  Elec       q    Type
REMARK                         _______ _______ _______ _____ _____    ______ ____
ROOT
ATOM     13  C   UNL     1      -0.737   1.160  24.571  0.00  0.00    +0.251 A 
ATOM     14  N   UNL     1      -1.538   1.343  24.503  0.00  0.00    -0.190 NA
ATOM     15  C   UNL     1      -1.700   1.974  25.010  0.00  0.00    +0.205 A 
ATOM     16  N   UNL     1      -0.998   2.181  25.390  0.00  0.00    -0.056 NA
ATOM     17  O   UNL     1      -0.403   1.678  25.119  0.00  0.00    -0.336 OA
ENDROOT
BRANCH  15  18
ATOM     18  C   UNL     1      -2.434   2.334  25.117  0.00  0.00    +0.058 A 
ATOM     19  C   UNL     1      -2.478   3.098  25.426  0.00  0.00    +0.008 A 
ATOM     20  C   UNL     1      -3.212   3.458  25.533  0.00  0.00    +0.038 A 
ATOM     21  C   UNL     1      -3.903   3.055  25.331  0.00  0.00    +0.149 A 
ATOM     22  N   UNL     1      -3.859   2.291  25.023  0.00  0.00    -0.226 NA
ATOM     23  C   UNL     1      -3.125   1.931  24.915  0.00  0.00    +0.104 A 
BRANCH  21  24
ATOM     24  N   UNL     1      -4.637   3.416  25.439  0.00  0.00    -0.271 N 
ATOM     25  C   UNL     1      -4.834   4.188  25.223  0.00  0.00    +0.104 A 
ATOM     26  C   UNL     1      -5.622   4.317  25.431  0.00  0.00    +0.120 A 
ATOM     27  N   UNL     1      -5.911   3.625  25.776  0.00  0.00    -0.222 NA
ATOM     28  C   UNL     1      -5.303   3.069  25.780  0.00  0.00    +0.184 A 
ENDBRANCH  21  24
ENDBRANCH  15  18
BRANCH  13  12
ATOM      8  N   UNL     1      -0.353  -0.241  24.345  0.00  0.00    -0.260 NA
ATOM      9  C   UNL     1       0.118  -0.635  23.794  0.00  0.00    +0.073 C 
ATOM     10  C   UNL     1       0.423  -0.074  23.272  0.00  0.00    +0.019 C 
ATOM     11  C   UNL     1       0.140   0.666  23.498  0.00  0.00    +0.027 C 
ATOM     12  C   UNL     1      -0.340   0.563  24.162  0.00  0.00    +0.138 C 
BRANCH   8   7
ATOM      7  C   UNL     1      -0.765  -0.590  24.967  0.00  0.00    +0.138 C 
BRANCH   7   6
ATOM      3  C   UNL     1      -2.090  -2.216  24.570  0.00  0.00    +0.156 A 
ATOM      4  C   UNL     1      -1.407  -2.619  24.796  0.00  0.00    +0.038 A 
ATOM      5  C   UNL     1      -0.828  -2.060  24.972  0.00  0.00    +0.037 A 
ATOM      6  C   UNL     1      -1.153  -1.310  24.855  0.00  0.00    +0.139 A 
ATOM     29  O   UNL     1      -1.933  -1.407  24.606  0.00  0.00    -0.458 OA
BRANCH   3   2
ATOM      1  O   UNL     1      -3.368  -2.754  24.919  0.00  0.00    -0.212 OA
ATOM      2  C   UNL     1      -2.805  -2.562  24.346  0.00  0.00    +0.246 C 
ENDBRANCH   3   2
ENDBRANCH   7   6
ENDBRANCH   8   7
ENDBRANCH  13  12
TORSDOF 6
ENDMDL
MODEL 7
REMARK VINA RESULT:      -9.0      2.658      4.523
REMARK  Name = 
REMARK  6 active torsions:
REMARK  status: ('A' for Active; 'I' for Inactive)
REMARK    1  A    between atoms: C_2  and  C_3
REMARK    2  A    between atoms: C_6  and  C_7
REMARK    3  A    between atoms: C_7  and  N_8
REMARK    4  A    between atoms: C_12  and  C_13
REMARK    5  A    between atoms: C_15  and  C_18
REMARK    6  A    between atoms: C_21  and  N_24
REMARK                            x       y       z     vdW  Elec       q    Type
REMARK                         _______ _______ _______ _____ _____    ______ ____
ROOT
ATOM     13  C   UNL     1      -2.179  -0.539  24.581  0.00  0.00    +0.251 A 
ATOM     14  N   UNL     1      -2.458   0.157  24.923  0.00  0.00    -0.190 NA
ATOM     15  C   UNL     1      -3.210   0.307  24.618  0.00  0.00    +0.205 A 
ATOM     16  N   UNL     1      -3.396  -0.297  24.088  0.00  0.00    -0.056 NA
ATOM     17  O   UNL     1      -2.758  -0.821  24.065  0.00  0.00    -0.336 OA
ENDROOT
BRANCH  15  18
ATOM     18  C   UNL     1      -3.693   0.948  24.810  0.00  0.00    +0.058 A 
ATOM     19  C   UNL     1      -4.492   0.828  24.976  0.00  0.00    +0.008 A 
ATOM     20  C   UNL     1      -4.974   1.469  25.168  0.00  0.00    +0.038 A 
ATOM     21  C   UNL     1      -4.657   2.231  25.194  0.00  0.00    +0.149 A 
ATOM     22  N   UNL     1      -3.858   2.350  25.028  0.00  0.00    -0.226 NA
ATOM     23  C   UNL     1      -3.376   1.709  24.836  0.00  0.00    +0.104 A 
BRANCH  21  24
ATOM     24  N   UNL     1      -5.140   2.872  25.386  0.00  0.00    -0.271 N 
ATOM     25  C   UNL     1      -4.972   3.666  25.238  0.00  0.00    +0.104 A 
ATOM     26  C   UNL     1      -5.603   4.116  25.520  0.00  0.00    +0.120 A 
ATOM     27  N   UNL     1      -6.160   3.600  25.842  0.00  0.00    -0.222 NA
ATOM     28  C   UNL     1      -5.874   2.832  25.759  0.00  0.00    +0.184 A 
ENDBRANCH  21  24
ENDBRANCH  15  18
BRANCH  13  12
ATOM      8  N   UNL     1      -0.732  -0.694  24.370  0.00  0.00    -0.260 NA
ATOM      9  C   UNL     1      -0.146  -1.185  24.681  0.00  0.00    +0.073 C 
ATOM     10  C   UNL     1      -0.500  -1.686  25.233  0.00  0.00    +0.019 C 
ATOM     11  C   UNL     1      -1.304  -1.505  25.263  0.00  0.00    +0.027 C 
ATOM     12  C   UNL     1      -1.448  -0.893  24.729  0.00  0.00    +0.138 C 
BRANCH   8   7
ATOM      7  C   UNL     1      -0.621  -0.110  23.800  0.00  0.00    +0.138 C 
BRANCH   7   6
ATOM      3  C   UNL     1       1.320   0.079  22.931  0.00  0.00    +0.156 A 
ATOM      4  C   UNL     1       1.307   0.730  23.438  0.00  0.00    +0.038 A 
ATOM      5  C   UNL     1       0.580   0.739  23.825  0.00  0.00    +0.037 A 
ATOM      6  C   UNL     1       0.141   0.092  23.557  0.00  0.00    +0.139 A 
ATOM     29  O   UNL     1       0.599  -0.314  23.005  0.00  0.00    -0.458 OA
BRANCH   3   2
ATOM      1  O   UNL     1       2.657   0.275  22.465  0.00  0.00    -0.212 OA
ATOM      2  C   UNL     1       1.943  -0.139  22.437  0.00  0.00    +0.246 C 
ENDBRANCH   3   2
ENDBRANCH   7   6
ENDBRANCH   8   7
ENDBRANCH  13  12
TORSDOF 6
ENDMDL
MODEL 8
REMARK VINA RESULT:      -9.0      2.778      4.554
REMARK  Name = 
REMARK  6 active torsions:
REMARK  status: ('A' for Active; 'I' for Inactive)
REMARK    1  A    between atoms: C_2  and  C_3
REMARK    2  A    between atoms: C_6  and  C_7
REMARK    3  A    between atoms: C_7  and  N_8
REMARK    4  A    between atoms: C_12  and  C_13
REMARK    5  A    between atoms: C_15  and  C_18
REMARK    6  A    between atoms: C_21  and  N_24
REMARK                            x       y       z     vdW  Elec       q    Type
REMARK                         _______ _______ _______ _____ _____    ______ ____
ROOT
ATOM     13  C   UNL     1      -1.502   2.673  25.391  0.00  0.00    +0.251 A 
ATOM     14  N   UNL     1      -1.058   2.478  24.725  0.00  0.00    -0.190 NA
ATOM     15  C   UNL     1      -0.550   1.861  24.928  0.00  0.00    +0.205 A 
ATOM     16  N   UNL     1      -0.680   1.674  25.721  0.00  0.00    -0.056 NA
ATOM     17  O   UNL     1      -1.268   2.177  26.007  0.00  0.00    -0.336 OA
ENDROOT
BRANCH  15  18
ATOM     18  C   UNL     1      -0.007   1.494  24.427  0.00  0.00    +0.058 A 
ATOM     19  C   UNL     1      -0.197   0.777  24.066  0.00  0.00    +0.008 A 
ATOM     20  C   UNL     1       0.346   0.410  23.565  0.00  0.00    +0.038 A 
ATOM     21  C   UNL     1       1.080   0.761  23.424  0.00  0.00    +0.149 A 
ATOM     22  N   UNL     1       1.269   1.478  23.784  0.00  0.00    -0.226 NA
ATOM     23  C   UNL     1       0.727   1.845  24.285  0.00  0.00    +0.104 A 
BRANCH  21  24
ATOM     24  N   UNL     1       1.623   0.394  22.923  0.00  0.00    -0.271 N 
ATOM     25  C   UNL     1       2.442   0.488  22.944  0.00  0.00    +0.104 A 
ATOM     26  C   UNL     1       2.767   0.021  22.346  0.00  0.00    +0.120 A 
ATOM     27  N   UNL     1       2.149  -0.362  21.957  0.00  0.00    -0.222 NA
ATOM     28  C   UNL     1       1.442  -0.131  22.313  0.00  0.00    +0.184 A 
ENDBRANCH  21  24
ENDBRANCH  15  18
BRANCH  13  12
ATOM      8  N   UNL     1      -2.874   3.177  25.231  0.00  0.00    -0.260 NA
ATOM      9  C   UNL     1      -3.247   3.902  25.359  0.00  0.00    +0.073 C 
ATOM     10  C   UNL     1      -2.684   4.433  25.642  0.00  0.00    +0.019 C 
ATOM     11  C   UNL     1      -1.961   4.038  25.688  0.00  0.00    +0.027 C 
ATOM     12  C   UNL     1      -2.079   3.262  25.434  0.00  0.00    +0.138 C 
BRANCH   8   7
ATOM      7  C   UNL     1      -3.232   2.490  24.949  0.00  0.00    +0.138 C 
BRANCH   7   6
ATOM      3  C   UNL     1      -5.296   2.183  25.398  0.00  0.00    +0.156 A 
ATOM      4  C   UNL     1      -5.336   2.407  24.605  0.00  0.00    +0.038 A 
ATOM      5  C   UNL     1      -4.569   2.549  24.340  0.00  0.00    +0.037 A 
ATOM      6  C   UNL     1      -4.053   2.413  24.971  0.00  0.00    +0.139 A 
ATOM     29  O   UNL     1      -4.502   2.187  25.623  0.00  0.00    -0.458 OA
BRANCH   3   2
ATOM      1  O   UNL     1      -6.119   2.461  26.533  0.00  0.00    -0.212 OA
ATOM      2  C   UNL     1      -5.936   1.989  25.881  0.00  0.00    +0.246 C 
ENDBRANCH   3   2
ENDBRANCH   7   6
ENDBRANCH   8   7
ENDBRANCH  13  12
TORSDOF 6
ENDMDL
