MODEL 1
REMARK VINA RESULT:     -15.0      0.000      0.000
REMARK  Name = 
REMARK  3 active torsions:
REMARK  status: ('A' for Active; 'I' for Inactive)
REMARK    1  A    between atoms: O_2  and  C_3
REMARK    2  A    between atoms: C_6  and  C_9
REMARK    3  A    between atoms: N_19  and  C_20
REMARK                            x       y       z     vdW  Elec       q    Type
REMARK                         _______ _______ _______ _____ _____    ______ ____
ROOT
ATOM      9  C   UNL     1      -2.088   1.903  24.876  0.00  0.00    +0.012 A 
ATOM     10  C   UNL     1      -2.906   1.812  24.834  0.00  0.00    +0.041 A 
ATOM     11  C   UNL     1      -3.680   2.308  24.814  0.00  0.00    +0.058 C 
ATOM     12  C   UNL     1      -3.909   2.971  24.827  0.00  0.00    +0.011 C 
ATOM     13  C   UNL     1      -4.230   2.224  24.785  0.00  0.00    +0.043 C 
ATOM     14  C   UNL     1      -4.800   1.418  24.729  0.00  0.00    +0.097 C 
ATOM     15  N   UNL     1      -4.209   0.828  24.737  0.00  0.00    -0.262 N 
ATOM     16  C   UNL     1      -4.244   1.539  24.760  0.00  0.00    +0.101 C 
ATOM     17  C   UNL     1      -3.874   0.073  24.727  0.00  0.00    +0.327 C 
ATOM     18  O   UNL     1      -3.054  -0.015  24.763  0.00  0.00    -0.250 OA
ATOM     19  N   UNL     1      -4.359  -0.592  24.680  0.00  0.00    -0.162 NA
ATOM     26  C   UNL     1      -3.428   1.697  24.805  0.00  0.00    +0.110 C 
ATOM     27  N   UNL     1      -3.235   1.056  24.792  0.00  0.00    -0.299 N 
ATOM     28  C   UNL     1      -2.746   0.392  24.792  0.00  0.00    +0.261 A 
ATOM     29  O   UNL     1      -2.825  -0.428  24.759  0.00  0.00    -0.267 OA
ATOM     30  C   UNL     1      -1.927   0.484  24.834  0.00  0.00    +0.061 A 
ATOM     31  C   UNL     1      -1.598   1.240  24.877  0.00  0.00    +0.006 A 
ENDROOT
BRANCH   9   6
ATOM      3  C   UNL     1      -1.101   4.170  25.003  0.00  0.00    +0.139 A 
ATOM      4  C   UNL     1      -1.190   3.800  24.272  0.00  0.00    +0.037 A 
ATOM      5  C   UNL     1      -1.519   3.044  24.230  0.00  0.00    +0.003 A 
ATOM      6  C   UNL     1      -1.759   2.659  24.919  0.00  0.00    +0.001 A 
ATOM      7  C   UNL     1      -1.669   3.029  25.650  0.00  0.00    +0.003 A 
ATOM      8  C   UNL     1      -1.340   3.785  25.693  0.00  0.00    +0.037 A 
BRANCH   3   2
ATOM      1  C   UNL     1      -1.260   5.590  25.011  0.00  0.00    +0.252 C 
ATOM      2  O   UNL     1      -0.772   4.925  25.046  0.00  0.00    -0.471 OA
ENDBRANCH   3   2
ENDBRANCH   9   6
BRANCH  19  20
ATOM     20  C   UNL     1      -4.024  -1.346  24.669  0.00  0.00    +0.075 A 
ATOM     21  C   UNL     1      -3.786  -1.702  25.375  0.00  0.00    +0.017 A 
ATOM     22  C   UNL     1      -3.451  -2.456  25.364  0.00  0.00    +0.001 A 
ATOM     23  C   UNL     1      -3.355  -2.855  24.648  0.00  0.00    +0.000 A 
ATOM     24  C   UNL     1      -3.594  -2.499  23.943  0.00  0.00    +0.001 A 
ATOM     25  C   UNL     1      -3.928  -1.745  23.953  0.00  0.00    +0.017 A 
ENDBRANCH  19  20
TORSDOF 3
ENDMDL
MODEL 2
REMARK VINA RESULT:     -14.8      1.249      4.689
REMARK  Name = 
REMARK  3 active torsions:
REMARK  status: ('A' for Active; 'I' for Inactive)
REMARK    1  A    between atoms: O_2  and  C_3
REMARK    2  A    between atoms: C_6  and  C_9
REMARK    3  A    between atoms: N_19  and  C_20
REMARK                            x       y       z     vdW  Elec       q    Type
REMARK                         _______ _______ _______ _____ _____    ______ ____
ROOT
ATOM      9  C   UNL     1      -3.288   0.426  24.690  0.00  0.00    +0.012 A 
ATOM     10  C   UNL     1      -3.869   0.995  24.829  0.00  0.00    +0.041 A 
ATOM     11  C   UNL     1      -4.779   1.076  24.932  0.00  0.00    +0.058 C 
ATOM     12  C   UNL     1      -5.368   0.695  24.938  0.00  0.00    +0.011 C 
ATOM     13  C   UNL     1      -5.155   1.476  25.026  0.00  0.00    +0.043 C 
ATOM     14  C   UNL     1      -5.100   2.454  25.157  0.00  0.00    +0.097 C 
ATOM     15  N   UNL     1      -4.274   2.558  25.089  0.00  0.00    -0.262 N 
ATOM     16  C   UNL     1      -4.742   2.021  25.061  0.00  0.00    +0.101 C 
ATOM     17  C   UNL     1      -3.546   2.946  25.070  0.00  0.00    +0.327 C 
ATOM     18  O   UNL     1      -2.852   2.518  24.940  0.00  0.00    -0.250 OA
ATOM     19  N   UNL     1      -3.511   3.763  25.181  0.00  0.00    -0.162 NA
ATOM     26  C   UNL     1      -4.204   1.401  24.919  0.00  0.00    +0.110 C 
ATOM     27  N   UNL     1      -3.657   1.787  24.918  0.00  0.00    -0.299 N 
ATOM     28  C   UNL     1      -2.865   2.011  24.870  0.00  0.00    +0.261 A 
ATOM     29  O   UNL     1      -2.419   2.702  24.922  0.00  0.00    -0.267 OA
ATOM     30  C   UNL     1      -2.284   1.442  24.731  0.00  0.00    +0.061 A 
ATOM     31  C   UNL     1      -2.496   0.649  24.642  0.00  0.00    +0.006 A 
ENDROOT
BRANCH   9   6
ATOM      3  C   UNL     1      -3.924  -1.951  24.421  0.00  0.00    +0.139 A 
ATOM      4  C   UNL     1      -3.930  -1.446  23.769  0.00  0.00    +0.037 A 
ATOM      5  C   UNL     1      -3.718  -0.654  23.859  0.00  0.00    +0.003 A 
ATOM      6  C   UNL     1      -3.500  -0.366  24.601  0.00  0.00    +0.001 A 
ATOM      7  C   UNL     1      -3.494  -0.871  25.253  0.00  0.00    +0.003 A 
ATOM      8  C   UNL     1      -3.706  -1.664  25.163  0.00  0.00    +0.037 A 
BRANCH   3   2
ATOM      1  C   UNL     1      -3.551  -3.322  24.268  0.00  0.00    +0.252 C 
ATOM      2  O   UNL     1      -4.135  -2.743  24.331  0.00  0.00    -0.471 OA
ENDBRANCH   3   2
ENDBRANCH   9   6
BRANCH  19  20
ATOM     20  C   UNL     1      -2.783   4.151  25.162  0.00  0.00    +0.075 A 
ATOM     21  C   UNL     1      -2.336   4.224  25.852  0.00  0.00    +0.017 A 
ATOM     22  C   UNL     1      -1.609   4.613  25.832  0.00  0.00    +0.001 A 
ATOM     23  C   UNL     1      -1.328   4.928  25.123  0.00  0.00    +0.000 A 
ATOM     24  C   UNL     1      -1.775   4.855  24.434  0.00  0.00    +0.001 A 
ATOM     25  C   UNL     1      -2.502   4.467  24.453  0.00  0.00    +0.017 A 
ENDBRANCH  19  20
TORSDOF 3
ENDMDL
MODEL 3
REMARK VINA RESULT:     -14.0      1.320      4.972
REMARK  Name = 
REMARK  3 active torsions:
REMARK  status: ('A' for Active; 'I' for Inactive)
REMARK    1  A    between atoms: O_2  and  C_3
REMARK    2  A    between atoms: C_6  and  C_9
REMARK    3  A    between atoms: N_19  and  C_20
REMARK                            x       y       z     vdW  Elec       q    Type
REMARK                         _______ _______ _______ _____ _____    ______ ____
ROOT
ATOM      9  C   UNL     1      -3.097   0.616  24.482  0.00  0.00    +0.012 A 
ATOM     10  C   UNL     1      -2.363   0.651  24.857  0.00  0.00    +0.041 A 
ATOM     11  C   UNL     1      -1.715   0.102  25.209  0.00  0.00    +0.058 C 
ATOM     12  C   UNL     1      -1.563  -0.575  25.312  0.00  0.00    +0.011 C 
ATOM     13  C   UNL     1      -1.220   0.148  25.462  0.00  0.00    +0.043 C 
ATOM     14  C   UNL     1      -0.651   0.912  25.725  0.00  0.00    +0.097 C 
ATOM     15  N   UNL     1      -1.130   1.542  25.456  0.00  0.00    -0.262 N 
ATOM     16  C   UNL     1      -1.154   0.830  25.470  0.00  0.00    +0.101 C 
ATOM     17  C   UNL     1      -1.368   2.318  25.305  0.00  0.00    +0.327 C 
ATOM     18  O   UNL     1      -2.089   2.463  24.930  0.00  0.00    -0.250 OA
ATOM     19  N   UNL     1      -0.886   2.948  25.529  0.00  0.00    -0.162 NA
ATOM     26  C   UNL     1      -1.891   0.729  25.096  0.00  0.00    +0.110 C 
ATOM     27  N   UNL     1      -2.012   1.381  25.010  0.00  0.00    -0.299 N 
ATOM     28  C   UNL     1      -2.395   2.078  24.788  0.00  0.00    +0.261 A 
ATOM     29  O   UNL     1      -2.260   2.890  24.827  0.00  0.00    -0.267 OA
ATOM     30  C   UNL     1      -3.128   2.043  24.413  0.00  0.00    +0.061 A 
ATOM     31  C   UNL     1      -3.479   1.312  24.260  0.00  0.00    +0.006 A 
ENDROOT
BRANCH   9   6
ATOM      3  C   UNL     1      -4.150  -1.577  24.023  0.00  0.00    +0.139 A 
ATOM      4  C   UNL     1      -3.711  -1.199  23.435  0.00  0.00    +0.037 A 
ATOM      5  C   UNL     1      -3.360  -0.468  23.588  0.00  0.00    +0.003 A 
ATOM      6  C   UNL     1      -3.448  -0.115  24.329  0.00  0.00    +0.001 A 
ATOM      7  C   UNL     1      -3.886  -0.493  24.916  0.00  0.00    +0.003 A 
ATOM      8  C   UNL     1      -4.237  -1.224  24.763  0.00  0.00    +0.037 A 
BRANCH   3   2
ATOM      1  C   UNL     1      -4.095  -3.005  24.044  0.00  0.00    +0.252 C 
ATOM      2  O   UNL     1      -4.500  -2.307  23.870  0.00  0.00    -0.471 OA
ENDBRANCH   3   2
ENDBRANCH   9   6
BRANCH  19  20
ATOM     20  C   UNL     1      -1.124   3.724  25.378  0.00  0.00    +0.075 A 
ATOM     21  C   UNL     1      -1.686   4.085  25.864  0.00  0.00    +0.017 A 
ATOM     22  C   UNL     1      -1.923   4.860  25.712  0.00  0.00    +0.001 A 
ATOM     23  C   UNL     1      -1.599   5.275  25.076  0.00  0.00    +0.000 A 
ATOM     24  C   UNL     1      -1.038   4.913  24.592  0.00  0.00    +0.001 A 
ATOM     25  C   UNL     1      -0.800   4.138  24.742  0.00  0.00    +0.017 A 
ENDBRANCH  19  20
TORSDOF 3
ENDMDL
MODEL 4
REMARK VINA RESULT:     -13.3      1.044      2.027
REMARK  Name = 
REMARK  3 active torsions:
REMARK  status: ('A' for Active; 'I' for Inactive)
REMARK    1  A    between atoms: O_2  and  C_3
REMARK    2  A    between atoms: C_6  and  C_9
REMARK    3  A    between atoms: N_19  and  C_20
REMARK                            x       y       z     vdW  Elec       q    Type
REMARK                         _______ _______ _______ _____ _____    ______ ____
ROOT
ATOM      9  C   UNL     1      -2.310   1.908  25.002  0.00  0.00    +0.012 A 
ATOM     10  C   UNL     1      -1.691   1.383  24.856  0.00  0.00    +0.041 A 
ATOM     11  C   UNL     1      -0.780   1.370  24.736  0.00  0.00    +0.058 C 
ATOM     12  C   UNL     1      -0.221   1.794  24.716  0.00  0.00    +0.011 C 
ATOM     13  C   UNL     1      -0.376   0.998  24.638  0.00  0.00    +0.043 C 
ATOM     14  C   UNL     1      -0.359   0.018  24.515  0.00  0.00    +0.097 C 
ATOM     15  N   UNL     1      -1.174  -0.147  24.600  0.00  0.00    -0.262 N 
ATOM     16  C   UNL     1      -0.748   0.423  24.615  0.00  0.00    +0.101 C 
ATOM     17  C   UNL     1      -1.870  -0.589  24.636  0.00  0.00    +0.327 C 
ATOM     18  O   UNL     1      -2.591  -0.213  24.777  0.00  0.00    -0.250 OA
ATOM     19  N   UNL     1      -1.845  -1.407  24.532  0.00  0.00    -0.162 NA
ATOM     26  C   UNL     1      -1.328   1.002  24.762  0.00  0.00    +0.110 C 
ATOM     27  N   UNL     1      -1.844   0.576  24.777  0.00  0.00    -0.299 N 
ATOM     28  C   UNL     1      -2.616   0.294  24.842  0.00  0.00    +0.261 A 
ATOM     29  O   UNL     1      -3.010  -0.430  24.804  0.00  0.00    -0.267 OA
ATOM     30  C   UNL     1      -3.236   0.819  24.988  0.00  0.00    +0.061 A 
ATOM     31  C   UNL     1      -3.083   1.626  25.067  0.00  0.00    +0.006 A 
ENDROOT
BRANCH   9   6
ATOM      3  C   UNL     1      -1.851   4.329  25.241  0.00  0.00    +0.139 A 
ATOM      4  C   UNL     1      -1.808   3.834  25.899  0.00  0.00    +0.037 A 
ATOM      5  C   UNL     1      -1.961   3.027  25.819  0.00  0.00    +0.003 A 
ATOM      6  C   UNL     1      -2.157   2.715  25.081  0.00  0.00    +0.001 A 
ATOM      7  C   UNL     1      -2.201   3.210  24.423  0.00  0.00    +0.003 A 
ATOM      8  C   UNL     1      -2.048   4.017  24.503  0.00  0.00    +0.037 A 
BRANCH   3   2
ATOM      1  C   UNL     1      -1.045   5.470  24.944  0.00  0.00    +0.252 C 
ATOM      2  O   UNL     1      -1.698   5.135  25.321  0.00  0.00    -0.471 OA
ENDBRANCH   3   2
ENDBRANCH   9   6
BRANCH  19  20
ATOM     20  C   UNL     1      -2.541  -1.849  24.568  0.00  0.00    +0.075 A 
ATOM     21  C   UNL     1      -2.786  -2.175  25.286  0.00  0.00    +0.017 A 
ATOM     22  C   UNL     1      -3.482  -2.617  25.321  0.00  0.00    +0.001 A 
ATOM     23  C   UNL     1      -3.933  -2.733  24.639  0.00  0.00    +0.000 A 
ATOM     24  C   UNL     1      -3.687  -2.406  23.923  0.00  0.00    +0.001 A 
ATOM     25  C   UNL     1      -2.992  -1.964  23.886  0.00  0.00    +0.017 A 
ENDBRANCH  19  20
TORSDOF 3
ENDMDL
MODEL 5
REMARK VINA RESULT:     -12.2      1.879      2.543
REMARK  Name = 
REMARK  3 active torsions:
REMARK  status: ('A' for Active; 'I' for Inactive)
REMARK    1  A    between atoms: O_2  and  C_3
REMARK    2  A    between atoms: C_6  and  C_9
REMARK    3  A    between atoms: N_19  and  C_20
REMARK                            x       y       z     vdW  Elec       q    Type
REMARK                         _______ _______ _______ _____ _____    ______ ____
ROOT
ATOM      9  C   UNL     1      -4.674   1.701  25.176  0.00  0.00    +0.012 A 
ATOM     10  C   UNL     1      -4.130   1.572  24.570  0.00  0.00    +0.041 A 
ATOM     11  C   UNL     1      -3.644   2.029  23.939  0.00  0.00    +0.058 C 
ATOM     12  C   UNL     1      -3.524   2.678  23.699  0.00  0.00    +0.011 C 
ATOM     13  C   UNL     1      -3.277   1.921  23.533  0.00  0.00    +0.043 C 
ATOM     14  C   UNL     1      -2.862   1.093  23.186  0.00  0.00    +0.097 C 
ATOM     15  N   UNL     1      -3.223   0.534  23.690  0.00  0.00    -0.262 N 
ATOM     16  C   UNL     1      -3.235   1.239  23.592  0.00  0.00    +0.101 C 
ATOM     17  C   UNL     1      -3.408  -0.201  24.018  0.00  0.00    +0.327 C 
ATOM     18  O   UNL     1      -3.944  -0.251  24.643  0.00  0.00    -0.250 OA
ATOM     19  N   UNL     1      -3.056  -0.885  23.720  0.00  0.00    -0.162 NA
ATOM     26  C   UNL     1      -3.780   1.434  24.190  0.00  0.00    +0.110 C 
ATOM     27  N   UNL     1      -3.876   0.805  24.399  0.00  0.00    -0.299 N 
ATOM     28  C   UNL     1      -4.167   0.168  24.834  0.00  0.00    +0.261 A 
ATOM     29  O   UNL     1      -4.075  -0.651  24.857  0.00  0.00    -0.267 OA
ATOM     30  C   UNL     1      -4.711   0.296  25.440  0.00  0.00    +0.061 A 
ATOM     31  C   UNL     1      -4.964   1.063  25.612  0.00  0.00    +0.006 A 
ENDROOT
BRANCH   9   6
ATOM      3  C   UNL     1      -5.434   4.000  25.690  0.00  0.00    +0.139 A 
ATOM      4  C   UNL     1      -4.712   3.729  25.984  0.00  0.00    +0.037 A 
ATOM      5  C   UNL     1      -4.459   2.962  25.813  0.00  0.00    +0.003 A 
ATOM      6  C   UNL     1      -4.927   2.467  25.348  0.00  0.00    +0.001 A 
ATOM      7  C   UNL     1      -5.649   2.738  25.054  0.00  0.00    +0.003 A 
ATOM      8  C   UNL     1      -5.902   3.504  25.225  0.00  0.00    +0.037 A 
BRANCH   3   2
ATOM      1  C   UNL     1      -6.233   5.140  25.369  0.00  0.00    +0.252 C 
ATOM      2  O   UNL     1      -5.687   4.765  25.861  0.00  0.00    -0.471 OA
ENDBRANCH   3   2
ENDBRANCH   9   6
BRANCH  19  20
ATOM     20  C   UNL     1      -3.240  -1.620  24.048  0.00  0.00    +0.075 A 
ATOM     21  C   UNL     1      -2.778  -1.926  24.660  0.00  0.00    +0.017 A 
ATOM     22  C   UNL     1      -2.963  -2.661  24.986  0.00  0.00    +0.001 A 
ATOM     23  C   UNL     1      -3.609  -3.089  24.702  0.00  0.00    +0.000 A 
ATOM     24  C   UNL     1      -4.070  -2.782  24.091  0.00  0.00    +0.001 A 
ATOM     25  C   UNL     1      -3.886  -2.048  23.764  0.00  0.00    +0.017 A 
ENDBRANCH  19  20
TORSDOF 3
ENDMDL
