MODEL 1
REMARK VINA RESULT:     -10.2      0.000      0.000
REMARK  Name = 
REMARK  8 active torsions:
REMARK  status: ('A' for Active; 'I' for Inactive)
REMARK    1  A    between atoms: N_2  and  C_4
REMARK    2  A    between atoms: C_4  and  C_5
REMARK    3  A    between atoms: C_5  and  N_6
REMARK    4  A    between atoms: C_7  and  C_9
REMARK    5  A    between atoms: C_9  and  C_10
REMARK    6  A    between atoms: C_12  and  C_13
REMARK    7  A    between atoms: C_13  and  N_14
REMARK    8  A    between atoms: N_17  and  C_18
REMARK                            x       y       z     vdW  Elec       q    Type
REMARK                         _______ _______ _______ _____ _____    ______ ____
ROOT
ATOM     10  C   UNL     1      -4.053   3.320  25.253  0.00  0.00    +0.157 C 
ATOM     11  O   UNL     1      -3.913   2.516  25.141  0.00  0.00    -0.351 OA
ATOM     12  C   UNL     1      -4.641   2.128  25.142  0.00  0.00    +0.170 C 
ATOM     24  C   UNL     1      -5.231   2.692  25.255  0.00  0.00    +0.213 C 
ATOM     25  O   UNL     1      -6.042   2.545  25.293  0.00  0.00    -0.218 OA
ATOM     26  C   UNL     1      -4.869   3.430  25.324  0.00  0.00    +0.212 C 
ATOM     27  O   UNL     1      -5.253   4.150  25.442  0.00  0.00    -0.218 OA
ENDROOT
BRANCH  10   9
ATOM      9  C   UNL     1      -3.481   3.913  25.289  0.00  0.00    +0.119 C 
BRANCH   9   7
ATOM      6  N   UNL     1      -2.090   3.586  25.283  0.00  0.00    -0.204 NA
ATOM      7  C   UNL     1      -2.776   3.783  25.696  0.00  0.00    +0.244 C 
ATOM      8  O   UNL     1      -2.757   3.849  26.518  0.00  0.00    -0.273 OA
BRANCH   6   5
ATOM      5  C   UNL     1      -1.385   3.455  25.690  0.00  0.00    +0.132 C 
BRANCH   5   4
ATOM      4  C   UNL     1      -0.680   3.351  25.274  0.00  0.00    +0.096 C 
BRANCH   4   2
ATOM      1  C   UNL     1       0.166   2.684  26.213  0.00  0.00    +0.090 C 
ATOM      2  N   UNL     1      -0.177   2.726  25.463  0.00  0.00    -0.269 NA
ATOM      3  C   UNL     1      -0.017   2.141  24.904  0.00  0.00    +0.090 C 
ENDBRANCH   4   2
ENDBRANCH   5   4
ENDBRANCH   6   5
ENDBRANCH   9   7
ENDBRANCH  10   9
BRANCH  12  13
ATOM     13  C   UNL     1      -4.757   1.316  25.047  0.00  0.00    +0.149 C 
BRANCH  13  14
ATOM     14  N   UNL     1      -4.205   0.866  24.632  0.00  0.00    -0.185 NA
ATOM     15  C   UNL     1      -4.216   0.043  24.691  0.00  0.00    +0.339 C 
ATOM     16  O   UNL     1      -4.780  -0.330  25.164  0.00  0.00    -0.249 OA
ATOM     17  N   UNL     1      -3.663  -0.408  24.276  0.00  0.00    -0.189 NA
BRANCH  17  18
ATOM     18  C   UNL     1      -3.674  -1.231  24.334  0.00  0.00    +0.097 C 
ATOM     19  C   UNL     1      -4.155  -1.673  23.830  0.00  0.00    +0.022 C 
ATOM     20  C   UNL     1      -4.166  -2.496  23.889  0.00  0.00    +0.002 C 
ATOM     21  C   UNL     1      -3.698  -2.877  24.451  0.00  0.00    +0.000 C 
ATOM     22  C   UNL     1      -3.217  -2.434  24.955  0.00  0.00    +0.002 C 
ATOM     23  C   UNL     1      -3.206  -1.611  24.897  0.00  0.00    +0.022 C 
ENDBRANCH  17  18
ENDBRANCH  13  14
ENDBRANCH  12  13
TORSDOF 8
ENDMDL
MODEL 2
REMARK VINA RESULT:      -9.7      1.629      3.304
REMARK  Name = 
REMARK  8 active torsions:
REMARK  status: ('A' for Active; 'I' for Inactive)
REMARK    1  A    between atoms: N_2  and  C_4
REMARK    2  A    between atoms: C_4  and  C_5
REMARK    3  A    between atoms: C_5  and  N_6
REMARK    4  A    between atoms: C_7  and  C_9
REMARK    5  A    between atoms: C_9  and  C_10
REMARK    6  A    between atoms: C_12  and  C_13
REMARK    7  A    between atoms: C_13  and  N_14
REMARK    8  A    between atoms: N_17  and  C_18
REMARK                            x       y       z     vdW  Elec       q    Type
REMARK                         _______ _______ _______ _____ _____    ______ ____
ROOT
ATOM     10  C   UNL     1      -1.414   2.788  25.528  0.00  0.00    +0.157 C 
ATOM     11  O   UNL     1      -1.814   2.087  25.360  0.00  0.00    -0.351 OA
ATOM     12  C   UNL     1      -1.252   1.496  25.234  0.00  0.00    +0.170 C 
ATOM     24  C   UNL     1      -0.505   1.832  25.325  0.00  0.00    +0.213 C 
ATOM     25  O   UNL     1       0.217   1.439  25.247  0.00  0.00    -0.218 OA
ATOM     26  C   UNL     1      -0.604   2.630  25.506  0.00  0.00    +0.212 C 
ATOM     27  O   UNL     1      -0.000   3.176  25.642  0.00  0.00    -0.218 OA
ENDROOT
BRANCH  10   9
ATOM      9  C   UNL     1      -1.762   3.518  25.690  0.00  0.00    +0.119 C 
BRANCH   9   7
ATOM      6  N   UNL     1      -3.176   3.600  25.875  0.00  0.00    -0.204 NA
ATOM      7  C   UNL     1      -2.512   3.693  25.395  0.00  0.00    +0.244 C 
ATOM      8  O   UNL     1      -2.598   3.962  24.620  0.00  0.00    -0.273 OA
BRANCH   6   5
ATOM      5  C   UNL     1      -3.926   3.774  25.581  0.00  0.00    +0.132 C 
BRANCH   5   4
ATOM      4  C   UNL     1      -4.595   3.629  26.042  0.00  0.00    +0.096 C 
BRANCH   4   2
ATOM      1  C   UNL     1      -5.800   4.110  25.443  0.00  0.00    +0.090 C 
ATOM      2  N   UNL     1      -5.321   3.481  25.680  0.00  0.00    -0.269 NA
ATOM      3  C   UNL     1      -5.570   2.705  25.556  0.00  0.00    +0.090 C 
ENDBRANCH   4   2
ENDBRANCH   5   4
ENDBRANCH   6   5
ENDBRANCH   9   7
ENDBRANCH  10   9
BRANCH  12  13
ATOM     13  C   UNL     1      -1.411   0.707  25.051  0.00  0.00    +0.149 C 
BRANCH  13  14
ATOM     14  N   UNL     1      -2.105   0.353  25.319  0.00  0.00    -0.185 NA
ATOM     15  C   UNL     1      -2.389  -0.329  24.951  0.00  0.00    +0.339 C 
ATOM     16  O   UNL     1      -1.979  -0.656  24.314  0.00  0.00    -0.249 OA
ATOM     17  N   UNL     1      -3.084  -0.684  25.220  0.00  0.00    -0.189 NA
BRANCH  17  18
ATOM     18  C   UNL     1      -3.368  -1.366  24.852  0.00  0.00    +0.097 C 
ATOM     19  C   UNL     1      -3.911  -1.304  24.234  0.00  0.00    +0.022 C 
ATOM     20  C   UNL     1      -4.195  -1.986  23.866  0.00  0.00    +0.002 C 
ATOM     21  C   UNL     1      -3.936  -2.728  24.115  0.00  0.00    +0.000 C 
ATOM     22  C   UNL     1      -3.392  -2.789  24.733  0.00  0.00    +0.002 C 
ATOM     23  C   UNL     1      -3.109  -2.108  25.101  0.00  0.00    +0.022 C 
ENDBRANCH  17  18
ENDBRANCH  13  14
ENDBRANCH  12  13
TORSDOF 8
ENDMDL
MODEL 3
REMARK VINA RESULT:      -9.0      1.306      4.760
REMARK  Name = 
REMARK  8 active torsions:
REMARK  status: ('A' for Active; 'I' for Inactive)
REMARK    1  A    between atoms: N_2  and  C_4
REMARK    2  A    between atoms: C_4  and  C_5
REMARK    3  A    between atoms: C_5  and  N_6
REMARK    4  A    between atoms: C_7  and  C_9
REMARK    5  A    between atoms: C_9  and  C_10
REMARK    6  A    between atoms: C_12  and  C_13
REMARK    7  A    between atoms: C_13  and  N_14
REMARK    8  A    between atoms: N_17  and  C_18
REMARK                            x       y       z     vdW  Elec       q    Type
REMARK                         _______ _______ _______ _____ _____    ______ ____
ROOT
ATOM     10  C   UNL     1      -4.975   1.157  25.094  0.00  0.00    +0.157 C 
ATOM     11  O   UNL     1      -4.370   1.704  24.978  0.00  0.00    -0.351 OA
ATOM     12  C   UNL     1      -4.684   2.459  25.085  0.00  0.00    +0.170 C 
ATOM     24  C   UNL     1      -5.484   2.379  25.267  0.00  0.00    +0.213 C 
ATOM     25  O   UNL     1      -6.012   2.995  25.417  0.00  0.00    -0.218 OA
ATOM     26  C   UNL     1      -5.665   1.574  25.273  0.00  0.00    +0.212 C 
ATOM     27  O   UNL     1      -6.404   1.244  25.430  0.00  0.00    -0.218 OA
ENDROOT
BRANCH  10   9
ATOM      9  C   UNL     1      -4.905   0.337  25.041  0.00  0.00    +0.119 C 
BRANCH   9   7
ATOM      6  N   UNL     1      -3.728  -0.459  25.186  0.00  0.00    -0.204 NA
ATOM      7  C   UNL     1      -4.227   0.000  24.716  0.00  0.00    +0.244 C 
ATOM      8  O   UNL     1      -4.046   0.123  23.921  0.00  0.00    -0.273 OA
BRANCH   6   5
ATOM      5  C   UNL     1      -3.049  -0.796  24.861  0.00  0.00    +0.132 C 
BRANCH   5   4
ATOM      4  C   UNL     1      -2.570  -1.287  25.321  0.00  0.00    +0.096 C 
BRANCH   4   2
ATOM      1  C   UNL     1      -1.880  -2.283  24.563  0.00  0.00    +0.090 C 
ATOM      2  N   UNL     1      -1.869  -1.589  25.010  0.00  0.00    -0.269 NA
ATOM      3  C   UNL     1      -1.156  -1.197  25.144  0.00  0.00    +0.090 C 
ENDBRANCH   4   2
ENDBRANCH   5   4
ENDBRANCH   6   5
ENDBRANCH   9   7
ENDBRANCH  10   9
BRANCH  12  13
ATOM     13  C   UNL     1      -4.270   3.170  25.021  0.00  0.00    +0.149 C 
BRANCH  13  14
ATOM     14  N   UNL     1      -3.584   3.289  25.462  0.00  0.00    -0.185 NA
ATOM     15  C   UNL     1      -2.970   3.748  25.154  0.00  0.00    +0.339 C 
ATOM     16  O   UNL     1      -3.043   4.086  24.406  0.00  0.00    -0.249 OA
ATOM     17  N   UNL     1      -2.284   3.867  25.596  0.00  0.00    -0.189 NA
BRANCH  17  18
ATOM     18  C   UNL     1      -1.670   4.325  25.289  0.00  0.00    +0.097 C 
ATOM     19  C   UNL     1      -1.737   5.147  25.275  0.00  0.00    +0.022 C 
ATOM     20  C   UNL     1      -1.123   5.606  24.968  0.00  0.00    +0.002 C 
ATOM     21  C   UNL     1      -0.443   5.242  24.674  0.00  0.00    +0.000 C 
ATOM     22  C   UNL     1      -0.377   4.420  24.688  0.00  0.00    +0.002 C 
ATOM     23  C   UNL     1      -0.990   3.962  24.995  0.00  0.00    +0.022 C 
ENDBRANCH  17  18
ENDBRANCH  13  14
ENDBRANCH  12  13
TORSDOF 8
ENDMDL
MODEL 4
REMARK VINA RESULT:      -8.8      1.752      4.409
REMARK  Name = 
REMARK  8 active torsions:
REMARK  status: ('A' for Active; 'I' for Inactive)
REMARK    1  A    between atoms: N_2  and  C_4
REMARK    2  A    between atoms: C_4  and  C_5
REMARK    3  A    between atoms: C_5  and  N_6
REMARK    4  A    between atoms: C_7  and  C_9
REMARK    5  A    between atoms: C_9  and  C_10
REMARK    6  A    between atoms: C_12  and  C_13
REMARK    7  A    between atoms: C_13  and  N_14
REMARK    8  A    between atoms: N_17  and  C_18
REMARK                            x       y       z     vdW  Elec       q    Type
REMARK                         _______ _______ _______ _____ _____    ______ ____
ROOT
ATOM     10  C   UNL     1      -2.068  -1.729  24.565  0.00  0.00    +0.157 C 
ATOM     11  O   UNL     1      -2.563  -1.091  24.728  0.00  0.00    -0.351 OA
ATOM     12  C   UNL     1      -3.343  -1.356  24.689  0.00  0.00    +0.170 C 
ATOM     24  C   UNL     1      -3.331  -2.159  24.501  0.00  0.00    +0.213 C 
ATOM     25  O   UNL     1      -3.990  -2.646  24.406  0.00  0.00    -0.218 OA
ATOM     26  C   UNL     1      -2.543  -2.390  24.424  0.00  0.00    +0.212 C 
ATOM     27  O   UNL     1      -2.275  -3.148  24.239  0.00  0.00    -0.218 OA
ENDROOT
BRANCH  10   9
ATOM      9  C   UNL     1      -1.244  -1.712  24.545  0.00  0.00    +0.119 C 
BRANCH   9   7
ATOM      6  N   UNL     1      -0.646  -0.455  24.219  0.00  0.00    -0.204 NA
ATOM      7  C   UNL     1      -0.839  -1.032  24.776  0.00  0.00    +0.244 C 
ATOM      8  O   UNL     1      -0.626  -0.928  25.567  0.00  0.00    -0.273 OA
BRANCH   6   5
ATOM      5  C   UNL     1      -0.242   0.225  24.450  0.00  0.00    +0.132 C 
BRANCH   5   4
ATOM      4  C   UNL     1      -0.098   0.826  23.904  0.00  0.00    +0.096 C 
BRANCH   4   2
ATOM      1  C   UNL     1       0.581   1.951  24.466  0.00  0.00    +0.090 C 
ATOM      2  N   UNL     1      -0.101   1.614  24.147  0.00  0.00    -0.269 NA
ATOM      3  C   UNL     1      -0.787   2.066  24.071  0.00  0.00    +0.090 C 
ENDBRANCH   4   2
ENDBRANCH   5   4
ENDBRANCH   6   5
ENDBRANCH   9   7
ENDBRANCH  10   9
BRANCH  12  13
ATOM     13  C   UNL     1      -4.018  -0.897  24.815  0.00  0.00    +0.149 C 
BRANCH  13  14
ATOM     14  N   UNL     1      -4.103  -0.173  24.431  0.00  0.00    -0.185 NA
ATOM     15  C   UNL     1      -4.448   0.465  24.825  0.00  0.00    +0.339 C 
ATOM     16  O   UNL     1      -4.708   0.378  25.603  0.00  0.00    -0.249 OA
ATOM     17  N   UNL     1      -4.533   1.189  24.439  0.00  0.00    -0.189 NA
BRANCH  17  18
ATOM     18  C   UNL     1      -4.878   1.827  24.833  0.00  0.00    +0.097 C 
ATOM     19  C   UNL     1      -5.695   1.851  24.941  0.00  0.00    +0.022 C 
ATOM     20  C   UNL     1      -6.040   2.489  25.335  0.00  0.00    +0.002 C 
ATOM     21  C   UNL     1      -5.569   3.103  25.621  0.00  0.00    +0.000 C 
ATOM     22  C   UNL     1      -4.751   3.078  25.512  0.00  0.00    +0.002 C 
ATOM     23  C   UNL     1      -4.406   2.441  25.119  0.00  0.00    +0.022 C 
ENDBRANCH  17  18
ENDBRANCH  13  14
ENDBRANCH  12  13
TORSDOF 8
ENDMDL
MODEL 5
REMARK VINA RESULT:      -8.6      2.145      5.155
REMARK  Name = 
REMARK  8 active torsions:
REMARK  status: ('A' for Active; 'I' for Inactive)
REMARK    1  A    between atoms: N_2  and  C_4
REMARK    2  A    between atoms: C_4  and  C_5
REMARK    3  A    between atoms: C_5  and  N_6
REMARK    4  A    between atoms: C_7  and  C_9
REMARK    5  A    between atoms: C_9  and  C_10
REMARK    6  A    between atoms: C_12  and  C_13
REMARK    7  A    between atoms: C_13  and  N_14
REMARK    8  A    between atoms: N_17  and  C_18
REMARK                            x       y       z     vdW  Elec       q    Type
REMARK                         _______ _______ _______ _____ _____    ______ ____
ROOT
ATOM     10  C   UNL     1      -0.460   0.273  24.268  0.00  0.00    +0.157 C 
ATOM     11  O   UNL     1      -1.156   0.639  24.513  0.00  0.00    -0.351 OA
ATOM     12  C   UNL     1      -1.047   1.455  24.462  0.00  0.00    +0.170 C 
ATOM     24  C   UNL     1      -0.283   1.594  24.186  0.00  0.00    +0.213 C 
ATOM     25  O   UNL     1       0.059   2.333  24.053  0.00  0.00    -0.218 OA
ATOM     26  C   UNL     1       0.081   0.863  24.065  0.00  0.00    +0.212 C 
ATOM     27  O   UNL     1       0.850   0.743  23.791  0.00  0.00    -0.218 OA
ENDROOT
BRANCH  10   9
ATOM      9  C   UNL     1      -0.325  -0.540  24.231  0.00  0.00    +0.119 C 
BRANCH   9   7
ATOM      6  N   UNL     1      -1.414  -1.465  24.258  0.00  0.00    -0.204 NA
ATOM      7  C   UNL     1      -0.812  -1.058  24.648  0.00  0.00    +0.244 C 
ATOM      8  O   UNL     1      -0.696  -1.171  25.457  0.00  0.00    -0.273 OA
BRANCH   6   5
ATOM      5  C   UNL     1      -1.900  -1.984  24.675  0.00  0.00    +0.132 C 
BRANCH   5   4
ATOM      4  C   UNL     1      -2.443  -2.457  24.272  0.00  0.00    +0.096 C 
BRANCH   4   2
ATOM      1  C   UNL     1      -3.355  -2.870  25.292  0.00  0.00    +0.090 C 
ATOM      2  N   UNL     1      -3.215  -2.531  24.553  0.00  0.00    -0.269 NA
ATOM      3  C   UNL     1      -3.847  -2.267  24.094  0.00  0.00    +0.090 C 
ENDBRANCH   4   2
ENDBRANCH   5   4
ENDBRANCH   6   5
ENDBRANCH   9   7
ENDBRANCH  10   9
BRANCH  12  13
ATOM     13  C   UNL     1      -1.605   2.032  24.655  0.00  0.00    +0.149 C 
BRANCH  13  14
ATOM     14  N   UNL     1      -2.369   1.986  24.348  0.00  0.00    -0.185 NA
ATOM     15  C   UNL     1      -3.000   2.320  24.761  0.00  0.00    +0.339 C 
ATOM     16  O   UNL     1      -2.868   2.701  25.481  0.00  0.00    -0.249 OA
ATOM     17  N   UNL     1      -3.765   2.274  24.454  0.00  0.00    -0.189 NA
BRANCH  17  18
ATOM     18  C   UNL     1      -4.396   2.609  24.867  0.00  0.00    +0.097 C 
ATOM     19  C   UNL     1      -4.933   2.123  25.262  0.00  0.00    +0.022 C 
ATOM     20  C   UNL     1      -5.564   2.458  25.675  0.00  0.00    +0.002 C 
ATOM     21  C   UNL     1      -5.659   3.277  25.693  0.00  0.00    +0.000 C 
ATOM     22  C   UNL     1      -5.121   3.762  25.296  0.00  0.00    +0.002 C 
ATOM     23  C   UNL     1      -4.490   3.428  24.884  0.00  0.00    +0.022 C 
ENDBRANCH  17  18
ENDBRANCH  13  14
ENDBRANCH  12  13
TORSDOF 8
ENDMDL
