MODEL 1
REMARK VINA RESULT:     -10.0      0.000      0.000
REMARK  Name = 
REMARK  4 active torsions:
REMARK  status: ('A' for Active; 'I' for Inactive)
REMARK    1  A    between atoms: O_2  and  C_3
REMARK    2  A    between atoms: C_6  and  C_7
REMARK    3  A    between atoms: C_7  and  N_8
REMARK    4  A    between atoms: C_18  and  C_20
REMARK                            x       y       z     vdW  Elec       q    Type
REMARK                         _______ _______ _______ _____ _____    ______ ____
ROOT
ATOM      8  N   UNL     1      -0.570   1.724  24.890  0.00  0.00    -0.258 N 
ATOM      9  C   UNL     1      -1.321   1.693  25.230  0.00  0.00    +0.117 C 
ATOM     10  C   UNL     1      -1.647   0.953  25.063  0.00  0.00    +0.116 C 
ATOM     11  C   UNL     1      -2.373   0.613  25.257  0.00  0.00    +0.115 C 
ATOM     12  N   UNL     1      -2.549  -0.153  25.008  0.00  0.00    -0.273 N 
ATOM     13  C   UNL     1      -1.999  -0.580  24.565  0.00  0.00    +0.115 C 
ATOM     14  C   UNL     1      -1.273  -0.239  24.370  0.00  0.00    +0.116 C 
ATOM     15  N   UNL     1      -1.097   0.528  24.620  0.00  0.00    -0.261 N 
ATOM     16  C   UNL     1      -0.431   1.004  24.513  0.00  0.00    +0.308 C 
ATOM     17  O   UNL     1       0.253   0.796  24.101  0.00  0.00    -0.252 OA
ATOM     18  C   UNL     1      -3.274  -0.493  25.202  0.00  0.00    +0.249 C 
ATOM     19  O   UNL     1      -3.825  -0.068  25.645  0.00  0.00    -0.270 OA
ENDROOT
BRANCH  18  20
ATOM     20  C   UNL     1      -3.451  -1.261  24.953  0.00  0.00    +0.057 A 
ATOM     21  C   UNL     1      -3.197  -1.908  25.398  0.00  0.00    +0.008 A 
ATOM     22  C   UNL     1      -3.373  -2.673  25.148  0.00  0.00    +0.040 A 
ATOM     23  C   UNL     1      -3.803  -2.794  24.455  0.00  0.00    +0.176 A 
ATOM     24  O   UNL     1      -4.058  -3.479  24.074  0.00  0.00    -0.435 OA
ATOM     25  C   UNL     1      -4.469  -3.257  23.395  0.00  0.00    +0.429 C 
ATOM     26  O   UNL     1      -4.468  -2.433  23.355  0.00  0.00    -0.435 OA
ATOM     27  C   UNL     1      -4.057  -2.147  24.010  0.00  0.00    +0.177 A 
ATOM     28  C   UNL     1      -3.881  -1.380  24.259  0.00  0.00    +0.045 A 
ENDBRANCH  18  20
BRANCH   8   7
ATOM      7  C   UNL     1      -0.049   2.363  24.921  0.00  0.00    +0.122 C 
BRANCH   7   6
ATOM      3  C   UNL     1      -0.926   4.676  24.992  0.00  0.00    +0.139 A 
ATOM      4  C   UNL     1      -0.861   4.238  25.689  0.00  0.00    +0.037 A 
ATOM      5  C   UNL     1      -0.569   3.468  25.665  0.00  0.00    +0.001 A 
ATOM      6  C   UNL     1      -0.341   3.134  24.945  0.00  0.00    -0.002 A 
ATOM     29  C   UNL     1      -0.406   3.572  24.249  0.00  0.00    +0.001 A 
ATOM     30  C   UNL     1      -0.699   4.344  24.273  0.00  0.00    +0.037 A 
BRANCH   3   2
ATOM      1  C   UNL     1      -2.020   5.581  25.157  0.00  0.00    +0.252 C 
ATOM      2  O   UNL     1      -1.218   5.448  25.016  0.00  0.00    -0.471 OA
ENDBRANCH   3   2
ENDBRANCH   7   6
ENDBRANCH   8   7
TORSDOF 4
ENDMDL
MODEL 2
REMARK VINA RESULT:      -9.7      1.505      2.316
REMARK  Name = 
REMARK  4 active torsions:
REMARK  status: ('A' for Active; 'I' for Inactive)
REMARK    1  A    between atoms: O_2  and  C_3
REMARK    2  A    between atoms: C_6  and  C_7
REMARK    3  A    between atoms: C_7  and  N_8
REMARK    4  A    between atoms: C_18  and  C_20
REMARK                            x       y       z     vdW  Elec       q    Type
REMARK                         _______ _______ _______ _____ _____    ______ ____
ROOT
ATOM      8  N   UNL     1      -3.845   2.720  25.175  0.00  0.00    -0.258 N 
ATOM      9  C   UNL     1      -3.155   2.320  24.967  0.00  0.00    +0.117 C 
ATOM     10  C   UNL     1      -3.328   1.514  24.926  0.00  0.00    +0.116 C 
ATOM     11  C   UNL     1      -2.863   0.858  24.745  0.00  0.00    +0.115 C 
ATOM     12  N   UNL     1      -3.195   0.103  24.747  0.00  0.00    -0.273 N 
ATOM     13  C   UNL     1      -3.994   0.004  24.931  0.00  0.00    +0.115 C 
ATOM     14  C   UNL     1      -4.459   0.661  25.111  0.00  0.00    +0.116 C 
ATOM     15  N   UNL     1      -4.126   1.417  25.109  0.00  0.00    -0.261 N 
ATOM     16  C   UNL     1      -4.447   2.161  25.263  0.00  0.00    +0.308 C 
ATOM     17  O   UNL     1      -5.230   2.319  25.470  0.00  0.00    -0.252 OA
ATOM     18  C   UNL     1      -2.730  -0.553  24.567  0.00  0.00    +0.249 C 
ATOM     19  O   UNL     1      -1.931  -0.456  24.383  0.00  0.00    -0.270 OA
ENDROOT
BRANCH  18  20
ATOM     20  C   UNL     1      -3.062  -1.309  24.569  0.00  0.00    +0.057 A 
ATOM     21  C   UNL     1      -2.961  -1.802  25.223  0.00  0.00    +0.008 A 
ATOM     22  C   UNL     1      -3.293  -2.557  25.225  0.00  0.00    +0.040 A 
ATOM     23  C   UNL     1      -3.728  -2.819  24.574  0.00  0.00    +0.176 A 
ATOM     24  O   UNL     1      -4.117  -3.529  24.419  0.00  0.00    -0.435 OA
ATOM     25  C   UNL     1      -4.459  -3.475  23.671  0.00  0.00    +0.429 C 
ATOM     26  O   UNL     1      -4.281  -2.731  23.363  0.00  0.00    -0.435 OA
ATOM     27  C   UNL     1      -3.829  -2.325  23.921  0.00  0.00    +0.177 A 
ATOM     28  C   UNL     1      -3.496  -1.570  23.918  0.00  0.00    +0.045 A 
ENDBRANCH  18  20
BRANCH   8   7
ATOM      7  C   UNL     1      -3.923   3.535  25.278  0.00  0.00    +0.122 C 
BRANCH   7   6
ATOM      3  C   UNL     1      -1.918   4.985  25.244  0.00  0.00    +0.139 A 
ATOM      4  C   UNL     1      -2.337   4.843  24.547  0.00  0.00    +0.037 A 
ATOM      5  C   UNL     1      -3.005   4.360  24.559  0.00  0.00    +0.001 A 
ATOM      6  C   UNL     1      -3.255   4.018  25.267  0.00  0.00    -0.002 A 
ATOM     29  C   UNL     1      -2.836   4.159  25.963  0.00  0.00    +0.001 A 
ATOM     30  C   UNL     1      -2.167   4.643  25.952  0.00  0.00    +0.037 A 
BRANCH   3   2
ATOM      1  C   UNL     1      -0.604   5.270  24.757  0.00  0.00    +0.252 C 
ATOM      2  O   UNL     1      -1.249   5.468  25.232  0.00  0.00    -0.471 OA
ENDBRANCH   3   2
ENDBRANCH   7   6
ENDBRANCH   8   7
TORSDOF 4
ENDMDL
MODEL 3
REMARK VINA RESULT:      -9.6      1.145      6.144
REMARK  Name = 
REMARK  4 active torsions:
REMARK  status: ('A' for Active; 'I' for Inactive)
REMARK    1  A    between atoms: O_2  and  C_3
REMARK    2  A    between atoms: C_6  and  C_7
REMARK    3  A    between atoms: C_7  and  N_8
REMARK    4  A    between atoms: C_18  and  C_20
REMARK                            x       y       z     vdW  Elec       q    Type
REMARK                         _______ _______ _______ _____ _____    ______ ____
ROOT
ATOM      8  N   UNL     1      -3.885   0.242  24.960  0.00  0.00    -0.258 N 
ATOM      9  C   UNL     1      -3.125   0.269  25.276  0.00  0.00    +0.117 C 
ATOM     10  C   UNL     1      -2.811   1.018  25.125  0.00  0.00    +0.116 C 
ATOM     11  C   UNL     1      -2.083   1.359  25.307  0.00  0.00    +0.115 C 
ATOM     12  N   UNL     1      -1.922   2.135  25.079  0.00  0.00    -0.273 N 
ATOM     13  C   UNL     1      -2.490   2.571  24.669  0.00  0.00    +0.115 C 
ATOM     14  C   UNL     1      -3.218   2.229  24.486  0.00  0.00    +0.116 C 
ATOM     15  N   UNL     1      -3.379   1.452  24.714  0.00  0.00    -0.261 N 
ATOM     16  C   UNL     1      -4.043   0.974  24.612  0.00  0.00    +0.308 C 
ATOM     17  O   UNL     1      -4.742   1.188  24.229  0.00  0.00    -0.252 OA
ATOM     18  C   UNL     1      -1.194   2.476  25.262  0.00  0.00    +0.249 C 
ATOM     19  O   UNL     1      -0.625   2.041  25.673  0.00  0.00    -0.270 OA
ENDROOT
BRANCH  18  20
ATOM     20  C   UNL     1      -1.032   3.253  25.034  0.00  0.00    +0.057 A 
ATOM     21  C   UNL     1      -0.489   3.402  24.432  0.00  0.00    +0.008 A 
ATOM     22  C   UNL     1      -0.328   4.178  24.204  0.00  0.00    +0.040 A 
ATOM     23  C   UNL     1      -0.711   4.806  24.578  0.00  0.00    +0.176 A 
ATOM     24  O   UNL     1      -0.665   5.622  24.474  0.00  0.00    -0.435 OA
ATOM     25  C   UNL     1      -1.180   5.978  25.011  0.00  0.00    +0.429 C 
ATOM     26  O   UNL     1      -1.544   5.381  25.448  0.00  0.00    -0.435 OA
ATOM     27  C   UNL     1      -1.254   4.657  25.181  0.00  0.00    +0.177 A 
ATOM     28  C   UNL     1      -1.415   3.880  25.409  0.00  0.00    +0.045 A 
ENDBRANCH  18  20
BRANCH   8   7
ATOM      7  C   UNL     1      -4.399  -0.403  24.985  0.00  0.00    +0.122 C 
BRANCH   7   6
ATOM      3  C   UNL     1      -3.584  -2.662  24.391  0.00  0.00    +0.139 A 
ATOM      4  C   UNL     1      -3.459  -2.365  25.150  0.00  0.00    +0.037 A 
ATOM      5  C   UNL     1      -3.731  -1.613  25.348  0.00  0.00    +0.001 A 
ATOM      6  C   UNL     1      -4.128  -1.156  24.787  0.00  0.00    -0.002 A 
ATOM     29  C   UNL     1      -4.253  -1.453  24.028  0.00  0.00    +0.001 A 
ATOM     30  C   UNL     1      -3.981  -2.207  23.829  0.00  0.00    +0.037 A 
BRANCH   3   2
ATOM      1  C   UNL     1      -2.541  -3.518  23.918  0.00  0.00    +0.252 C 
ATOM      2  O   UNL     1      -3.312  -3.416  24.192  0.00  0.00    -0.471 OA
ENDBRANCH   3   2
ENDBRANCH   7   6
ENDBRANCH   8   7
TORSDOF 4
ENDMDL
MODEL 4
REMARK VINA RESULT:      -9.3      3.173      4.647
REMARK  Name = 
REMARK  4 active torsions:
REMARK  status: ('A' for Active; 'I' for Inactive)
REMARK    1  A    between atoms: O_2  and  C_3
REMARK    2  A    between atoms: C_6  and  C_7
REMARK    3  A    between atoms: C_7  and  N_8
REMARK    4  A    between atoms: C_18  and  C_20
REMARK                            x       y       z     vdW  Elec       q    Type
REMARK                         _______ _______ _______ _____ _____    ______ ____
ROOT
ATOM      8  N   UNL     1      -3.485   2.725  24.072  0.00  0.00    -0.258 N 
ATOM      9  C   UNL     1      -3.010   2.441  24.682  0.00  0.00    +0.117 C 
ATOM     10  C   UNL     1      -2.368   2.046  24.345  0.00  0.00    +0.116 C 
ATOM     11  C   UNL     1      -1.723   1.655  24.678  0.00  0.00    +0.115 C 
ATOM     12  N   UNL     1      -1.157   1.304  24.191  0.00  0.00    -0.273 N 
ATOM     13  C   UNL     1      -1.237   1.344  23.370  0.00  0.00    +0.115 C 
ATOM     14  C   UNL     1      -1.883   1.734  23.037  0.00  0.00    +0.116 C 
ATOM     15  N   UNL     1      -2.449   2.086  23.525  0.00  0.00    -0.261 N 
ATOM     16  C   UNL     1      -3.139   2.505  23.356  0.00  0.00    +0.308 C 
ATOM     17  O   UNL     1      -3.431   2.675  22.603  0.00  0.00    -0.252 OA
ATOM     18  C   UNL     1      -0.511   0.914  24.524  0.00  0.00    +0.249 C 
ATOM     19  O   UNL     1      -0.431   0.874  25.343  0.00  0.00    -0.270 OA
ENDROOT
BRANCH  18  20
ATOM     20  C   UNL     1       0.055   0.562  24.036  0.00  0.00    +0.057 A 
ATOM     21  C   UNL     1      -0.071  -0.197  23.739  0.00  0.00    +0.008 A 
ATOM     22  C   UNL     1       0.495  -0.547  23.252  0.00  0.00    +0.040 A 
ATOM     23  C   UNL     1       1.187  -0.139  23.062  0.00  0.00    +0.176 A 
ATOM     24  O   UNL     1       1.838  -0.342  22.599  0.00  0.00    -0.435 OA
ATOM     25  C   UNL     1       2.366   0.292  22.610  0.00  0.00    +0.429 C 
ATOM     26  O   UNL     1       2.041   0.886  23.080  0.00  0.00    -0.435 OA
ATOM     27  C   UNL     1       1.312   0.620  23.359  0.00  0.00    +0.177 A 
ATOM     28  C   UNL     1       0.746   0.971  23.847  0.00  0.00    +0.045 A 
ENDBRANCH  18  20
BRANCH   8   7
ATOM      7  C   UNL     1      -4.185   3.153  24.161  0.00  0.00    +0.122 C 
BRANCH   7   6
ATOM      3  C   UNL     1      -5.796   2.543  25.937  0.00  0.00    +0.139 A 
ATOM      4  C   UNL     1      -5.759   2.098  25.243  0.00  0.00    +0.037 A 
ATOM      5  C   UNL     1      -5.223   2.302  24.651  0.00  0.00    +0.001 A 
ATOM      6  C   UNL     1      -4.722   2.950  24.752  0.00  0.00    -0.002 A 
ATOM     29  C   UNL     1      -4.758   3.394  25.446  0.00  0.00    +0.001 A 
ATOM     30  C   UNL     1      -5.296   3.191  26.039  0.00  0.00    +0.037 A 
BRANCH   3   2
ATOM      1  C   UNL     1      -6.451   1.547  26.726  0.00  0.00    +0.252 C 
ATOM      2  O   UNL     1      -6.333   2.339  26.530  0.00  0.00    -0.471 OA
ENDBRANCH   3   2
ENDBRANCH   7   6
ENDBRANCH   8   7
TORSDOF 4
ENDMDL
MODEL 5
REMARK VINA RESULT:      -9.0      2.859      4.526
REMARK  Name = 
REMARK  4 active torsions:
REMARK  status: ('A' for Active; 'I' for Inactive)
REMARK    1  A    between atoms: O_2  and  C_3
REMARK    2  A    between atoms: C_6  and  C_7
REMARK    3  A    between atoms: C_7  and  N_8
REMARK    4  A    between atoms: C_18  and  C_20
REMARK                            x       y       z     vdW  Elec       q    Type
REMARK                         _______ _______ _______ _____ _____    ______ ____
ROOT
ATOM      8  N   UNL     1      -0.415   0.013  23.922  0.00  0.00    -0.258 N 
ATOM      9  C   UNL     1      -0.754   0.533  23.379  0.00  0.00    +0.117 C 
ATOM     10  C   UNL     1      -1.367   0.935  23.759  0.00  0.00    +0.116 C 
ATOM     11  C   UNL     1      -1.894   1.514  23.497  0.00  0.00    +0.115 C 
ATOM     12  N   UNL     1      -2.459   1.820  24.013  0.00  0.00    -0.273 N 
ATOM     13  C   UNL     1      -2.498   1.549  24.792  0.00  0.00    +0.115 C 
ATOM     14  C   UNL     1      -1.971   0.971  25.053  0.00  0.00    +0.116 C 
ATOM     15  N   UNL     1      -1.405   0.663  24.537  0.00  0.00    -0.261 N 
ATOM     16  C   UNL     1      -0.817   0.093  24.638  0.00  0.00    +0.308 C 
ATOM     17  O   UNL     1      -0.660  -0.323  25.333  0.00  0.00    -0.252 OA
ATOM     18  C   UNL     1      -2.986   2.399  23.751  0.00  0.00    +0.249 C 
ATOM     19  O   UNL     1      -2.947   2.671  22.974  0.00  0.00    -0.270 OA
ENDROOT
BRANCH  18  20
ATOM     20  C   UNL     1      -3.552   2.706  24.268  0.00  0.00    +0.057 A 
ATOM     21  C   UNL     1      -3.384   3.382  24.709  0.00  0.00    +0.008 A 
ATOM     22  C   UNL     1      -3.950   3.689  25.225  0.00  0.00    +0.040 A 
ATOM     23  C   UNL     1      -4.684   3.319  25.300  0.00  0.00    +0.176 A 
ATOM     24  O   UNL     1      -5.345   3.493  25.760  0.00  0.00    -0.435 OA
ATOM     25  C   UNL     1      -5.922   2.925  25.604  0.00  0.00    +0.429 C 
ATOM     26  O   UNL     1      -5.616   2.399  25.047  0.00  0.00    -0.435 OA
ATOM     27  C   UNL     1      -4.851   2.643  24.859  0.00  0.00    +0.177 A 
ATOM     28  C   UNL     1      -4.285   2.336  24.342  0.00  0.00    +0.045 A 
ENDBRANCH  18  20
BRANCH   8   7
ATOM      7  C   UNL     1       0.216  -0.499  23.775  0.00  0.00    +0.122 C 
BRANCH   7   6
ATOM      3  C   UNL     1       2.210   0.310  22.554  0.00  0.00    +0.139 A 
ATOM      4  C   UNL     1       2.066   0.567  23.325  0.00  0.00    +0.037 A 
ATOM      5  C   UNL     1       1.402   0.297  23.732  0.00  0.00    +0.001 A 
ATOM      6  C   UNL     1       0.880  -0.229  23.369  0.00  0.00    -0.002 A 
ATOM     29  C   UNL     1       1.024  -0.485  22.598  0.00  0.00    +0.001 A 
ATOM     30  C   UNL     1       1.689  -0.215  22.190  0.00  0.00    +0.037 A 
BRANCH   3   2
ATOM      1  C   UNL     1       3.598   0.651  22.537  0.00  0.00    +0.252 C 
ATOM      2  O   UNL     1       2.875   0.580  22.146  0.00  0.00    -0.471 OA
ENDBRANCH   3   2
ENDBRANCH   7   6
ENDBRANCH   8   7
TORSDOF 4
ENDMDL
MODEL 6
REMARK VINA RESULT:      -8.2      2.786      5.899
REMARK  Name = 
REMARK  4 active torsions:
REMARK  status: ('A' for Active; 'I' for Inactive)
REMARK    1  A    between atoms: O_2  and  C_3
REMARK    2  A    between atoms: C_6  and  C_7
REMARK    3  A    between atoms: C_7  and  N_8
REMARK    4  A    between atoms: C_18  and  C_20
REMARK                            x       y       z     vdW  Elec       q    Type
REMARK                         _______ _______ _______ _____ _____    ______ ____
ROOT
ATOM      8  N   UNL     1      -1.236   1.039  24.310  0.00  0.00    -0.258 N 
ATOM      9  C   UNL     1      -0.991   0.551  23.692  0.00  0.00    +0.117 C 
ATOM     10  C   UNL     1      -0.169   0.603  23.636  0.00  0.00    +0.116 C 
ATOM     11  C   UNL     1       0.374   0.244  23.128  0.00  0.00    +0.115 C 
ATOM     12  N   UNL     1       1.178   0.405  23.205  0.00  0.00    -0.273 N 
ATOM     13  C   UNL     1       1.442   0.926  23.789  0.00  0.00    +0.115 C 
ATOM     14  C   UNL     1       0.899   1.284  24.296  0.00  0.00    +0.116 C 
ATOM     15  N   UNL     1       0.093   1.123  24.220  0.00  0.00    -0.261 N 
ATOM     16  C   UNL     1      -0.565   1.393  24.637  0.00  0.00    +0.308 C 
ATOM     17  O   UNL     1      -0.556   1.922  25.269  0.00  0.00    -0.252 OA
ATOM     18  C   UNL     1       1.721   0.047  22.697  0.00  0.00    +0.249 C 
ATOM     19  O   UNL     1       1.459  -0.474  22.113  0.00  0.00    -0.270 OA
ENDROOT
BRANCH  18  20
ATOM     20  C   UNL     1       2.527   0.208  22.774  0.00  0.00    +0.057 A 
ATOM     21  C   UNL     1       2.835   0.917  22.486  0.00  0.00    +0.008 A 
ATOM     22  C   UNL     1       3.640   1.078  22.563  0.00  0.00    +0.040 A 
ATOM     23  C   UNL     1       4.138   0.530  22.927  0.00  0.00    +0.176 A 
ATOM     24  O   UNL     1       4.948   0.536  23.080  0.00  0.00    -0.435 OA
ATOM     25  C   UNL     1       5.141  -0.169  23.462  0.00  0.00    +0.429 C 
ATOM     26  O   UNL     1       4.450  -0.611  23.545  0.00  0.00    -0.435 OA
ATOM     27  C   UNL     1       3.830  -0.179  23.215  0.00  0.00    +0.177 A 
ATOM     28  C   UNL     1       3.024  -0.341  23.138  0.00  0.00    +0.045 A 
ENDBRANCH  18  20
BRANCH   8   7
ATOM      7  C   UNL     1      -2.014   1.153  24.560  0.00  0.00    +0.122 C 
BRANCH   7   6
ATOM      3  C   UNL     1      -3.643  -0.705  24.433  0.00  0.00    +0.139 A 
ATOM      4  C   UNL     1      -3.104  -0.671  25.057  0.00  0.00    +0.037 A 
ATOM      5  C   UNL     1      -2.561  -0.052  25.099  0.00  0.00    +0.001 A 
ATOM      6  C   UNL     1      -2.556   0.534  24.518  0.00  0.00    -0.002 A 
ATOM     29  C   UNL     1      -3.095   0.500  23.894  0.00  0.00    +0.001 A 
ATOM     30  C   UNL     1      -3.639  -0.120  23.851  0.00  0.00    +0.037 A 
BRANCH   3   2
ATOM      1  C   UNL     1      -3.943  -2.070  24.131  0.00  0.00    +0.252 C 
ATOM      2  O   UNL     1      -4.186  -1.325  24.390  0.00  0.00    -0.471 OA
ENDBRANCH   3   2
ENDBRANCH   7   6
ENDBRANCH   8   7
TORSDOF 4
ENDMDL
MODEL 7
REMARK VINA RESULT:      -8.0      3.118      4.592
REMARK  Name = 
REMARK  4 active torsions:
REMARK  status: ('A' for Active; 'I' for Inactive)
REMARK    1  A    between atoms: O_2  and  C_3
REMARK    2  A    between atoms: C_6  and  C_7
REMARK    3  A    between atoms: C_7  and  N_8
REMARK    4  A    between atoms: C_18  and  C_20
REMARK                            x       y       z     vdW  Elec       q    Type
REMARK                         _______ _______ _______ _____ _____    ______ ____
ROOT
ATOM      8  N   UNL     1       1.992   0.329  22.651  0.00  0.00    -0.258 N 
ATOM      9  C   UNL     1       1.815   0.765  23.327  0.00  0.00    +0.117 C 
ATOM     10  C   UNL     1       1.042   0.584  23.553  0.00  0.00    +0.116 C 
ATOM     11  C   UNL     1       0.573   0.847  24.179  0.00  0.00    +0.115 C 
ATOM     12  N   UNL     1      -0.196   0.562  24.266  0.00  0.00    -0.273 N 
ATOM     13  C   UNL     1      -0.497   0.013  23.728  0.00  0.00    +0.115 C 
ATOM     14  C   UNL     1      -0.028  -0.251  23.103  0.00  0.00    +0.116 C 
ATOM     15  N   UNL     1       0.742   0.035  23.015  0.00  0.00    -0.261 N 
ATOM     16  C   UNL     1       1.329  -0.123  22.457  0.00  0.00    +0.308 C 
ATOM     17  O   UNL     1       1.264  -0.641  21.819  0.00  0.00    -0.252 OA
ATOM     18  C   UNL     1      -0.665   0.826  24.891  0.00  0.00    +0.249 C 
ATOM     19  O   UNL     1      -0.365   1.374  25.430  0.00  0.00    -0.270 OA
ENDROOT
BRANCH  18  20
ATOM     20  C   UNL     1      -1.435   0.540  24.979  0.00  0.00    +0.057 A 
ATOM     21  C   UNL     1      -2.065   0.940  24.629  0.00  0.00    +0.008 A 
ATOM     22  C   UNL     1      -2.834   0.655  24.717  0.00  0.00    +0.040 A 
ATOM     23  C   UNL     1      -2.973  -0.030  25.155  0.00  0.00    +0.176 A 
ATOM     24  O   UNL     1      -3.665  -0.440  25.336  0.00  0.00    -0.435 OA
ATOM     25  C   UNL     1      -3.463  -1.092  25.797  0.00  0.00    +0.429 C 
ATOM     26  O   UNL     1      -2.645  -1.086  25.902  0.00  0.00    -0.435 OA
ATOM     27  C   UNL     1      -2.342  -0.430  25.505  0.00  0.00    +0.177 A 
ATOM     28  C   UNL     1      -1.572  -0.145  25.417  0.00  0.00    +0.045 A 
ENDBRANCH  18  20
BRANCH   8   7
ATOM      7  C   UNL     1       2.707   0.341  22.239  0.00  0.00    +0.122 C 
BRANCH   7   6
ATOM      3  C   UNL     1       4.850   0.217  23.469  0.00  0.00    +0.139 A 
ATOM      4  C   UNL     1       4.382  -0.457  23.387  0.00  0.00    +0.037 A 
ATOM      5  C   UNL     1       3.668  -0.416  22.977  0.00  0.00    +0.001 A 
ATOM      6  C   UNL     1       3.421   0.299  22.649  0.00  0.00    -0.002 A 
ATOM     29  C   UNL     1       3.889   0.974  22.731  0.00  0.00    +0.001 A 
ATOM     30  C   UNL     1       4.604   0.933  23.141  0.00  0.00    +0.037 A 
BRANCH   3   2
ATOM      1  C   UNL     1       5.737  -0.484  24.344  0.00  0.00    +0.252 C 
ATOM      2  O   UNL     1       5.565   0.177  23.880  0.00  0.00    -0.471 OA
ENDBRANCH   3   2
ENDBRANCH   7   6
ENDBRANCH   8   7
TORSDOF 4
ENDMDL
