MODEL 1
REMARK VINA RESULT:     -13.0      0.000      0.000
REMARK  Name = 
REMARK  5 active torsions:
REMARK  status: ('A' for Active; 'I' for Inactive)
REMARK    1  A    between atoms: O_2  and  C_3
REMARK    2  A    between atoms: C_8  and  C_9
REMARK    3  A    between atoms: C_12  and  C_14
REMARK    4  A    between atoms: N_21  and  C_22
REMARK    5  A    between atoms: C_22  and  C_23
REMARK                            x       y       z     vdW  Elec       q    Type
REMARK                         _______ _______ _______ _____ _____    ______ ____
ROOT
ATOM     14  C   UNL     1      -4.243   1.296  24.706  0.00  0.00    +0.100 C 
ATOM     15  C   UNL     1      -4.997   1.490  24.976  0.00  0.00    +0.033 C 
ATOM     16  C   UNL     1      -4.963   2.244  25.308  0.00  0.00    +0.096 C 
ATOM     17  N   UNL     1      -4.186   2.516  25.243  0.00  0.00    -0.262 N 
ATOM     18  C   UNL     1      -3.742   1.930  24.871  0.00  0.00    +0.104 C 
ATOM     19  C   UNL     1      -3.905   3.246  25.504  0.00  0.00    +0.324 C 
ATOM     20  O   UNL     1      -4.418   3.780  25.868  0.00  0.00    -0.251 OA
ATOM     21  N   UNL     1      -3.111   3.443  25.400  0.00  0.00    -0.184 NA
ENDROOT
BRANCH  14  12
ATOM      9  C   UNL     1      -3.746  -0.697  24.122  0.00  0.00    +0.252 A 
ATOM     10  N   UNL     1      -3.642  -0.292  23.411  0.00  0.00    -0.107 NA
ATOM     11  N   UNL     1      -3.816   0.503  23.544  0.00  0.00    -0.111 NA
ATOM     12  C   UNL     1      -4.027   0.590  24.336  0.00  0.00    +0.228 A 
ATOM     13  O   UNL     1      -3.983  -0.151  24.694  0.00  0.00    -0.419 OA
BRANCH   9   8
ATOM      3  C   UNL     1      -2.917  -1.781  24.550  0.00  0.00    +0.143 A 
ATOM      4  C   UNL     1      -2.803  -2.589  24.668  0.00  0.00    +0.037 A 
ATOM      5  C   UNL     1      -3.403  -3.122  24.478  0.00  0.00    +0.003 A 
ATOM      6  C   UNL     1      -4.117  -2.848  24.170  0.00  0.00    +0.000 A 
ATOM      7  C   UNL     1      -4.231  -2.039  24.051  0.00  0.00    +0.008 A 
ATOM      8  C   UNL     1      -3.631  -1.505  24.241  0.00  0.00    +0.089 A 
BRANCH   3   2
ATOM      1  C   UNL     1      -1.591  -1.524  25.018  0.00  0.00    +0.252 C 
ATOM      2  O   UNL     1      -2.317  -1.247  24.739  0.00  0.00    -0.471 OA
ENDBRANCH   3   2
ENDBRANCH   9   8
ENDBRANCH  14  12
BRANCH  21  22
ATOM     22  C   UNL     1      -2.829   4.173  25.661  0.00  0.00    +0.143 C 
BRANCH  22  23
ATOM     23  C   UNL     1      -2.086   4.438  25.421  0.00  0.00    -0.001 A 
ATOM     24  C   UNL     1      -1.985   5.222  25.181  0.00  0.00    -0.003 A 
ATOM     25  C   UNL     1      -1.242   5.487  24.941  0.00  0.00    -0.000 A 
ATOM     26  C   UNL     1      -0.599   4.969  24.940  0.00  0.00    -0.000 A 
ATOM     27  C   UNL     1      -0.700   4.187  25.179  0.00  0.00    -0.000 A 
ATOM     28  C   UNL     1      -1.443   3.921  25.419  0.00  0.00    -0.003 A 
ENDBRANCH  22  23
ENDBRANCH  21  22
TORSDOF 5
ENDMDL
MODEL 2
REMARK VINA RESULT:     -12.3      1.260      5.410
REMARK  Name = 
REMARK  5 active torsions:
REMARK  status: ('A' for Active; 'I' for Inactive)
REMARK    1  A    between atoms: O_2  and  C_3
REMARK    2  A    between atoms: C_8  and  C_9
REMARK    3  A    between atoms: C_12  and  C_14
REMARK    4  A    between atoms: N_21  and  C_22
REMARK    5  A    between atoms: C_22  and  C_23
REMARK                            x       y       z     vdW  Elec       q    Type
REMARK                         _______ _______ _______ _____ _____    ______ ____
ROOT
ATOM     14  C   UNL     1      -4.284   2.911  25.377  0.00  0.00    +0.100 C 
ATOM     15  C   UNL     1      -5.071   3.137  25.284  0.00  0.00    +0.033 C 
ATOM     16  C   UNL     1      -5.505   2.468  25.071  0.00  0.00    +0.096 C 
ATOM     17  N   UNL     1      -4.985   1.828  25.033  0.00  0.00    -0.262 N 
ATOM     18  C   UNL     1      -4.231   2.102  25.222  0.00  0.00    +0.104 C 
ATOM     19  C   UNL     1      -5.185   1.052  24.840  0.00  0.00    +0.324 C 
ATOM     20  O   UNL     1      -5.967   0.859  24.662  0.00  0.00    -0.251 OA
ATOM     21  N   UNL     1      -4.602   0.468  24.824  0.00  0.00    -0.184 NA
ENDROOT
BRANCH  14  12
ATOM      9  C   UNL     1      -2.516   4.095  25.551  0.00  0.00    +0.252 A 
ATOM     10  N   UNL     1      -2.879   4.243  26.276  0.00  0.00    -0.107 NA
ATOM     11  N   UNL     1      -3.585   3.818  26.299  0.00  0.00    -0.111 NA
ATOM     12  C   UNL     1      -3.659   3.407  25.588  0.00  0.00    +0.228 A 
ATOM     13  O   UNL     1      -2.998   3.578  25.125  0.00  0.00    -0.419 OA
BRANCH   9   8
ATOM      3  C   UNL     1      -1.109   3.955  25.340  0.00  0.00    +0.143 A 
ATOM      4  C   UNL     1      -0.390   4.268  25.084  0.00  0.00    +0.037 A 
ATOM      5  C   UNL     1      -0.359   5.036  24.784  0.00  0.00    +0.003 A 
ATOM      6  C   UNL     1      -1.046   5.490  24.738  0.00  0.00    +0.000 A 
ATOM      7  C   UNL     1      -1.765   5.176  24.994  0.00  0.00    +0.008 A 
ATOM      8  C   UNL     1      -1.797   4.409  25.295  0.00  0.00    +0.089 A 
BRANCH   3   2
ATOM      1  C   UNL     1      -0.447   2.747  25.721  0.00  0.00    +0.252 C 
ATOM      2  O   UNL     1      -1.141   3.187  25.641  0.00  0.00    -0.471 OA
ENDBRANCH   3   2
ENDBRANCH   9   8
ENDBRANCH  14  12
BRANCH  21  22
ATOM     22  C   UNL     1      -4.802  -0.309  24.631  0.00  0.00    +0.143 C 
BRANCH  22  23
ATOM     23  C   UNL     1      -4.236  -0.906  24.685  0.00  0.00    -0.001 A 
ATOM     24  C   UNL     1      -3.806  -1.004  25.383  0.00  0.00    -0.003 A 
ATOM     25  C   UNL     1      -3.239  -1.602  25.437  0.00  0.00    -0.000 A 
ATOM     26  C   UNL     1      -3.103  -2.100  24.794  0.00  0.00    -0.000 A 
ATOM     27  C   UNL     1      -3.533  -2.002  24.097  0.00  0.00    -0.000 A 
ATOM     28  C   UNL     1      -4.099  -1.405  24.043  0.00  0.00    -0.003 A 
ENDBRANCH  22  23
ENDBRANCH  21  22
TORSDOF 5
ENDMDL
MODEL 3
REMARK VINA RESULT:     -11.8      1.857      2.881
REMARK  Name = 
REMARK  5 active torsions:
REMARK  status: ('A' for Active; 'I' for Inactive)
REMARK    1  A    between atoms: O_2  and  C_3
REMARK    2  A    between atoms: C_8  and  C_9
REMARK    3  A    between atoms: C_12  and  C_14
REMARK    4  A    between atoms: N_21  and  C_22
REMARK    5  A    between atoms: C_22  and  C_23
REMARK                            x       y       z     vdW  Elec       q    Type
REMARK                         _______ _______ _______ _____ _____    ______ ____
ROOT
ATOM     14  C   UNL     1      -0.839   0.159  24.734  0.00  0.00    +0.100 C 
ATOM     15  C   UNL     1      -0.115  -0.031  24.389  0.00  0.00    +0.033 C 
ATOM     16  C   UNL     1       0.306   0.670  24.280  0.00  0.00    +0.096 C 
ATOM     17  N   UNL     1      -0.158   1.293  24.558  0.00  0.00    -0.262 N 
ATOM     18  C   UNL     1      -0.866   0.977  24.839  0.00  0.00    +0.104 C 
ATOM     19  C   UNL     1       0.049   2.091  24.555  0.00  0.00    +0.324 C 
ATOM     20  O   UNL     1       0.781   2.326  24.255  0.00  0.00    -0.251 OA
ATOM     21  N   UNL     1      -0.475   2.654  24.853  0.00  0.00    -0.184 NA
ENDROOT
BRANCH  14  12
ATOM      9  C   UNL     1      -2.461  -1.225  24.860  0.00  0.00    +0.252 A 
ATOM     10  N   UNL     1      -2.234  -1.172  25.651  0.00  0.00    -0.107 NA
ATOM     11  N   UNL     1      -1.599  -0.648  25.700  0.00  0.00    -0.111 NA
ATOM     12  C   UNL     1      -1.434  -0.376  24.939  0.00  0.00    +0.228 A 
ATOM     13  O   UNL     1      -1.966  -0.732  24.420  0.00  0.00    -0.419 OA
BRANCH   9   8
ATOM      3  C   UNL     1      -3.796  -1.338  24.362  0.00  0.00    +0.143 A 
ATOM      4  C   UNL     1      -4.410  -1.801  24.063  0.00  0.00    +0.037 A 
ATOM      5  C   UNL     1      -4.302  -2.613  23.963  0.00  0.00    +0.003 A 
ATOM      6  C   UNL     1      -3.582  -2.962  24.162  0.00  0.00    +0.000 A 
ATOM      7  C   UNL     1      -2.969  -2.499  24.461  0.00  0.00    +0.008 A 
ATOM      8  C   UNL     1      -3.075  -1.687  24.561  0.00  0.00    +0.089 A 
BRANCH   3   2
ATOM      1  C   UNL     1      -4.643  -0.188  24.328  0.00  0.00    +0.252 C 
ATOM      2  O   UNL     1      -3.902  -0.527  24.463  0.00  0.00    -0.471 OA
ENDBRANCH   3   2
ENDBRANCH   9   8
ENDBRANCH  14  12
BRANCH  21  22
ATOM     22  C   UNL     1      -0.267   3.453  24.851  0.00  0.00    +0.143 C 
BRANCH  22  23
ATOM     23  C   UNL     1      -0.833   4.026  25.027  0.00  0.00    -0.001 A 
ATOM     24  C   UNL     1      -1.512   3.821  25.449  0.00  0.00    -0.003 A 
ATOM     25  C   UNL     1      -2.078   4.394  25.625  0.00  0.00    -0.000 A 
ATOM     26  C   UNL     1      -1.965   5.174  25.378  0.00  0.00    -0.000 A 
ATOM     27  C   UNL     1      -1.288   5.379  24.956  0.00  0.00    -0.000 A 
ATOM     28  C   UNL     1      -0.721   4.806  24.781  0.00  0.00    -0.003 A 
ENDBRANCH  22  23
ENDBRANCH  21  22
TORSDOF 5
ENDMDL
MODEL 4
REMARK VINA RESULT:     -11.8      2.009      6.195
REMARK  Name = 
REMARK  5 active torsions:
REMARK  status: ('A' for Active; 'I' for Inactive)
REMARK    1  A    between atoms: O_2  and  C_3
REMARK    2  A    between atoms: C_8  and  C_9
REMARK    3  A    between atoms: C_12  and  C_14
REMARK    4  A    between atoms: N_21  and  C_22
REMARK    5  A    between atoms: C_22  and  C_23
REMARK                            x       y       z     vdW  Elec       q    Type
REMARK                         _______ _______ _______ _____ _____    ______ ____
ROOT
ATOM     14  C   UNL     1      -0.229   1.349  24.697  0.00  0.00    +0.100 C 
ATOM     15  C   UNL     1       0.384   1.213  24.162  0.00  0.00    +0.033 C 
ATOM     16  C   UNL     1       0.332   0.429  23.910  0.00  0.00    +0.096 C 
ATOM     17  N   UNL     1      -0.313   0.081  24.289  0.00  0.00    -0.262 N 
ATOM     18  C   UNL     1      -0.659   0.649  24.776  0.00  0.00    +0.104 C 
ATOM     19  C   UNL     1      -0.565  -0.699  24.198  0.00  0.00    +0.324 C 
ATOM     20  O   UNL     1      -0.161  -1.207  23.689  0.00  0.00    -0.251 OA
ATOM     21  N   UNL     1      -1.223  -0.970  24.616  0.00  0.00    -0.184 NA
ENDROOT
BRANCH  14  12
ATOM      9  C   UNL     1      -0.798   3.303  25.341  0.00  0.00    +0.252 A 
ATOM     10  N   UNL     1      -0.449   3.005  26.026  0.00  0.00    -0.107 NA
ATOM     11  N   UNL     1      -0.193   2.237  25.868  0.00  0.00    -0.111 NA
ATOM     12  C   UNL     1      -0.385   2.060  25.085  0.00  0.00    +0.228 A 
ATOM     13  O   UNL     1      -0.759   2.719  24.759  0.00  0.00    -0.419 OA
BRANCH   9   8
ATOM      3  C   UNL     1      -1.914   4.187  25.473  0.00  0.00    +0.143 A 
ATOM      4  C   UNL     1      -2.245   4.938  25.385  0.00  0.00    +0.037 A 
ATOM      5  C   UNL     1      -1.792   5.554  25.076  0.00  0.00    +0.003 A 
ATOM      6  C   UNL     1      -1.009   5.421  24.856  0.00  0.00    +0.000 A 
ATOM      7  C   UNL     1      -0.678   4.671  24.944  0.00  0.00    +0.008 A 
ATOM      8  C   UNL     1      -1.130   4.053  25.253  0.00  0.00    +0.089 A 
BRANCH   3   2
ATOM      1  C   UNL     1      -3.161   3.693  25.966  0.00  0.00    +0.252 C 
ATOM      2  O   UNL     1      -2.366   3.570  25.782  0.00  0.00    -0.471 OA
ENDBRANCH   3   2
ENDBRANCH   9   8
ENDBRANCH  14  12
BRANCH  21  22
ATOM     22  C   UNL     1      -1.476  -1.750  24.525  0.00  0.00    +0.143 C 
BRANCH  22  23
ATOM     23  C   UNL     1      -2.251  -1.958  24.718  0.00  0.00    -0.001 A 
ATOM     24  C   UNL     1      -2.620  -1.614  25.371  0.00  0.00    -0.003 A 
ATOM     25  C   UNL     1      -3.395  -1.821  25.564  0.00  0.00    -0.000 A 
ATOM     26  C   UNL     1      -3.801  -2.372  25.103  0.00  0.00    -0.000 A 
ATOM     27  C   UNL     1      -3.432  -2.716  24.450  0.00  0.00    -0.000 A 
ATOM     28  C   UNL     1      -2.657  -2.509  24.258  0.00  0.00    -0.003 A 
ENDBRANCH  22  23
ENDBRANCH  21  22
TORSDOF 5
ENDMDL
MODEL 5
REMARK VINA RESULT:     -10.6      2.221      3.993
REMARK  Name = 
REMARK  5 active torsions:
REMARK  status: ('A' for Active; 'I' for Inactive)
REMARK    1  A    between atoms: O_2  and  C_3
REMARK    2  A    between atoms: C_8  and  C_9
REMARK    3  A    between atoms: C_12  and  C_14
REMARK    4  A    between atoms: N_21  and  C_22
REMARK    5  A    between atoms: C_22  and  C_23
REMARK                            x       y       z     vdW  Elec       q    Type
REMARK                         _______ _______ _______ _____ _____    ______ ____
ROOT
ATOM     14  C   UNL     1      -1.275   3.170  25.254  0.00  0.00    +0.100 C 
ATOM     15  C   UNL     1      -1.109   3.965  25.392  0.00  0.00    +0.033 C 
ATOM     16  C   UNL     1      -1.825   4.359  25.501  0.00  0.00    +0.096 C 
ATOM     17  N   UNL     1      -2.434   3.806  25.430  0.00  0.00    -0.262 N 
ATOM     18  C   UNL     1      -2.093   3.071  25.277  0.00  0.00    +0.104 C 
ATOM     19  C   UNL     1      -3.241   3.962  25.500  0.00  0.00    +0.324 C 
ATOM     20  O   UNL     1      -3.502   4.729  25.654  0.00  0.00    -0.251 OA
ATOM     21  N   UNL     1      -3.787   3.350  25.414  0.00  0.00    -0.184 NA
ENDROOT
BRANCH  14  12
ATOM      9  C   UNL     1      -0.129   1.471  24.654  0.00  0.00    +0.252 A 
ATOM     10  N   UNL     1       0.403   1.852  25.155  0.00  0.00    -0.107 NA
ATOM     11  N   UNL     1       0.038   2.535  25.441  0.00  0.00    -0.111 NA
ATOM     12  C   UNL     1      -0.719   2.575  25.116  0.00  0.00    +0.228 A 
ATOM     13  O   UNL     1      -0.822   1.918  24.629  0.00  0.00    -0.419 OA
BRANCH   9   8
ATOM      3  C   UNL     1      -0.302   0.057  24.534  0.00  0.00    +0.143 A 
ATOM      4  C   UNL     1      -0.165  -0.648  24.128  0.00  0.00    +0.037 A 
ATOM      5  C   UNL     1       0.282  -0.643  23.434  0.00  0.00    +0.003 A 
ATOM      6  C   UNL     1       0.592   0.065  23.147  0.00  0.00    +0.000 A 
ATOM      7  C   UNL     1       0.455   0.769  23.554  0.00  0.00    +0.008 A 
ATOM      8  C   UNL     1       0.008   0.766  24.247  0.00  0.00    +0.089 A 
BRANCH   3   2
ATOM      1  C   UNL     1      -1.070  -0.654  25.507  0.00  0.00    +0.252 C 
ATOM      2  O   UNL     1      -0.749   0.053  25.228  0.00  0.00    -0.471 OA
ENDBRANCH   3   2
ENDBRANCH   9   8
ENDBRANCH  14  12
BRANCH  21  22
ATOM     22  C   UNL     1      -4.595   3.506  25.484  0.00  0.00    +0.143 C 
BRANCH  22  23
ATOM     23  C   UNL     1      -5.139   2.888  25.442  0.00  0.00    -0.001 A 
ATOM     24  C   UNL     1      -5.610   2.707  26.095  0.00  0.00    -0.003 A 
ATOM     25  C   UNL     1      -6.155   2.089  26.053  0.00  0.00    -0.000 A 
ATOM     26  C   UNL     1      -6.228   1.651  25.358  0.00  0.00    -0.000 A 
ATOM     27  C   UNL     1      -5.757   1.830  24.705  0.00  0.00    -0.000 A 
ATOM     28  C   UNL     1      -5.213   2.449  24.747  0.00  0.00    -0.003 A 
ENDBRANCH  22  23
ENDBRANCH  21  22
TORSDOF 5
ENDMDL
