MODEL 1
REMARK VINA RESULT:     -15.9      0.000      0.000
REMARK  Name = 
REMARK  3 active torsions:
REMARK  status: ('A' for Active; 'I' for Inactive)
REMARK    1  A    between atoms: C_5  and  N_6
REMARK    2  A    between atoms: C_18  and  N_19
REMARK    3  A    between atoms: C_20  and  C_22
REMARK                            x       y       z     vdW  Elec       q    Type
REMARK                         _______ _______ _______ _____ _____    ______ ____
ROOT
ATOM      6  N   UNL     1      -2.258  -0.059  24.528  0.00  0.00    -0.162 NA
ATOM      7  C   UNL     1      -1.703  -0.671  24.538  0.00  0.00    +0.327 C 
ATOM      8  O   UNL     1      -0.897  -0.498  24.538  0.00  0.00    -0.250 OA
ATOM      9  N   UNL     1      -1.956  -1.457  24.548  0.00  0.00    -0.262 N 
ATOM     10  C   UNL     1      -1.907  -2.291  24.559  0.00  0.00    +0.097 C 
ATOM     11  C   UNL     1      -2.870  -2.513  24.559  0.00  0.00    +0.043 C 
ATOM     12  C   UNL     1      -3.609  -2.856  24.561  0.00  0.00    +0.011 C 
ATOM     13  C   UNL     1      -3.338  -2.209  24.553  0.00  0.00    +0.058 C 
ATOM     14  C   UNL     1      -2.404  -2.011  24.554  0.00  0.00    +0.101 C 
ATOM     15  C   UNL     1      -3.586  -1.324  24.541  0.00  0.00    +0.041 A 
ATOM     16  C   UNL     1      -4.259  -0.848  24.532  0.00  0.00    +0.014 A 
ATOM     17  C   UNL     1      -4.182  -0.026  24.521  0.00  0.00    +0.023 A 
ATOM     18  C   UNL     1      -3.433   0.318  24.519  0.00  0.00    +0.130 A 
ATOM     27  C   UNL     1      -2.760  -0.158  24.528  0.00  0.00    +0.276 A 
ATOM     28  O   UNL     1      -2.356   0.561  24.520  0.00  0.00    -0.266 OA
ATOM     29  N   UNL     1      -2.836  -0.979  24.539  0.00  0.00    -0.298 N 
ATOM     30  C   UNL     1      -3.120  -1.586  24.546  0.00  0.00    +0.110 C 
ENDROOT
BRANCH   6   5
ATOM      1  F   UNL     1      -1.245   3.081  24.492  0.00  0.00    -0.204 F 
ATOM      2  C   UNL     1      -1.498   2.296  24.501  0.00  0.00    +0.140 A 
ATOM      3  C   UNL     1      -1.618   1.910  25.220  0.00  0.00    +0.031 A 
ATOM      4  C   UNL     1      -1.872   1.124  25.229  0.00  0.00    +0.019 A 
ATOM      5  C   UNL     1      -2.004   0.725  24.518  0.00  0.00    +0.075 A 
ATOM     31  C   UNL     1      -1.884   1.112  23.800  0.00  0.00    +0.019 A 
ATOM     32  C   UNL     1      -1.631   1.897  23.791  0.00  0.00    +0.031 A 
ENDBRANCH   6   5
BRANCH  18  19
ATOM     19  N   UNL     1      -3.357   1.140  24.509  0.00  0.00    -0.170 NA
ATOM     20  C   UNL     1      -4.030   1.616  24.510  0.00  0.00    +0.275 C 
ATOM     21  O   UNL     1      -4.780   1.272  24.522  0.00  0.00    -0.267 OA
BRANCH  20  22
ATOM     22  C   UNL     1      -3.954   2.438  24.499  0.00  0.00    +0.085 A 
ATOM     23  C   UNL     1      -3.866   2.908  23.828  0.00  0.00    +0.012 A 
ATOM     24  C   UNL     1      -3.810   3.695  24.071  0.00  0.00    +0.008 A 
ATOM     25  C   UNL     1      -3.863   3.710  24.894  0.00  0.00    +0.036 A 
ATOM     26  S   UNL     1      -3.952   2.934  25.159  0.00  0.00    -0.082 S 
ENDBRANCH  20  22
ENDBRANCH  18  19
TORSDOF 3
ENDMDL
MODEL 2
REMARK VINA RESULT:     -15.4      1.703      4.217
REMARK  Name = 
REMARK  3 active torsions:
REMARK  status: ('A' for Active; 'I' for Inactive)
REMARK    1  A    between atoms: C_5  and  N_6
REMARK    2  A    between atoms: C_18  and  N_19
REMARK    3  A    between atoms: C_20  and  C_22
REMARK                            x       y       z     vdW  Elec       q    Type
REMARK                         _______ _______ _______ _____ _____    ______ ____
ROOT
ATOM      6  N   UNL     1      -3.999   0.687  24.927  0.00  0.00    -0.162 NA
ATOM      7  C   UNL     1      -4.794   0.910  24.920  0.00  0.00    +0.327 C 
ATOM      8  O   UNL     1      -5.384   0.335  24.929  0.00  0.00    -0.250 OA
ATOM      9  N   UNL     1      -4.998   1.710  24.904  0.00  0.00    -0.262 N 
ATOM     10  C   UNL     1      -5.482   2.390  24.890  0.00  0.00    +0.097 C 
ATOM     11  C   UNL     1      -4.785   3.090  24.878  0.00  0.00    +0.043 C 
ATOM     12  C   UNL     1      -4.342   3.774  24.866  0.00  0.00    +0.011 C 
ATOM     13  C   UNL     1      -4.227   3.082  24.880  0.00  0.00    +0.058 C 
ATOM     14  C   UNL     1      -4.913   2.417  24.891  0.00  0.00    +0.101 C 
ATOM     15  C   UNL     1      -3.547   2.464  24.894  0.00  0.00    +0.041 A 
ATOM     16  C   UNL     1      -2.723   2.419  24.897  0.00  0.00    +0.014 A 
ATOM     17  C   UNL     1      -2.351   1.683  24.912  0.00  0.00    +0.023 A 
ATOM     18  C   UNL     1      -2.803   0.992  24.924  0.00  0.00    +0.130 A 
ATOM     27  C   UNL     1      -3.626   1.038  24.921  0.00  0.00    +0.276 A 
ATOM     28  O   UNL     1      -3.586   0.214  24.937  0.00  0.00    -0.266 OA
ATOM     29  N   UNL     1      -3.998   1.774  24.906  0.00  0.00    -0.298 N 
ATOM     30  C   UNL     1      -4.081   2.438  24.893  0.00  0.00    +0.110 C 
ENDROOT
BRANCH   6   5
ATOM      1  F   UNL     1      -3.186  -2.511  24.988  0.00  0.00    -0.204 F 
ATOM      2  C   UNL     1      -3.390  -1.711  24.972  0.00  0.00    +0.140 A 
ATOM      3  C   UNL     1      -3.498  -1.327  24.251  0.00  0.00    +0.031 A 
ATOM      4  C   UNL     1      -3.701  -0.527  24.235  0.00  0.00    +0.019 A 
ATOM      5  C   UNL     1      -3.796  -0.112  24.942  0.00  0.00    +0.075 A 
ATOM     31  C   UNL     1      -3.688  -0.497  25.664  0.00  0.00    +0.019 A 
ATOM     32  C   UNL     1      -3.484  -1.296  25.679  0.00  0.00    +0.031 A 
ENDBRANCH   6   5
BRANCH  18  19
ATOM     19  N   UNL     1      -2.430   0.257  24.939  0.00  0.00    -0.170 NA
ATOM     20  C   UNL     1      -1.607   0.211  24.951  0.00  0.00    +0.275 C 
ATOM     21  O   UNL     1      -1.155   0.902  24.947  0.00  0.00    -0.267 OA
BRANCH  20  22
ATOM     22  C   UNL     1      -1.234  -0.526  24.966  0.00  0.00    +0.085 A 
ATOM     23  C   UNL     1      -1.063  -0.968  25.640  0.00  0.00    +0.012 A 
ATOM     24  C   UNL     1      -0.690  -1.665  25.401  0.00  0.00    +0.008 A 
ATOM     25  C   UNL     1      -0.632  -1.652  24.578  0.00  0.00    +0.036 A 
ATOM     26  S   UNL     1      -0.968  -0.948  24.309  0.00  0.00    -0.082 S 
ENDBRANCH  20  22
ENDBRANCH  18  19
TORSDOF 3
ENDMDL
MODEL 3
REMARK VINA RESULT:     -15.4      1.134      2.190
REMARK  Name = 
REMARK  3 active torsions:
REMARK  status: ('A' for Active; 'I' for Inactive)
REMARK    1  A    between atoms: C_5  and  N_6
REMARK    2  A    between atoms: C_18  and  N_19
REMARK    3  A    between atoms: C_20  and  C_22
REMARK                            x       y       z     vdW  Elec       q    Type
REMARK                         _______ _______ _______ _____ _____    ______ ____
ROOT
ATOM      6  N   UNL     1      -3.425   0.539  24.485  0.00  0.00    -0.162 NA
ATOM      7  C   UNL     1      -4.065   0.065  24.267  0.00  0.00    +0.327 C 
ATOM      8  O   UNL     1      -4.749   0.411  23.963  0.00  0.00    -0.250 OA
ATOM      9  N   UNL     1      -4.021  -0.754  24.354  0.00  0.00    -0.262 N 
ATOM     10  C   UNL     1      -4.259  -1.555  24.326  0.00  0.00    +0.097 C 
ATOM     11  C   UNL     1      -3.445  -1.982  24.689  0.00  0.00    +0.043 C 
ATOM     12  C   UNL     1      -2.862  -2.478  24.966  0.00  0.00    +0.011 C 
ATOM     13  C   UNL     1      -2.954  -1.789  24.871  0.00  0.00    +0.058 C 
ATOM     14  C   UNL     1      -3.748  -1.391  24.518  0.00  0.00    +0.101 C 
ATOM     15  C   UNL     1      -2.526  -0.983  24.976  0.00  0.00    +0.041 A 
ATOM     16  C   UNL     1      -1.811  -0.667  25.238  0.00  0.00    +0.014 A 
ATOM     17  C   UNL     1      -1.688   0.148  25.218  0.00  0.00    +0.023 A 
ATOM     18  C   UNL     1      -2.281   0.648  24.937  0.00  0.00    +0.130 A 
ATOM     27  C   UNL     1      -2.997   0.332  24.675  0.00  0.00    +0.276 A 
ATOM     28  O   UNL     1      -3.192   1.120  24.530  0.00  0.00    -0.266 OA
ATOM     29  N   UNL     1      -3.119  -0.483  24.695  0.00  0.00    -0.298 N 
ATOM     30  C   UNL     1      -3.006  -1.135  24.795  0.00  0.00    +0.110 C 
ENDROOT
BRANCH   6   5
ATOM      1  F   UNL     1      -3.605   3.816  24.140  0.00  0.00    -0.204 F 
ATOM      2  C   UNL     1      -3.560   2.996  24.226  0.00  0.00    +0.140 A 
ATOM      3  C   UNL     1      -3.808   2.641  24.928  0.00  0.00    +0.031 A 
ATOM      4  C   UNL     1      -3.763   1.822  25.015  0.00  0.00    +0.019 A 
ATOM      5  C   UNL     1      -3.470   1.357  24.398  0.00  0.00    +0.075 A 
ATOM     31  C   UNL     1      -3.223   1.713  23.697  0.00  0.00    +0.019 A 
ATOM     32  C   UNL     1      -3.267   2.531  23.610  0.00  0.00    +0.031 A 
ENDBRANCH   6   5
BRANCH  18  19
ATOM     19  N   UNL     1      -2.158   1.463  24.918  0.00  0.00    -0.170 NA
ATOM     20  C   UNL     1      -1.443   1.779  25.181  0.00  0.00    +0.275 C 
ATOM     21  O   UNL     1      -0.851   1.279  25.464  0.00  0.00    -0.267 OA
BRANCH  20  22
ATOM     22  C   UNL     1      -1.321   2.596  25.162  0.00  0.00    +0.085 A 
ATOM     23  C   UNL     1      -1.542   3.132  25.747  0.00  0.00    +0.012 A 
ATOM     24  C   UNL     1      -1.314   3.887  25.501  0.00  0.00    +0.008 A 
ATOM     25  C   UNL     1      -0.950   3.814  24.764  0.00  0.00    +0.036 A 
ATOM     26  S   UNL     1      -0.954   3.016  24.554  0.00  0.00    -0.082 S 
ENDBRANCH  20  22
ENDBRANCH  18  19
TORSDOF 3
ENDMDL
MODEL 4
REMARK VINA RESULT:     -15.1      1.684      4.400
REMARK  Name = 
REMARK  3 active torsions:
REMARK  status: ('A' for Active; 'I' for Inactive)
REMARK    1  A    between atoms: C_5  and  N_6
REMARK    2  A    between atoms: C_18  and  N_19
REMARK    3  A    between atoms: C_20  and  C_22
REMARK                            x       y       z     vdW  Elec       q    Type
REMARK                         _______ _______ _______ _____ _____    ______ ____
ROOT
ATOM      6  N   UNL     1      -3.159   1.902  24.688  0.00  0.00    -0.162 NA
ATOM      7  C   UNL     1      -3.601   2.583  24.538  0.00  0.00    +0.327 C 
ATOM      8  O   UNL     1      -4.362   2.520  24.225  0.00  0.00    -0.250 OA
ATOM      9  N   UNL     1      -3.282   3.326  24.700  0.00  0.00    -0.262 N 
ATOM     10  C   UNL     1      -3.235   4.159  24.756  0.00  0.00    +0.097 C 
ATOM     11  C   UNL     1      -2.325   4.248  25.131  0.00  0.00    +0.043 C 
ATOM     12  C   UNL     1      -1.608   4.488  25.434  0.00  0.00    +0.011 C 
ATOM     13  C   UNL     1      -1.928   3.884  25.277  0.00  0.00    +0.058 C 
ATOM     14  C   UNL     1      -2.809   3.814  24.914  0.00  0.00    +0.101 C 
ATOM     15  C   UNL     1      -1.798   2.974  25.290  0.00  0.00    +0.041 A 
ATOM     16  C   UNL     1      -1.232   2.411  25.497  0.00  0.00    +0.014 A 
ATOM     17  C   UNL     1      -1.393   1.608  25.396  0.00  0.00    +0.023 A 
ATOM     18  C   UNL     1      -2.121   1.369  25.089  0.00  0.00    +0.130 A 
ATOM     27  C   UNL     1      -2.687   1.932  24.882  0.00  0.00    +0.276 A 
ATOM     28  O   UNL     1      -3.137   1.274  24.670  0.00  0.00    -0.266 OA
ATOM     29  N   UNL     1      -2.526   2.734  24.983  0.00  0.00    -0.298 N 
ATOM     30  C   UNL     1      -2.198   3.296  25.141  0.00  0.00    +0.110 C 
ENDROOT
BRANCH   6   5
ATOM      1  F   UNL     1      -4.438  -1.070  24.040  0.00  0.00    -0.204 F 
ATOM      2  C   UNL     1      -4.119  -0.327  24.202  0.00  0.00    +0.140 A 
ATOM      3  C   UNL     1      -4.240   0.022  24.939  0.00  0.00    +0.031 A 
ATOM      4  C   UNL     1      -3.920   0.766  25.102  0.00  0.00    +0.019 A 
ATOM      5  C   UNL     1      -3.479   1.159  24.526  0.00  0.00    +0.075 A 
ATOM     31  C   UNL     1      -3.358   0.810  23.789  0.00  0.00    +0.019 A 
ATOM     32  C   UNL     1      -3.677   0.067  23.626  0.00  0.00    +0.031 A 
ENDBRANCH   6   5
BRANCH  18  19
ATOM     19  N   UNL     1      -2.281   0.566  24.989  0.00  0.00    -0.170 NA
ATOM     20  C   UNL     1      -1.717   0.003  25.202  0.00  0.00    +0.275 C 
ATOM     21  O   UNL     1      -0.993   0.242  25.516  0.00  0.00    -0.267 OA
BRANCH  20  22
ATOM     22  C   UNL     1      -1.878  -0.801  25.101  0.00  0.00    +0.085 A 
ATOM     23  C   UNL     1      -2.300  -1.279  25.623  0.00  0.00    +0.012 A 
ATOM     24  C   UNL     1      -2.328  -2.041  25.306  0.00  0.00    +0.008 A 
ATOM     25  C   UNL     1      -1.923  -2.032  24.587  0.00  0.00    +0.036 A 
ATOM     26  S   UNL     1      -1.645  -1.265  24.461  0.00  0.00    -0.082 S 
ENDBRANCH  20  22
ENDBRANCH  18  19
TORSDOF 3
ENDMDL
MODEL 5
REMARK VINA RESULT:     -14.9      1.755      3.981
REMARK  Name = 
REMARK  3 active torsions:
REMARK  status: ('A' for Active; 'I' for Inactive)
REMARK    1  A    between atoms: C_5  and  N_6
REMARK    2  A    between atoms: C_18  and  N_19
REMARK    3  A    between atoms: C_20  and  C_22
REMARK                            x       y       z     vdW  Elec       q    Type
REMARK                         _______ _______ _______ _____ _____    ______ ____
ROOT
ATOM      6  N   UNL     1      -1.375   1.578  25.120  0.00  0.00    -0.162 NA
ATOM      7  C   UNL     1      -0.701   2.045  25.217  0.00  0.00    +0.327 C 
ATOM      8  O   UNL     1       0.043   1.693  25.256  0.00  0.00    -0.250 OA
ATOM      9  N   UNL     1      -0.773   2.865  25.274  0.00  0.00    -0.262 N 
ATOM     10  C   UNL     1      -0.541   3.664  25.356  0.00  0.00    +0.097 C 
ATOM     11  C   UNL     1      -1.427   4.099  25.310  0.00  0.00    +0.043 C 
ATOM     12  C   UNL     1      -2.068   4.601  25.292  0.00  0.00    +0.011 C 
ATOM     13  C   UNL     1      -1.949   3.911  25.249  0.00  0.00    +0.058 C 
ATOM     14  C   UNL     1      -1.085   3.505  25.295  0.00  0.00    +0.101 C 
ATOM     15  C   UNL     1      -2.385   3.108  25.148  0.00  0.00    +0.041 A 
ATOM     16  C   UNL     1      -3.144   2.799  25.056  0.00  0.00    +0.014 A 
ATOM     17  C   UNL     1      -3.251   1.985  24.983  0.00  0.00    +0.023 A 
ATOM     18  C   UNL     1      -2.600   1.479  25.003  0.00  0.00    +0.130 A 
ATOM     27  C   UNL     1      -1.841   1.788  25.095  0.00  0.00    +0.276 A 
ATOM     28  O   UNL     1      -1.608   0.998  25.055  0.00  0.00    -0.266 OA
ATOM     29  N   UNL     1      -1.733   2.603  25.167  0.00  0.00    -0.298 N 
ATOM     30  C   UNL     1      -1.874   3.256  25.205  0.00  0.00    +0.110 C 
ENDROOT
BRANCH   6   5
ATOM      1  F   UNL     1      -1.086  -1.702  24.890  0.00  0.00    -0.204 F 
ATOM      2  C   UNL     1      -1.158  -0.882  24.948  0.00  0.00    +0.140 A 
ATOM      3  C   UNL     1      -1.128  -0.416  24.267  0.00  0.00    +0.031 A 
ATOM      4  C   UNL     1      -1.200   0.404  24.325  0.00  0.00    +0.019 A 
ATOM      5  C   UNL     1      -1.303   0.758  25.063  0.00  0.00    +0.075 A 
ATOM     31  C   UNL     1      -1.333   0.292  25.743  0.00  0.00    +0.019 A 
ATOM     32  C   UNL     1      -1.261  -0.527  25.686  0.00  0.00    +0.031 A 
ENDBRANCH   6   5
BRANCH  18  19
ATOM     19  N   UNL     1      -2.708   0.665  24.930  0.00  0.00    -0.170 NA
ATOM     20  C   UNL     1      -3.468   0.355  24.847  0.00  0.00    +0.275 C 
ATOM     21  O   UNL     1      -4.120   0.860  24.836  0.00  0.00    -0.267 OA
BRANCH  20  22
ATOM     22  C   UNL     1      -3.576  -0.461  24.774  0.00  0.00    +0.085 A 
ATOM     23  C   UNL     1      -3.627  -0.999  25.395  0.00  0.00    +0.012 A 
ATOM     24  C   UNL     1      -3.734  -1.752  25.073  0.00  0.00    +0.008 A 
ATOM     25  C   UNL     1      -3.749  -1.676  24.252  0.00  0.00    +0.036 A 
ATOM     26  S   UNL     1      -3.651  -0.878  24.067  0.00  0.00    -0.082 S 
ENDBRANCH  20  22
ENDBRANCH  18  19
TORSDOF 3
ENDMDL
MODEL 6
REMARK VINA RESULT:     -14.8      2.238      3.827
REMARK  Name = 
REMARK  3 active torsions:
REMARK  status: ('A' for Active; 'I' for Inactive)
REMARK    1  A    between atoms: C_5  and  N_6
REMARK    2  A    between atoms: C_18  and  N_19
REMARK    3  A    between atoms: C_20  and  C_22
REMARK                            x       y       z     vdW  Elec       q    Type
REMARK                         _______ _______ _______ _____ _____    ______ ____
ROOT
ATOM      6  N   UNL     1      -3.571   3.041  25.285  0.00  0.00    -0.162 NA
ATOM      7  C   UNL     1      -4.223   3.509  25.477  0.00  0.00    +0.327 C 
ATOM      8  O   UNL     1      -4.115   4.298  25.694  0.00  0.00    -0.250 OA
ATOM      9  N   UNL     1      -4.983   3.189  25.453  0.00  0.00    -0.262 N 
ATOM     10  C   UNL     1      -5.815   3.151  25.517  0.00  0.00    +0.097 C 
ATOM     11  C   UNL     1      -5.959   2.208  25.260  0.00  0.00    +0.043 C 
ATOM     12  C   UNL     1      -6.241   1.467  25.072  0.00  0.00    +0.011 C 
ATOM     13  C   UNL     1      -5.620   1.792  25.110  0.00  0.00    +0.058 C 
ATOM     14  C   UNL     1      -5.497   2.705  25.361  0.00  0.00    +0.101 C 
ATOM     15  C   UNL     1      -4.721   1.644  24.987  0.00  0.00    +0.041 A 
ATOM     16  C   UNL     1      -4.194   1.048  24.769  0.00  0.00    +0.014 A 
ATOM     17  C   UNL     1      -3.384   1.203  24.741  0.00  0.00    +0.023 A 
ATOM     18  C   UNL     1      -3.102   1.955  24.931  0.00  0.00    +0.130 A 
ATOM     27  C   UNL     1      -3.629   2.551  25.149  0.00  0.00    +0.276 A 
ATOM     28  O   UNL     1      -2.947   3.009  25.220  0.00  0.00    -0.266 OA
ATOM     29  N   UNL     1      -4.438   2.395  25.177  0.00  0.00    -0.298 N 
ATOM     30  C   UNL     1      -5.018   2.063  25.134  0.00  0.00    +0.110 C 
ENDROOT
BRANCH   6   5
ATOM      1  F   UNL     1      -0.533   4.326  25.379  0.00  0.00    -0.204 F 
ATOM      2  C   UNL     1      -1.292   4.004  25.355  0.00  0.00    +0.140 A 
ATOM      3  C   UNL     1      -1.734   4.041  24.660  0.00  0.00    +0.031 A 
ATOM      4  C   UNL     1      -2.494   3.719  24.636  0.00  0.00    +0.019 A 
ATOM      5  C   UNL     1      -2.812   3.362  25.309  0.00  0.00    +0.075 A 
ATOM     31  C   UNL     1      -2.369   3.326  26.004  0.00  0.00    +0.019 A 
ATOM     32  C   UNL     1      -1.610   3.646  26.028  0.00  0.00    +0.031 A 
ENDBRANCH   6   5
BRANCH  18  19
ATOM     19  N   UNL     1      -2.292   2.110  24.903  0.00  0.00    -0.170 NA
ATOM     20  C   UNL     1      -1.764   1.511  24.697  0.00  0.00    +0.275 C 
ATOM     21  O   UNL     1      -2.046   0.756  24.518  0.00  0.00    -0.267 OA
BRANCH  20  22
ATOM     22  C   UNL     1      -0.954   1.666  24.669  0.00  0.00    +0.085 A 
ATOM     23  C   UNL     1      -0.432   1.631  25.306  0.00  0.00    +0.012 A 
ATOM     24  C   UNL     1       0.321   1.827  25.030  0.00  0.00    +0.008 A 
ATOM     25  C   UNL     1       0.263   1.984  24.222  0.00  0.00    +0.036 A 
ATOM     26  S   UNL     1      -0.525   1.884  23.999  0.00  0.00    -0.082 S 
ENDBRANCH  20  22
ENDBRANCH  18  19
TORSDOF 3
ENDMDL
MODEL 7
REMARK VINA RESULT:     -14.7      1.590      3.628
REMARK  Name = 
REMARK  3 active torsions:
REMARK  status: ('A' for Active; 'I' for Inactive)
REMARK    1  A    between atoms: C_5  and  N_6
REMARK    2  A    between atoms: C_18  and  N_19
REMARK    3  A    between atoms: C_20  and  C_22
REMARK                            x       y       z     vdW  Elec       q    Type
REMARK                         _______ _______ _______ _____ _____    ______ ____
ROOT
ATOM      6  N   UNL     1      -3.055   1.723  24.757  0.00  0.00    -0.162 NA
ATOM      7  C   UNL     1      -3.323   2.499  24.675  0.00  0.00    +0.327 C 
ATOM      8  O   UNL     1      -2.787   3.107  24.522  0.00  0.00    -0.250 OA
ATOM      9  N   UNL     1      -4.128   2.668  24.746  0.00  0.00    -0.262 N 
ATOM     10  C   UNL     1      -4.831   3.118  24.763  0.00  0.00    +0.097 C 
ATOM     11  C   UNL     1      -5.485   2.400  24.945  0.00  0.00    +0.043 C 
ATOM     12  C   UNL     1      -6.137   1.934  25.091  0.00  0.00    +0.011 C 
ATOM     13  C   UNL     1      -5.444   1.849  25.021  0.00  0.00    +0.058 C 
ATOM     14  C   UNL     1      -4.825   2.554  24.844  0.00  0.00    +0.101 C 
ATOM     15  C   UNL     1      -4.791   1.202  25.039  0.00  0.00    +0.041 A 
ATOM     16  C   UNL     1      -4.698   0.389  25.147  0.00  0.00    +0.014 A 
ATOM     17  C   UNL     1      -3.946   0.052  25.107  0.00  0.00    +0.023 A 
ATOM     18  C   UNL     1      -3.288   0.527  24.960  0.00  0.00    +0.130 A 
ATOM     27  C   UNL     1      -3.381   1.340  24.852  0.00  0.00    +0.276 A 
ATOM     28  O   UNL     1      -2.562   1.333  24.756  0.00  0.00    -0.266 OA
ATOM     29  N   UNL     1      -4.133   1.677  24.891  0.00  0.00    -0.298 N 
ATOM     30  C   UNL     1      -4.796   1.731  24.962  0.00  0.00    +0.110 C 
ENDROOT
BRANCH   6   5
ATOM      1  F   UNL     1       0.163   1.051  24.472  0.00  0.00    -0.204 F 
ATOM      2  C   UNL     1      -0.642   1.219  24.543  0.00  0.00    +0.140 A 
ATOM      3  C   UNL     1      -1.128   1.199  23.877  0.00  0.00    +0.031 A 
ATOM      4  C   UNL     1      -1.933   1.366  23.948  0.00  0.00    +0.019 A 
ATOM      5  C   UNL     1      -2.251   1.555  24.686  0.00  0.00    +0.075 A 
ATOM     31  C   UNL     1      -1.765   1.575  25.352  0.00  0.00    +0.019 A 
ATOM     32  C   UNL     1      -0.960   1.408  25.281  0.00  0.00    +0.031 A 
ENDBRANCH   6   5
BRANCH  18  19
ATOM     19  N   UNL     1      -2.537   0.189  24.920  0.00  0.00    -0.170 NA
ATOM     20  C   UNL     1      -2.442  -0.621  25.038  0.00  0.00    +0.275 C 
ATOM     21  O   UNL     1      -3.099  -1.095  25.196  0.00  0.00    -0.267 OA
BRANCH  20  22
ATOM     22  C   UNL     1      -1.689  -0.959  24.999  0.00  0.00    +0.085 A 
ATOM     23  C   UNL     1      -1.153  -1.021  25.621  0.00  0.00    +0.012 A 
ATOM     24  C   UNL     1      -0.474  -1.394  25.337  0.00  0.00    +0.008 A 
ATOM     25  C   UNL     1      -0.592  -1.563  24.539  0.00  0.00    +0.036 A 
ATOM     26  S   UNL     1      -1.343  -1.294  24.329  0.00  0.00    -0.082 S 
ENDBRANCH  20  22
ENDBRANCH  18  19
TORSDOF 3
ENDMDL
