MODEL 1
REMARK VINA RESULT:     -12.6      0.000      0.000
REMARK  Name = 
REMARK  8 active torsions:
REMARK  status: ('A' for Active; 'I' for Inactive)
REMARK    1  A    between atoms: C_2  and  C_5
REMARK    2  A    between atoms: C_5  and  C_6
REMARK    3  A    between atoms: C_15  and  C_17
REMARK    4  A    between atoms: C_25  and  C_26
REMARK    5  A    between atoms: C_26  and  C_27
REMARK    6  A    between atoms: N_29  and  C_30
REMARK    7  A    between atoms: C_30  and  C_31
REMARK    8  A    between atoms: C_31  and  N_32
REMARK                            x       y       z     vdW  Elec       q    Type
REMARK                         _______ _______ _______ _____ _____    ______ ____
ROOT
ATOM      6  C   UNL     1      -3.842  -1.297  24.027  0.00  0.00    +0.247 C 
ATOM      7  O   UNL     1      -4.574  -1.200  24.395  0.00  0.00    -0.273 OA
ATOM      8  N   UNL     1      -3.355  -0.644  23.901  0.00  0.00    -0.154 NA
ATOM      9  C   UNL     1      -3.598   0.106  24.142  0.00  0.00    +0.185 A 
ATOM     10  N   UNL     1      -3.172   0.807  24.054  0.00  0.00    -0.227 NA
ATOM     11  C   UNL     1      -3.622   1.421  24.372  0.00  0.00    +0.063 A 
ATOM     12  C   UNL     1      -4.326   1.100  24.657  0.00  0.00    +0.023 A 
ATOM     13  C   UNL     1      -4.889   1.589  25.008  0.00  0.00    +0.034 C 
ATOM     14  C   UNL     1      -4.748   2.400  25.075  0.00  0.00    +0.010 C 
ATOM     15  C   UNL     1      -5.313   2.888  25.427  0.00  0.00    +0.059 C 
ATOM     16  C   UNL     1      -5.695   2.161  25.490  0.00  0.00    +0.005 C 
ATOM     19  C   UNL     1      -5.172   3.699  25.493  0.00  0.00    +0.154 C 
ATOM     20  O   UNL     1      -5.736   4.188  25.845  0.00  0.00    -0.223 OA
ATOM     21  C   UNL     1      -4.467   4.020  25.208  0.00  0.00    +0.033 C 
ATOM     22  C   UNL     1      -3.904   3.531  24.857  0.00  0.00    +0.003 C 
ATOM     23  C   UNL     1      -4.044   2.720  24.790  0.00  0.00    +0.006 C 
ATOM     24  C   UNL     1      -3.341   3.041  24.505  0.00  0.00    +0.000 C 
ATOM     25  C   UNL     1      -3.481   2.232  24.438  0.00  0.00    +0.050 C 
ATOM     38  S   UNL     1      -4.311   0.287  24.515  0.00  0.00    -0.054 S 
ENDROOT
BRANCH  15  17
ATOM     17  C   UNL     1      -6.009   3.124  25.800  0.00  0.00    +0.184 C 
ATOM     18  O   UNL     1      -6.394   2.611  26.318  0.00  0.00    -0.220 OA
ENDBRANCH  15  17
BRANCH   6   5
ATOM      5  C   UNL     1      -3.599  -2.047  23.786  0.00  0.00    +0.087 C 
BRANCH   5   2
ATOM      1  C   UNL     1      -3.595  -3.300  24.859  0.00  0.00    +0.000 C 
ATOM      2  C   UNL     1      -3.597  -2.673  24.322  0.00  0.00    +0.009 C 
ATOM      3  C   UNL     1      -2.850  -2.444  24.588  0.00  0.00    +0.000 C 
ATOM      4  C   UNL     1      -4.344  -2.904  24.057  0.00  0.00    +0.000 C 
ENDBRANCH   5   2
ENDBRANCH   6   5
BRANCH  25  26
ATOM     26  C   UNL     1      -2.776   2.552  24.153  0.00  0.00    +0.093 C 
BRANCH  26  27
ATOM     27  C   UNL     1      -2.057   2.332  24.490  0.00  0.00    +0.242 C 
ATOM     28  O   UNL     1      -1.949   2.386  25.307  0.00  0.00    -0.273 OA
ATOM     29  N   UNL     1      -1.443   2.058  24.011  0.00  0.00    -0.204 NA
BRANCH  29  30
ATOM     30  C   UNL     1      -0.723   1.838  24.347  0.00  0.00    +0.132 C 
BRANCH  30  31
ATOM     31  C   UNL     1      -0.072   1.683  23.865  0.00  0.00    +0.096 C 
BRANCH  31  32
ATOM     32  N   UNL     1       0.190   0.908  23.760  0.00  0.00    -0.267 NA
ATOM     33  C   UNL     1       0.019   0.334  24.328  0.00  0.00    +0.105 C 
ATOM     34  C   UNL     1       0.280  -0.440  24.224  0.00  0.00    +0.159 C 
ATOM     35  O   UNL     1       0.714  -0.642  23.550  0.00  0.00    -0.351 OA
ATOM     36  C   UNL     1       0.884  -0.069  22.983  0.00  0.00    +0.159 C 
ATOM     37  C   UNL     1       0.623   0.706  23.087  0.00  0.00    +0.105 C 
ENDBRANCH  31  32
ENDBRANCH  30  31
ENDBRANCH  29  30
ENDBRANCH  26  27
ENDBRANCH  25  26
TORSDOF 8
ENDMDL
MODEL 2
REMARK VINA RESULT:     -12.6      0.893      1.103
REMARK  Name = 
REMARK  8 active torsions:
REMARK  status: ('A' for Active; 'I' for Inactive)
REMARK    1  A    between atoms: C_2  and  C_5
REMARK    2  A    between atoms: C_5  and  C_6
REMARK    3  A    between atoms: C_15  and  C_17
REMARK    4  A    between atoms: C_25  and  C_26
REMARK    5  A    between atoms: C_26  and  C_27
REMARK    6  A    between atoms: N_29  and  C_30
REMARK    7  A    between atoms: C_30  and  C_31
REMARK    8  A    between atoms: C_31  and  N_32
REMARK                            x       y       z     vdW  Elec       q    Type
REMARK                         _______ _______ _______ _____ _____    ______ ____
ROOT
ATOM      6  C   UNL     1      -3.219  -1.321  24.429  0.00  0.00    +0.247 C 
ATOM      7  O   UNL     1      -4.010  -1.087  24.446  0.00  0.00    -0.273 OA
ATOM      8  N   UNL     1      -2.622  -0.765  24.549  0.00  0.00    -0.154 NA
ATOM      9  C   UNL     1      -2.815   0.026  24.685  0.00  0.00    +0.185 A 
ATOM     10  N   UNL     1      -2.281   0.640  24.814  0.00  0.00    -0.227 NA
ATOM     11  C   UNL     1      -2.712   1.334  24.925  0.00  0.00    +0.063 A 
ATOM     12  C   UNL     1      -3.513   1.149  24.865  0.00  0.00    +0.023 A 
ATOM     13  C   UNL     1      -4.081   1.740  24.954  0.00  0.00    +0.034 C 
ATOM     14  C   UNL     1      -3.847   2.518  25.102  0.00  0.00    +0.010 C 
ATOM     15  C   UNL     1      -4.416   3.109  25.190  0.00  0.00    +0.059 C 
ATOM     16  C   UNL     1      -4.906   2.459  25.057  0.00  0.00    +0.005 C 
ATOM     19  C   UNL     1      -4.183   3.887  25.338  0.00  0.00    +0.154 C 
ATOM     20  O   UNL     1      -4.752   4.479  25.426  0.00  0.00    -0.223 OA
ATOM     21  C   UNL     1      -3.381   4.073  25.397  0.00  0.00    +0.033 C 
ATOM     22  C   UNL     1      -2.813   3.481  25.309  0.00  0.00    +0.003 C 
ATOM     23  C   UNL     1      -3.046   2.704  25.161  0.00  0.00    +0.006 C 
ATOM     24  C   UNL     1      -2.245   2.889  25.220  0.00  0.00    +0.000 C 
ATOM     25  C   UNL     1      -2.478   2.113  25.073  0.00  0.00    +0.050 C 
ATOM     38  S   UNL     1      -3.576   0.340  24.717  0.00  0.00    -0.054 S 
ENDROOT
BRANCH  15  17
ATOM     17  C   UNL     1      -5.154   3.475  25.232  0.00  0.00    +0.184 C 
ATOM     18  O   UNL     1      -5.831   3.023  25.368  0.00  0.00    -0.220 OA
ENDBRANCH  15  17
BRANCH   6   5
ATOM      5  C   UNL     1      -3.026  -2.111  24.293  0.00  0.00    +0.087 C 
BRANCH   5   2
ATOM      1  C   UNL     1      -4.187  -3.278  24.415  0.00  0.00    +0.000 C 
ATOM      2  C   UNL     1      -3.606  -2.694  24.354  0.00  0.00    +0.009 C 
ATOM      3  C   UNL     1      -3.336  -2.885  25.110  0.00  0.00    +0.000 C 
ATOM      4  C   UNL     1      -3.877  -2.504  23.598  0.00  0.00    +0.000 C 
ENDBRANCH   5   2
ENDBRANCH   6   5
BRANCH  25  26
ATOM     26  C   UNL     1      -1.677   2.298  25.132  0.00  0.00    +0.093 C 
BRANCH  26  27
ATOM     27  C   UNL     1      -1.172   2.156  24.496  0.00  0.00    +0.242 C 
ATOM     28  O   UNL     1      -1.392   2.386  23.734  0.00  0.00    -0.273 OA
ATOM     29  N   UNL     1      -0.446   1.783  24.620  0.00  0.00    -0.204 NA
BRANCH  29  30
ATOM     30  C   UNL     1       0.059   1.640  23.984  0.00  0.00    +0.132 C 
BRANCH  30  31
ATOM     31  C   UNL     1       0.822   1.356  24.118  0.00  0.00    +0.096 C 
BRANCH  31  32
ATOM     32  N   UNL     1       1.183   0.866  23.562  0.00  0.00    -0.267 NA
ATOM     33  C   UNL     1       0.775   0.218  23.254  0.00  0.00    +0.105 C 
ATOM     34  C   UNL     1       1.136  -0.271  22.698  0.00  0.00    +0.159 C 
ATOM     35  O   UNL     1       1.908  -0.114  22.449  0.00  0.00    -0.351 OA
ATOM     36  C   UNL     1       2.316   0.533  22.756  0.00  0.00    +0.159 C 
ATOM     37  C   UNL     1       1.955   1.023  23.313  0.00  0.00    +0.105 C 
ENDBRANCH  31  32
ENDBRANCH  30  31
ENDBRANCH  29  30
ENDBRANCH  26  27
ENDBRANCH  25  26
TORSDOF 8
ENDMDL
MODEL 3
REMARK VINA RESULT:     -12.5      1.419      4.510
REMARK  Name = 
REMARK  8 active torsions:
REMARK  status: ('A' for Active; 'I' for Inactive)
REMARK    1  A    between atoms: C_2  and  C_5
REMARK    2  A    between atoms: C_5  and  C_6
REMARK    3  A    between atoms: C_15  and  C_17
REMARK    4  A    between atoms: C_25  and  C_26
REMARK    5  A    between atoms: C_26  and  C_27
REMARK    6  A    between atoms: N_29  and  C_30
REMARK    7  A    between atoms: C_30  and  C_31
REMARK    8  A    between atoms: C_31  and  N_32
REMARK                            x       y       z     vdW  Elec       q    Type
REMARK                         _______ _______ _______ _____ _____    ______ ____
ROOT
ATOM      6  C   UNL     1      -4.672   2.298  24.673  0.00  0.00    +0.247 C 
ATOM      7  O   UNL     1      -5.205   1.745  24.371  0.00  0.00    -0.273 OA
ATOM      8  N   UNL     1      -3.922   2.056  24.918  0.00  0.00    -0.154 NA
ATOM      9  C   UNL     1      -3.705   1.262  24.862  0.00  0.00    +0.185 A 
ATOM     10  N   UNL     1      -2.979   0.941  25.083  0.00  0.00    -0.227 NA
ATOM     11  C   UNL     1      -3.002   0.131  24.932  0.00  0.00    +0.063 A 
ATOM     12  C   UNL     1      -3.742  -0.049  24.616  0.00  0.00    +0.023 A 
ATOM     13  C   UNL     1      -3.924  -0.826  24.409  0.00  0.00    +0.034 C 
ATOM     14  C   UNL     1      -3.365  -1.424  24.518  0.00  0.00    +0.010 C 
ATOM     15  C   UNL     1      -3.549  -2.202  24.311  0.00  0.00    +0.059 C 
ATOM     16  C   UNL     1      -4.255  -1.829  24.105  0.00  0.00    +0.005 C 
ATOM     19  C   UNL     1      -2.990  -2.799  24.419  0.00  0.00    +0.154 C 
ATOM     20  O   UNL     1      -3.173  -3.578  24.212  0.00  0.00    -0.223 OA
ATOM     21  C   UNL     1      -2.249  -2.620  24.736  0.00  0.00    +0.033 C 
ATOM     22  C   UNL     1      -2.067  -1.842  24.942  0.00  0.00    +0.003 C 
ATOM     23  C   UNL     1      -2.625  -1.244  24.834  0.00  0.00    +0.006 C 
ATOM     24  C   UNL     1      -1.885  -1.065  25.149  0.00  0.00    +0.000 C 
ATOM     25  C   UNL     1      -2.443  -0.468  25.041  0.00  0.00    +0.050 C 
ATOM     38  S   UNL     1      -4.176   0.651  24.573  0.00  0.00    -0.054 S 
ENDROOT
BRANCH  15  17
ATOM     17  C   UNL     1      -3.976  -2.849  24.033  0.00  0.00    +0.184 C 
ATOM     18  O   UNL     1      -4.661  -2.732  23.588  0.00  0.00    -0.220 OA
ENDBRANCH  15  17
BRANCH   6   5
ATOM      5  C   UNL     1      -4.889   3.092  24.730  0.00  0.00    +0.087 C 
BRANCH   5   2
ATOM      1  C   UNL     1      -5.564   3.667  26.121  0.00  0.00    +0.000 C 
ATOM      2  C   UNL     1      -5.227   3.379  25.425  0.00  0.00    +0.009 C 
ATOM      3  C   UNL     1      -5.892   2.909  25.297  0.00  0.00    +0.000 C 
ATOM      4  C   UNL     1      -4.561   3.849  25.554  0.00  0.00    +0.000 C 
ENDBRANCH   5   2
ENDBRANCH   6   5
BRANCH  25  26
ATOM     26  C   UNL     1      -1.702  -0.287  25.357  0.00  0.00    +0.093 C 
BRANCH  26  27
ATOM     27  C   UNL     1      -1.200   0.234  24.961  0.00  0.00    +0.242 C 
ATOM     28  O   UNL     1      -1.039   0.123  24.159  0.00  0.00    -0.273 OA
ATOM     29  N   UNL     1      -0.859   0.867  25.366  0.00  0.00    -0.204 NA
BRANCH  29  30
ATOM     30  C   UNL     1      -0.357   1.388  24.971  0.00  0.00    +0.132 C 
BRANCH  30  31
ATOM     31  C   UNL     1      -0.052   2.046  25.364  0.00  0.00    +0.096 C 
BRANCH  31  32
ATOM     32  N   UNL     1      -0.260   2.805  25.122  0.00  0.00    -0.267 NA
ATOM     33  C   UNL     1      -0.639   3.317  25.646  0.00  0.00    +0.105 C 
ATOM     34  C   UNL     1      -0.848   4.077  25.404  0.00  0.00    +0.159 C 
ATOM     35  O   UNL     1      -0.677   4.326  24.635  0.00  0.00    -0.351 OA
ATOM     36  C   UNL     1      -0.299   3.815  24.110  0.00  0.00    +0.159 C 
ATOM     37  C   UNL     1      -0.090   3.055  24.353  0.00  0.00    +0.105 C 
ENDBRANCH  31  32
ENDBRANCH  30  31
ENDBRANCH  29  30
ENDBRANCH  26  27
ENDBRANCH  25  26
TORSDOF 8
ENDMDL
MODEL 4
REMARK VINA RESULT:     -12.4      1.651      2.511
REMARK  Name = 
REMARK  8 active torsions:
REMARK  status: ('A' for Active; 'I' for Inactive)
REMARK    1  A    between atoms: C_2  and  C_5
REMARK    2  A    between atoms: C_5  and  C_6
REMARK    3  A    between atoms: C_15  and  C_17
REMARK    4  A    between atoms: C_25  and  C_26
REMARK    5  A    between atoms: C_26  and  C_27
REMARK    6  A    between atoms: N_29  and  C_30
REMARK    7  A    between atoms: C_30  and  C_31
REMARK    8  A    between atoms: C_31  and  N_32
REMARK                            x       y       z     vdW  Elec       q    Type
REMARK                         _______ _______ _______ _____ _____    ______ ____
ROOT
ATOM      6  C   UNL     1      -2.769  -0.998  24.589  0.00  0.00    +0.247 C 
ATOM      7  O   UNL     1      -3.442  -0.534  24.699  0.00  0.00    -0.273 OA
ATOM      8  N   UNL     1      -2.021  -0.652  24.618  0.00  0.00    -0.154 NA
ATOM      9  C   UNL     1      -1.945   0.158  24.757  0.00  0.00    +0.185 A 
ATOM     10  N   UNL     1      -1.238   0.578  24.801  0.00  0.00    -0.227 NA
ATOM     11  C   UNL     1      -1.420   1.369  24.948  0.00  0.00    +0.063 A 
ATOM     12  C   UNL     1      -2.240   1.438  24.994  0.00  0.00    +0.023 A 
ATOM     13  C   UNL     1      -2.585   2.172  25.138  0.00  0.00    +0.034 C 
ATOM     14  C   UNL     1      -2.109   2.840  25.235  0.00  0.00    +0.010 C 
ATOM     15  C   UNL     1      -2.454   3.576  25.379  0.00  0.00    +0.059 C 
ATOM     16  C   UNL     1      -3.131   3.108  25.325  0.00  0.00    +0.005 C 
ATOM     19  C   UNL     1      -1.979   4.243  25.476  0.00  0.00    +0.154 C 
ATOM     20  O   UNL     1      -2.324   4.979  25.620  0.00  0.00    -0.223 OA
ATOM     21  C   UNL     1      -1.157   4.174  25.429  0.00  0.00    +0.033 C 
ATOM     22  C   UNL     1      -0.813   3.439  25.286  0.00  0.00    +0.003 C 
ATOM     23  C   UNL     1      -1.288   2.772  25.189  0.00  0.00    +0.006 C 
ATOM     24  C   UNL     1      -0.468   2.703  25.142  0.00  0.00    +0.000 C 
ATOM     25  C   UNL     1      -0.943   2.037  25.045  0.00  0.00    +0.050 C 
ATOM     38  S   UNL     1      -2.565   0.688  24.877  0.00  0.00    -0.054 S 
ENDROOT
BRANCH  15  17
ATOM     17  C   UNL     1      -3.035   4.148  25.504  0.00  0.00    +0.184 C 
ATOM     18  O   UNL     1      -3.825   3.925  25.580  0.00  0.00    -0.220 OA
ENDBRANCH  15  17
BRANCH   6   5
ATOM      5  C   UNL     1      -2.845  -1.808  24.450  0.00  0.00    +0.087 C 
BRANCH   5   2
ATOM      1  C   UNL     1      -4.340  -2.473  24.240  0.00  0.00    +0.000 C 
ATOM      2  C   UNL     1      -3.592  -2.140  24.345  0.00  0.00    +0.009 C 
ATOM      3  C   UNL     1      -3.547  -2.479  25.096  0.00  0.00    +0.000 C 
ATOM      4  C   UNL     1      -3.638  -1.801  23.594  0.00  0.00    +0.000 C 
ENDBRANCH   5   2
ENDBRANCH   6   5
BRANCH  25  26
ATOM     26  C   UNL     1      -0.122   1.968  24.998  0.00  0.00    +0.093 C 
BRANCH  26  27
ATOM     27  C   UNL     1       0.235   1.772  24.282  0.00  0.00    +0.242 C 
ATOM     28  O   UNL     1      -0.083   2.050  23.572  0.00  0.00    -0.273 OA
ATOM     29  N   UNL     1       0.912   1.299  24.273  0.00  0.00    -0.204 NA
BRANCH  29  30
ATOM     30  C   UNL     1       1.269   1.104  23.557  0.00  0.00    +0.132 C 
BRANCH  30  31
ATOM     31  C   UNL     1       1.788   0.463  23.515  0.00  0.00    +0.096 C 
BRANCH  31  32
ATOM     32  N   UNL     1       2.387   0.453  22.949  0.00  0.00    -0.267 NA
ATOM     33  C   UNL     1       2.276   0.050  22.237  0.00  0.00    +0.105 C 
ATOM     34  C   UNL     1       2.875   0.040  21.671  0.00  0.00    +0.159 C 
ATOM     35  O   UNL     1       3.587   0.433  21.816  0.00  0.00    -0.351 OA
ATOM     36  C   UNL     1       3.698   0.836  22.526  0.00  0.00    +0.159 C 
ATOM     37  C   UNL     1       3.099   0.846  23.093  0.00  0.00    +0.105 C 
ENDBRANCH  31  32
ENDBRANCH  30  31
ENDBRANCH  29  30
ENDBRANCH  26  27
ENDBRANCH  25  26
TORSDOF 8
ENDMDL
MODEL 5
REMARK VINA RESULT:     -12.2      1.589      4.589
REMARK  Name = 
REMARK  8 active torsions:
REMARK  status: ('A' for Active; 'I' for Inactive)
REMARK    1  A    between atoms: C_2  and  C_5
REMARK    2  A    between atoms: C_5  and  C_6
REMARK    3  A    between atoms: C_15  and  C_17
REMARK    4  A    between atoms: C_25  and  C_26
REMARK    5  A    between atoms: C_26  and  C_27
REMARK    6  A    between atoms: N_29  and  C_30
REMARK    7  A    between atoms: C_30  and  C_31
REMARK    8  A    between atoms: C_31  and  N_32
REMARK                            x       y       z     vdW  Elec       q    Type
REMARK                         _______ _______ _______ _____ _____    ______ ____
ROOT
ATOM      6  C   UNL     1      -2.638   2.712  24.809  0.00  0.00    +0.247 C 
ATOM      7  O   UNL     1      -3.399   2.396  24.763  0.00  0.00    -0.273 OA
ATOM      8  N   UNL     1      -1.983   2.212  24.796  0.00  0.00    -0.154 NA
ATOM      9  C   UNL     1      -2.087   1.395  24.737  0.00  0.00    +0.185 A 
ATOM     10  N   UNL     1      -1.488   0.830  24.718  0.00  0.00    -0.227 NA
ATOM     11  C   UNL     1      -1.840   0.086  24.656  0.00  0.00    +0.063 A 
ATOM     12  C   UNL     1      -2.658   0.193  24.637  0.00  0.00    +0.023 A 
ATOM     13  C   UNL     1      -3.157  -0.460  24.577  0.00  0.00    +0.034 C 
ATOM     14  C   UNL     1      -2.839  -1.221  24.536  0.00  0.00    +0.010 C 
ATOM     15  C   UNL     1      -3.339  -1.875  24.476  0.00  0.00    +0.059 C 
ATOM     16  C   UNL     1      -3.898  -1.269  24.499  0.00  0.00    +0.005 C 
ATOM     19  C   UNL     1      -3.021  -2.635  24.434  0.00  0.00    +0.154 C 
ATOM     20  O   UNL     1      -3.521  -3.289  24.374  0.00  0.00    -0.223 OA
ATOM     21  C   UNL     1      -2.203  -2.742  24.453  0.00  0.00    +0.033 C 
ATOM     22  C   UNL     1      -1.704  -2.088  24.513  0.00  0.00    +0.003 C 
ATOM     23  C   UNL     1      -2.022  -1.328  24.554  0.00  0.00    +0.006 C 
ATOM     24  C   UNL     1      -1.204  -1.434  24.573  0.00  0.00    +0.000 C 
ATOM     25  C   UNL     1      -1.522  -0.675  24.615  0.00  0.00    +0.050 C 
ATOM     38  S   UNL     1      -2.810   1.002  24.687  0.00  0.00    -0.054 S 
ENDROOT
BRANCH  15  17
ATOM     17  C   UNL     1      -4.033  -2.317  24.424  0.00  0.00    +0.184 C 
ATOM     18  O   UNL     1      -4.676  -2.029  23.995  0.00  0.00    -0.220 OA
ENDBRANCH  15  17
BRANCH   6   5
ATOM      5  C   UNL     1      -2.534   3.528  24.868  0.00  0.00    +0.087 C 
BRANCH   5   2
ATOM      1  C   UNL     1      -3.103   4.342  26.185  0.00  0.00    +0.000 C 
ATOM      2  C   UNL     1      -2.818   3.935  25.526  0.00  0.00    +0.009 C 
ATOM      3  C   UNL     1      -3.584   3.893  25.222  0.00  0.00    +0.000 C 
ATOM      4  C   UNL     1      -2.053   3.977  25.831  0.00  0.00    +0.000 C 
ENDBRANCH   5   2
ENDBRANCH   6   5
BRANCH  25  26
ATOM     26  C   UNL     1      -0.704  -0.780  24.633  0.00  0.00    +0.093 C 
BRANCH  26  27
ATOM     27  C   UNL     1      -0.249  -0.600  23.970  0.00  0.00    +0.242 C 
ATOM     28  O   UNL     1      -0.530  -0.781  23.215  0.00  0.00    -0.273 OA
ATOM     29  N   UNL     1       0.488  -0.239  24.059  0.00  0.00    -0.204 NA
BRANCH  29  30
ATOM     30  C   UNL     1       0.943  -0.059  23.396  0.00  0.00    +0.132 C 
BRANCH  30  31
ATOM     31  C   UNL     1       1.512   0.537  23.435  0.00  0.00    +0.096 C 
BRANCH  31  32
ATOM     32  N   UNL     1       2.191   0.490  22.969  0.00  0.00    -0.267 NA
ATOM     33  C   UNL     1       2.873   0.899  23.190  0.00  0.00    +0.105 C 
ATOM     34  C   UNL     1       3.551   0.853  22.725  0.00  0.00    +0.159 C 
ATOM     35  O   UNL     1       3.549   0.397  22.036  0.00  0.00    -0.351 OA
ATOM     36  C   UNL     1       2.868  -0.012  21.815  0.00  0.00    +0.159 C 
ATOM     37  C   UNL     1       2.189   0.034  22.281  0.00  0.00    +0.105 C 
ENDBRANCH  31  32
ENDBRANCH  30  31
ENDBRANCH  29  30
ENDBRANCH  26  27
ENDBRANCH  25  26
TORSDOF 8
ENDMDL
MODEL 6
REMARK VINA RESULT:     -12.2      1.969      4.453
REMARK  Name = 
REMARK  8 active torsions:
REMARK  status: ('A' for Active; 'I' for Inactive)
REMARK    1  A    between atoms: C_2  and  C_5
REMARK    2  A    between atoms: C_5  and  C_6
REMARK    3  A    between atoms: C_15  and  C_17
REMARK    4  A    between atoms: C_25  and  C_26
REMARK    5  A    between atoms: C_26  and  C_27
REMARK    6  A    between atoms: N_29  and  C_30
REMARK    7  A    between atoms: C_30  and  C_31
REMARK    8  A    between atoms: C_31  and  N_32
REMARK                            x       y       z     vdW  Elec       q    Type
REMARK                         _______ _______ _______ _____ _____    ______ ____
ROOT
ATOM      6  C   UNL     1       0.965   0.537  23.495  0.00  0.00    +0.247 C 
ATOM      7  O   UNL     1       1.267   1.293  23.360  0.00  0.00    -0.273 OA
ATOM      8  N   UNL     1       0.256   0.444  23.906  0.00  0.00    -0.154 NA
ATOM      9  C   UNL     1      -0.152   1.106  24.182  0.00  0.00    +0.185 A 
ATOM     10  N   UNL     1      -0.862   1.099  24.599  0.00  0.00    -0.227 NA
ATOM     11  C   UNL     1      -1.069   1.880  24.764  0.00  0.00    +0.063 A 
ATOM     12  C   UNL     1      -0.486   2.370  24.449  0.00  0.00    +0.023 A 
ATOM     13  C   UNL     1      -0.546   3.189  24.530  0.00  0.00    +0.034 C 
ATOM     14  C   UNL     1      -1.192   3.517  24.927  0.00  0.00    +0.010 C 
ATOM     15  C   UNL     1      -1.252   4.336  25.008  0.00  0.00    +0.059 C 
ATOM     16  C   UNL     1      -0.543   4.286  24.589  0.00  0.00    +0.005 C 
ATOM     19  C   UNL     1      -1.896   4.665  25.405  0.00  0.00    +0.154 C 
ATOM     20  O   UNL     1      -1.957   5.484  25.486  0.00  0.00    -0.223 OA
ATOM     21  C   UNL     1      -2.481   4.174  25.721  0.00  0.00    +0.033 C 
ATOM     22  C   UNL     1      -2.419   3.356  25.639  0.00  0.00    +0.003 C 
ATOM     23  C   UNL     1      -1.775   3.027  25.242  0.00  0.00    +0.006 C 
ATOM     24  C   UNL     1      -2.358   2.537  25.557  0.00  0.00    +0.000 C 
ATOM     25  C   UNL     1      -1.714   2.209  25.161  0.00  0.00    +0.050 C 
ATOM     38  S   UNL     1       0.081   1.891  24.089  0.00  0.00    -0.054 S 
ENDROOT
BRANCH  15  17
ATOM     17  C   UNL     1      -1.066   5.137  24.944  0.00  0.00    +0.184 C 
ATOM     18  O   UNL     1      -0.369   5.371  24.569  0.00  0.00    -0.220 OA
ENDBRANCH  15  17
BRANCH   6   5
ATOM      5  C   UNL     1       1.372  -0.125  23.218  0.00  0.00    +0.087 C 
BRANCH   5   2
ATOM      1  C   UNL     1       2.424   0.019  21.955  0.00  0.00    +0.000 C 
ATOM      2  C   UNL     1       1.898  -0.053  22.588  0.00  0.00    +0.009 C 
ATOM      3  C   UNL     1       2.488   0.196  23.107  0.00  0.00    +0.000 C 
ATOM      4  C   UNL     1       1.308  -0.302  22.067  0.00  0.00    +0.000 C 
ENDBRANCH   5   2
ENDBRANCH   6   5
BRANCH  25  26
ATOM     26  C   UNL     1      -2.298   1.718  25.476  0.00  0.00    +0.093 C 
BRANCH  26  27
ATOM     27  C   UNL     1      -2.740   1.231  24.980  0.00  0.00    +0.242 C 
ATOM     28  O   UNL     1      -2.949   1.492  24.225  0.00  0.00    -0.273 OA
ATOM     29  N   UNL     1      -2.975   0.483  25.237  0.00  0.00    -0.204 NA
BRANCH  29  30
ATOM     30  C   UNL     1      -3.417  -0.004  24.740  0.00  0.00    +0.132 C 
BRANCH  30  31
ATOM     31  C   UNL     1      -3.886  -0.603  25.059  0.00  0.00    +0.096 C 
BRANCH  31  32
ATOM     32  N   UNL     1      -3.877  -1.357  24.726  0.00  0.00    -0.267 NA
ATOM     33  C   UNL     1      -3.476  -1.971  25.104  0.00  0.00    +0.105 C 
ATOM     34  C   UNL     1      -3.467  -2.725  24.771  0.00  0.00    +0.159 C 
ATOM     35  O   UNL     1      -3.859  -2.866  24.058  0.00  0.00    -0.351 OA
ATOM     36  C   UNL     1      -4.260  -2.253  23.680  0.00  0.00    +0.159 C 
ATOM     37  C   UNL     1      -4.270  -1.498  24.013  0.00  0.00    +0.105 C 
ENDBRANCH  31  32
ENDBRANCH  30  31
ENDBRANCH  29  30
ENDBRANCH  26  27
ENDBRANCH  25  26
TORSDOF 8
ENDMDL
MODEL 7
REMARK VINA RESULT:     -11.9      1.551      5.333
REMARK  Name = 
REMARK  8 active torsions:
REMARK  status: ('A' for Active; 'I' for Inactive)
REMARK    1  A    between atoms: C_2  and  C_5
REMARK    2  A    between atoms: C_5  and  C_6
REMARK    3  A    between atoms: C_15  and  C_17
REMARK    4  A    between atoms: C_25  and  C_26
REMARK    5  A    between atoms: C_26  and  C_27
REMARK    6  A    between atoms: N_29  and  C_30
REMARK    7  A    between atoms: C_30  and  C_31
REMARK    8  A    between atoms: C_31  and  N_32
REMARK                            x       y       z     vdW  Elec       q    Type
REMARK                         _______ _______ _______ _____ _____    ______ ____
ROOT
ATOM      6  C   UNL     1      -0.842   1.739  24.990  0.00  0.00    +0.247 C 
ATOM      7  O   UNL     1      -0.416   1.037  25.072  0.00  0.00    -0.273 OA
ATOM      8  N   UNL     1      -1.645   1.714  24.805  0.00  0.00    -0.154 NA
ATOM      9  C   UNL     1      -2.023   0.988  24.702  0.00  0.00    +0.185 A 
ATOM     10  N   UNL     1      -2.819   0.877  24.516  0.00  0.00    -0.227 NA
ATOM     11  C   UNL     1      -2.959   0.066  24.465  0.00  0.00    +0.063 A 
ATOM     12  C   UNL     1      -2.249  -0.325  24.619  0.00  0.00    +0.023 A 
ATOM     13  C   UNL     1      -2.221  -1.149  24.607  0.00  0.00    +0.034 C 
ATOM     14  C   UNL     1      -2.904  -1.583  24.440  0.00  0.00    +0.010 C 
ATOM     15  C   UNL     1      -2.875  -2.407  24.427  0.00  0.00    +0.059 C 
ATOM     16  C   UNL     1      -2.089  -2.240  24.612  0.00  0.00    +0.005 C 
ATOM     19  C   UNL     1      -3.557  -2.841  24.260  0.00  0.00    +0.154 C 
ATOM     20  O   UNL     1      -3.529  -3.666  24.247  0.00  0.00    -0.223 OA
ATOM     21  C   UNL     1      -4.268  -2.450  24.106  0.00  0.00    +0.033 C 
ATOM     22  C   UNL     1      -4.295  -1.625  24.119  0.00  0.00    +0.003 C 
ATOM     23  C   UNL     1      -3.613  -1.192  24.286  0.00  0.00    +0.006 C 
ATOM     24  C   UNL     1      -4.322  -0.801  24.132  0.00  0.00    +0.000 C 
ATOM     25  C   UNL     1      -3.641  -0.368  24.298  0.00  0.00    +0.050 C 
ATOM     38  S   UNL     1      -1.671   0.245  24.765  0.00  0.00    -0.054 S 
ENDROOT
BRANCH  15  17
ATOM     17  C   UNL     1      -2.574  -3.173  24.478  0.00  0.00    +0.184 C 
ATOM     18  O   UNL     1      -1.763  -3.293  24.570  0.00  0.00    -0.220 OA
ENDBRANCH  15  17
BRANCH   6   5
ATOM      5  C   UNL     1      -0.464   2.465  25.094  0.00  0.00    +0.087 C 
BRANCH   5   2
ATOM      1  C   UNL     1       0.252   2.825  26.536  0.00  0.00    +0.000 C 
ATOM      2  C   UNL     1      -0.106   2.644  25.815  0.00  0.00    +0.009 C 
ATOM      3  C   UNL     1       0.567   2.226  25.586  0.00  0.00    +0.000 C 
ATOM      4  C   UNL     1      -0.778   3.064  26.045  0.00  0.00    +0.000 C 
ENDBRANCH   5   2
ENDBRANCH   6   5
BRANCH  25  26
ATOM     26  C   UNL     1      -4.351   0.024  24.144  0.00  0.00    +0.093 C 
BRANCH  26  27
ATOM     27  C   UNL     1      -4.692   0.503  24.722  0.00  0.00    +0.242 C 
ATOM     28  O   UNL     1      -4.758   0.229  25.499  0.00  0.00    -0.273 OA
ATOM     29  N   UNL     1      -4.968   1.255  24.525  0.00  0.00    -0.204 NA
BRANCH  29  30
ATOM     30  C   UNL     1      -5.309   1.734  25.103  0.00  0.00    +0.132 C 
BRANCH  30  31
ATOM     31  C   UNL     1      -5.512   2.514  24.926  0.00  0.00    +0.096 C 
BRANCH  31  32
ATOM     32  N   UNL     1      -5.037   3.134  25.191  0.00  0.00    -0.267 NA
ATOM     33  C   UNL     1      -4.945   3.269  26.000  0.00  0.00    +0.105 C 
ATOM     34  C   UNL     1      -4.471   3.889  26.264  0.00  0.00    +0.159 C 
ATOM     35  O   UNL     1      -4.087   4.376  25.719  0.00  0.00    -0.351 OA
ATOM     36  C   UNL     1      -4.178   4.242  24.911  0.00  0.00    +0.159 C 
ATOM     37  C   UNL     1      -4.653   3.622  24.646  0.00  0.00    +0.105 C 
ENDBRANCH  31  32
ENDBRANCH  30  31
ENDBRANCH  29  30
ENDBRANCH  26  27
ENDBRANCH  25  26
TORSDOF 8
ENDMDL
MODEL 8
REMARK VINA RESULT:     -11.7      1.262      4.851
REMARK  Name = 
REMARK  8 active torsions:
REMARK  status: ('A' for Active; 'I' for Inactive)
REMARK    1  A    between atoms: C_2  and  C_5
REMARK    2  A    between atoms: C_5  and  C_6
REMARK    3  A    between atoms: C_15  and  C_17
REMARK    4  A    between atoms: C_25  and  C_26
REMARK    5  A    between atoms: C_26  and  C_27
REMARK    6  A    between atoms: N_29  and  C_30
REMARK    7  A    between atoms: C_30  and  C_31
REMARK    8  A    between atoms: C_31  and  N_32
REMARK                            x       y       z     vdW  Elec       q    Type
REMARK                         _______ _______ _______ _____ _____    ______ ____
ROOT
ATOM      6  C   UNL     1      -2.912  -1.615  24.714  0.00  0.00    +0.247 C 
ATOM      7  O   UNL     1      -2.317  -1.974  24.270  0.00  0.00    -0.273 OA
ATOM      8  N   UNL     1      -2.825  -0.835  24.966  0.00  0.00    -0.154 NA
ATOM      9  C   UNL     1      -2.142  -0.413  24.775  0.00  0.00    +0.185 A 
ATOM     10  N   UNL     1      -1.978   0.366  24.988  0.00  0.00    -0.227 NA
ATOM     11  C   UNL     1      -1.238   0.564  24.682  0.00  0.00    +0.063 A 
ATOM     12  C   UNL     1      -0.944  -0.094  24.280  0.00  0.00    +0.023 A 
ATOM     13  C   UNL     1      -0.207  -0.058  23.914  0.00  0.00    +0.034 C 
ATOM     14  C   UNL     1       0.239   0.637  23.950  0.00  0.00    +0.010 C 
ATOM     15  C   UNL     1       0.977   0.673  23.583  0.00  0.00    +0.059 C 
ATOM     16  C   UNL     1       0.763  -0.102  23.398  0.00  0.00    +0.005 C 
ATOM     19  C   UNL     1       1.422   1.366  23.619  0.00  0.00    +0.154 C 
ATOM     20  O   UNL     1       2.160   1.403  23.252  0.00  0.00    -0.223 OA
ATOM     21  C   UNL     1       1.128   2.025  24.021  0.00  0.00    +0.033 C 
ATOM     22  C   UNL     1       0.390   1.988  24.388  0.00  0.00    +0.003 C 
ATOM     23  C   UNL     1      -0.055   1.294  24.352  0.00  0.00    +0.006 C 
ATOM     24  C   UNL     1      -0.348   1.951  24.754  0.00  0.00    +0.000 C 
ATOM     25  C   UNL     1      -0.792   1.258  24.718  0.00  0.00    +0.050 C 
ATOM     38  S   UNL     1      -1.504  -0.697  24.338  0.00  0.00    -0.054 S 
ENDROOT
BRANCH  15  17
ATOM     17  C   UNL     1       1.640   0.440  23.152  0.00  0.00    +0.184 C 
ATOM     18  O   UNL     1       1.574  -0.150  22.578  0.00  0.00    -0.220 OA
ENDBRANCH  15  17
BRANCH   6   5
ATOM      5  C   UNL     1      -3.595  -2.037  24.904  0.00  0.00    +0.087 C 
BRANCH   5   2
ATOM      1  C   UNL     1      -4.252  -3.085  23.812  0.00  0.00    +0.000 C 
ATOM      2  C   UNL     1      -3.923  -2.561  24.358  0.00  0.00    +0.009 C 
ATOM      3  C   UNL     1      -4.342  -1.939  24.013  0.00  0.00    +0.000 C 
ATOM      4  C   UNL     1      -3.505  -3.183  24.703  0.00  0.00    +0.000 C 
ENDBRANCH   5   2
ENDBRANCH   6   5
BRANCH  25  26
ATOM     26  C   UNL     1      -1.086   1.916  25.121  0.00  0.00    +0.093 C 
BRANCH  26  27
ATOM     27  C   UNL     1      -1.771   2.290  24.855  0.00  0.00    +0.242 C 
ATOM     28  O   UNL     1      -1.901   2.388  24.046  0.00  0.00    -0.273 OA
ATOM     29  N   UNL     1      -2.328   2.568  25.398  0.00  0.00    -0.204 NA
BRANCH  29  30
ATOM     30  C   UNL     1      -3.012   2.942  25.133  0.00  0.00    +0.132 C 
BRANCH  30  31
ATOM     31  C   UNL     1      -3.489   3.357  25.664  0.00  0.00    +0.096 C 
BRANCH  31  32
ATOM     32  N   UNL     1      -4.310   3.323  25.595  0.00  0.00    -0.267 NA
ATOM     33  C   UNL     1      -4.700   2.598  25.656  0.00  0.00    +0.105 C 
ATOM     34  C   UNL     1      -5.521   2.564  25.587  0.00  0.00    +0.159 C 
ATOM     35  O   UNL     1      -5.953   3.256  25.458  0.00  0.00    -0.351 OA
ATOM     36  C   UNL     1      -5.564   3.980  25.398  0.00  0.00    +0.159 C 
ATOM     37  C   UNL     1      -4.742   4.014  25.466  0.00  0.00    +0.105 C 
ENDBRANCH  31  32
ENDBRANCH  30  31
ENDBRANCH  29  30
ENDBRANCH  26  27
ENDBRANCH  25  26
TORSDOF 8
ENDMDL
