MODEL 1
REMARK VINA RESULT:     -10.7      0.000      0.000
REMARK  Name = 
REMARK  7 active torsions:
REMARK  status: ('A' for Active; 'I' for Inactive)
REMARK    1  A    between atoms: O_2  and  C_3
REMARK    2  A    between atoms: C_8  and  C_10
REMARK    3  A    between atoms: N_12  and  C_13
REMARK    4  A    between atoms: C_15  and  C_21
REMARK    5  A    between atoms: N_23  and  C_24
REMARK    6  A    between atoms: C_24  and  C_25
REMARK    7  A    between atoms: C_25  and  C_26
REMARK                            x       y       z     vdW  Elec       q    Type
REMARK                         _______ _______ _______ _____ _____    ______ ____
ROOT
ATOM     13  C   UNL     1      -4.654   1.361  24.981  0.00  0.00    +0.150 C 
ATOM     14  C   UNL     1      -4.079   1.891  24.718  0.00  0.00    -0.002 C 
ATOM     15  C   UNL     1      -4.168   2.700  24.857  0.00  0.00    +0.033 C 
ATOM     16  C   UNL     1      -4.831   2.978  25.260  0.00  0.00    +0.066 C 
ATOM     17  C   UNL     1      -5.406   2.449  25.524  0.00  0.00    +0.189 C 
ATOM     18  O   UNL     1      -6.070   2.727  25.928  0.00  0.00    -0.220 OA
ATOM     19  C   UNL     1      -5.318   1.641  25.385  0.00  0.00    +0.206 C 
ATOM     20  O   UNL     1      -5.893   1.111  25.648  0.00  0.00    -0.218 OA
ENDROOT
BRANCH  13  12
ATOM     10  C   UNL     1      -3.858   0.176  25.037  0.00  0.00    +0.266 C 
ATOM     11  O   UNL     1      -3.240   0.608  25.373  0.00  0.00    -0.268 OA
ATOM     12  N   UNL     1      -4.566   0.554  24.842  0.00  0.00    -0.196 NA
BRANCH  10   8
ATOM      3  C   UNL     1      -4.045  -1.789  24.105  0.00  0.00    +0.139 A 
ATOM      4  C   UNL     1      -3.592  -2.249  24.618  0.00  0.00    +0.037 A 
ATOM      5  C   UNL     1      -3.227  -1.901  25.272  0.00  0.00    +0.010 A 
ATOM      6  C   UNL     1      -3.316  -1.092  25.412  0.00  0.00    +0.039 A 
ATOM      7 BR   UNL     1      -2.951  -0.744  26.064  0.00  0.00    -0.049 Br
ATOM      8  C   UNL     1      -3.769  -0.632  24.898  0.00  0.00    +0.064 A 
ATOM      9  C   UNL     1      -4.134  -0.980  24.245  0.00  0.00    +0.042 A 
BRANCH   3   2
ATOM      1  C   UNL     1      -4.477  -2.958  23.406  0.00  0.00    +0.252 C 
ATOM      2  O   UNL     1      -4.411  -2.137  23.452  0.00  0.00    -0.471 OA
ENDBRANCH   3   2
ENDBRANCH  10   8
ENDBRANCH  13  12
BRANCH  15  21
ATOM     21  C   UNL     1      -3.593   3.229  24.594  0.00  0.00    +0.261 C 
ATOM     22  O   UNL     1      -3.580   3.463  23.802  0.00  0.00    -0.269 OA
ATOM     23  N   UNL     1      -3.031   3.524  25.120  0.00  0.00    -0.201 NA
BRANCH  23  24
ATOM     24  C   UNL     1      -2.455   4.054  24.857  0.00  0.00    +0.125 C 
BRANCH  24  25
ATOM     25  C   UNL     1      -1.902   4.360  25.386  0.00  0.00    +0.112 C 
BRANCH  25  26
ATOM     26  C   UNL     1      -1.287   4.834  25.112  0.00  0.00    +0.263 C 
ATOM     27  N   UNL     1      -0.580   4.490  24.860  0.00  0.00    -0.088 NA
ATOM     28  O   UNL     1      -1.377   5.655  25.088  0.00  0.00    -0.272 OA
ENDBRANCH  25  26
ENDBRANCH  24  25
ENDBRANCH  23  24
ENDBRANCH  15  21
TORSDOF 7
ENDMDL
MODEL 2
REMARK VINA RESULT:      -9.7      1.460      5.097
REMARK  Name = 
REMARK  7 active torsions:
REMARK  status: ('A' for Active; 'I' for Inactive)
REMARK    1  A    between atoms: O_2  and  C_3
REMARK    2  A    between atoms: C_8  and  C_10
REMARK    3  A    between atoms: N_12  and  C_13
REMARK    4  A    between atoms: C_15  and  C_21
REMARK    5  A    between atoms: N_23  and  C_24
REMARK    6  A    between atoms: C_24  and  C_25
REMARK    7  A    between atoms: C_25  and  C_26
REMARK                            x       y       z     vdW  Elec       q    Type
REMARK                         _______ _______ _______ _____ _____    ______ ____
ROOT
ATOM     13  C   UNL     1      -3.771   2.126  24.835  0.00  0.00    +0.150 C 
ATOM     14  C   UNL     1      -3.632   1.369  24.540  0.00  0.00    -0.002 C 
ATOM     15  C   UNL     1      -4.217   0.791  24.593  0.00  0.00    +0.033 C 
ATOM     16  C   UNL     1      -4.943   0.969  24.941  0.00  0.00    +0.066 C 
ATOM     17  C   UNL     1      -5.083   1.727  25.238  0.00  0.00    +0.189 C 
ATOM     18  O   UNL     1      -5.809   1.905  25.586  0.00  0.00    -0.220 OA
ATOM     19  C   UNL     1      -4.498   2.305  25.185  0.00  0.00    +0.206 C 
ATOM     20  O   UNL     1      -4.637   3.062  25.480  0.00  0.00    -0.218 OA
ENDROOT
BRANCH  13  12
ATOM     10  C   UNL     1      -2.444   2.573  25.121  0.00  0.00    +0.266 C 
ATOM     11  O   UNL     1      -2.290   1.864  25.512  0.00  0.00    -0.268 OA
ATOM     12  N   UNL     1      -3.186   2.704  24.782  0.00  0.00    -0.196 NA
BRANCH  10   8
ATOM      3  C   UNL     1      -1.453   4.517  25.183  0.00  0.00    +0.139 A 
ATOM      4  C   UNL     1      -0.687   4.309  24.962  0.00  0.00    +0.037 A 
ATOM      5  C   UNL     1      -0.505   3.522  24.793  0.00  0.00    +0.010 A 
ATOM      6  C   UNL     1      -1.092   2.943  24.846  0.00  0.00    +0.039 A 
ATOM      7 BR   UNL     1      -0.911   2.156  24.677  0.00  0.00    -0.049 Br
ATOM      8  C   UNL     1      -1.859   3.152  25.068  0.00  0.00    +0.064 A 
ATOM      9  C   UNL     1      -2.040   3.938  25.236  0.00  0.00    +0.042 A 
BRANCH   3   2
ATOM      1  C   UNL     1      -1.312   5.909  24.893  0.00  0.00    +0.252 C 
ATOM      2  O   UNL     1      -1.635   5.304  25.352  0.00  0.00    -0.471 OA
ENDBRANCH   3   2
ENDBRANCH  10   8
ENDBRANCH  13  12
BRANCH  15  21
ATOM     21  C   UNL     1      -4.077   0.034  24.297  0.00  0.00    +0.261 C 
ATOM     22  O   UNL     1      -4.101  -0.102  23.482  0.00  0.00    -0.269 OA
ATOM     23  N   UNL     1      -3.913  -0.588  24.814  0.00  0.00    -0.201 NA
BRANCH  23  24
ATOM     24  C   UNL     1      -3.772  -1.346  24.518  0.00  0.00    +0.125 C 
BRANCH  24  25
ATOM     25  C   UNL     1      -3.505  -1.942  25.021  0.00  0.00    +0.112 C 
BRANCH  25  26
ATOM     26  C   UNL     1      -3.205  -2.642  24.706  0.00  0.00    +0.263 C 
ATOM     27  N   UNL     1      -2.390  -2.752  24.644  0.00  0.00    -0.088 NA
ATOM     28  O   UNL     1      -3.721  -3.236  24.454  0.00  0.00    -0.272 OA
ENDBRANCH  25  26
ENDBRANCH  24  25
ENDBRANCH  23  24
ENDBRANCH  15  21
TORSDOF 7
ENDMDL
MODEL 3
REMARK VINA RESULT:      -9.3      2.754      5.859
REMARK  Name = 
REMARK  7 active torsions:
REMARK  status: ('A' for Active; 'I' for Inactive)
REMARK    1  A    between atoms: O_2  and  C_3
REMARK    2  A    between atoms: C_8  and  C_10
REMARK    3  A    between atoms: N_12  and  C_13
REMARK    4  A    between atoms: C_15  and  C_21
REMARK    5  A    between atoms: N_23  and  C_24
REMARK    6  A    between atoms: C_24  and  C_25
REMARK    7  A    between atoms: C_25  and  C_26
REMARK                            x       y       z     vdW  Elec       q    Type
REMARK                         _______ _______ _______ _____ _____    ______ ____
ROOT
ATOM     13  C   UNL     1      -0.694   0.818  24.179  0.00  0.00    +0.150 C 
ATOM     14  C   UNL     1      -1.057   0.151  24.501  0.00  0.00    -0.002 C 
ATOM     15  C   UNL     1      -0.724  -0.595  24.388  0.00  0.00    +0.033 C 
ATOM     16  C   UNL     1      -0.027  -0.674  23.954  0.00  0.00    +0.066 C 
ATOM     17  C   UNL     1       0.337  -0.007  23.632  0.00  0.00    +0.189 C 
ATOM     18  O   UNL     1       1.033  -0.086  23.198  0.00  0.00    -0.220 OA
ATOM     19  C   UNL     1       0.003   0.739  23.745  0.00  0.00    +0.206 C 
ATOM     20  O   UNL     1       0.367   1.406  23.423  0.00  0.00    -0.218 OA
ENDROOT
BRANCH  13  12
ATOM     10  C   UNL     1      -1.176   1.839  25.056  0.00  0.00    +0.266 C 
ATOM     11  O   UNL     1      -0.991   1.367  25.706  0.00  0.00    -0.268 OA
ATOM     12  N   UNL     1      -1.027   1.564  24.291  0.00  0.00    -0.196 NA
BRANCH  10   8
ATOM      3  C   UNL     1      -2.529   3.543  24.874  0.00  0.00    +0.139 A 
ATOM      4  C   UNL     1      -2.176   4.077  25.393  0.00  0.00    +0.037 A 
ATOM      5  C   UNL     1      -1.489   3.867  25.800  0.00  0.00    +0.010 A 
ATOM      6  C   UNL     1      -1.156   3.120  25.687  0.00  0.00    +0.039 A 
ATOM      7 BR   UNL     1      -0.470   2.910  26.094  0.00  0.00    -0.049 Br
ATOM      8  C   UNL     1      -1.509   2.585  25.168  0.00  0.00    +0.064 A 
ATOM      9  C   UNL     1      -2.195   2.795  24.762  0.00  0.00    +0.042 A 
BRANCH   3   2
ATOM      1  C   UNL     1      -3.942   3.753  24.857  0.00  0.00    +0.252 C 
ATOM      2  O   UNL     1      -3.215   3.753  24.467  0.00  0.00    -0.471 OA
ENDBRANCH   3   2
ENDBRANCH  10   8
ENDBRANCH  13  12
BRANCH  15  21
ATOM     21  C   UNL     1      -1.088  -1.261  24.710  0.00  0.00    +0.261 C 
ATOM     22  O   UNL     1      -0.734  -1.660  25.341  0.00  0.00    -0.269 OA
ATOM     23  N   UNL     1      -1.804  -1.530  24.402  0.00  0.00    -0.201 NA
BRANCH  23  24
ATOM     24  C   UNL     1      -2.169  -2.197  24.723  0.00  0.00    +0.125 C 
BRANCH  24  25
ATOM     25  C   UNL     1      -2.723  -2.618  24.282  0.00  0.00    +0.112 C 
BRANCH  25  26
ATOM     26  C   UNL     1      -3.480  -2.744  24.583  0.00  0.00    +0.263 C 
ATOM     27  N   UNL     1      -4.141  -2.627  24.103  0.00  0.00    -0.088 NA
ATOM     28  O   UNL     1      -3.578  -2.987  25.367  0.00  0.00    -0.272 OA
ENDBRANCH  25  26
ENDBRANCH  24  25
ENDBRANCH  23  24
ENDBRANCH  15  21
TORSDOF 7
ENDMDL
MODEL 4
REMARK VINA RESULT:      -9.2      2.654      4.491
REMARK  Name = 
REMARK  7 active torsions:
REMARK  status: ('A' for Active; 'I' for Inactive)
REMARK    1  A    between atoms: O_2  and  C_3
REMARK    2  A    between atoms: C_8  and  C_10
REMARK    3  A    between atoms: N_12  and  C_13
REMARK    4  A    between atoms: C_15  and  C_21
REMARK    5  A    between atoms: N_23  and  C_24
REMARK    6  A    between atoms: C_24  and  C_25
REMARK    7  A    between atoms: C_25  and  C_26
REMARK                            x       y       z     vdW  Elec       q    Type
REMARK                         _______ _______ _______ _____ _____    ______ ____
ROOT
ATOM     13  C   UNL     1      -2.963  -0.554  24.912  0.00  0.00    +0.150 C 
ATOM     14  C   UNL     1      -2.153  -0.436  24.811  0.00  0.00    -0.002 C 
ATOM     15  C   UNL     1      -1.654  -1.081  24.686  0.00  0.00    +0.033 C 
ATOM     16  C   UNL     1      -1.965  -1.844  24.661  0.00  0.00    +0.066 C 
ATOM     17  C   UNL     1      -2.775  -1.963  24.762  0.00  0.00    +0.189 C 
ATOM     18  O   UNL     1      -3.086  -2.727  24.737  0.00  0.00    -0.220 OA
ATOM     19  C   UNL     1      -3.274  -1.319  24.887  0.00  0.00    +0.206 C 
ATOM     20  O   UNL     1      -4.084  -1.437  24.988  0.00  0.00    -0.218 OA
ENDROOT
BRANCH  13  12
ATOM     10  C   UNL     1      -3.614   0.619  24.422  0.00  0.00    +0.266 C 
ATOM     11  O   UNL     1      -3.267   0.503  23.682  0.00  0.00    -0.268 OA
ATOM     12  N   UNL     1      -3.462   0.090  25.037  0.00  0.00    -0.196 NA
BRANCH  10   8
ATOM      3  C   UNL     1      -5.296   1.820  25.125  0.00  0.00    +0.139 A 
ATOM      4  C   UNL     1      -5.112   2.554  24.797  0.00  0.00    +0.037 A 
ATOM      5  C   UNL     1      -4.429   2.644  24.343  0.00  0.00    +0.010 A 
ATOM      6  C   UNL     1      -3.929   1.998  24.218  0.00  0.00    +0.039 A 
ATOM      7 BR   UNL     1      -3.247   2.087  23.764  0.00  0.00    -0.049 Br
ATOM      8  C   UNL     1      -4.114   1.264  24.547  0.00  0.00    +0.064 A 
ATOM      9  C   UNL     1      -4.796   1.175  25.000  0.00  0.00    +0.042 A 
BRANCH   3   2
ATOM      1  C   UNL     1      -6.130   2.247  26.205  0.00  0.00    +0.252 C 
ATOM      2  O   UNL     1      -5.980   1.730  25.579  0.00  0.00    -0.471 OA
ENDBRANCH   3   2
ENDBRANCH  10   8
ENDBRANCH  13  12
BRANCH  15  21
ATOM     21  C   UNL     1      -0.844  -0.961  24.585  0.00  0.00    +0.261 C 
ATOM     22  O   UNL     1      -0.314  -1.217  25.165  0.00  0.00    -0.269 OA
ATOM     23  N   UNL     1      -0.563  -0.587  23.906  0.00  0.00    -0.201 NA
BRANCH  23  24
ATOM     24  C   UNL     1       0.247  -0.467  23.805  0.00  0.00    +0.125 C 
BRANCH  24  25
ATOM     25  C   UNL     1       0.538  -0.197  23.083  0.00  0.00    +0.112 C 
BRANCH  25  26
ATOM     26  C   UNL     1       1.274   0.173  23.046  0.00  0.00    +0.263 C 
ATOM     27  N   UNL     1       1.893  -0.179  22.630  0.00  0.00    -0.088 NA
ATOM     28  O   UNL     1       1.391   0.897  23.427  0.00  0.00    -0.272 OA
ENDBRANCH  25  26
ENDBRANCH  24  25
ENDBRANCH  23  24
ENDBRANCH  15  21
TORSDOF 7
ENDMDL
MODEL 5
REMARK VINA RESULT:      -9.2      2.540      4.127
REMARK  Name = 
REMARK  7 active torsions:
REMARK  status: ('A' for Active; 'I' for Inactive)
REMARK    1  A    between atoms: O_2  and  C_3
REMARK    2  A    between atoms: C_8  and  C_10
REMARK    3  A    between atoms: N_12  and  C_13
REMARK    4  A    between atoms: C_15  and  C_21
REMARK    5  A    between atoms: N_23  and  C_24
REMARK    6  A    between atoms: C_24  and  C_25
REMARK    7  A    between atoms: C_25  and  C_26
REMARK                            x       y       z     vdW  Elec       q    Type
REMARK                         _______ _______ _______ _____ _____    ______ ____
ROOT
ATOM     13  C   UNL     1      -1.293   2.943  24.684  0.00  0.00    +0.150 C 
ATOM     14  C   UNL     1      -2.027   2.970  25.060  0.00  0.00    -0.002 C 
ATOM     15  C   UNL     1      -2.301   3.679  25.380  0.00  0.00    +0.033 C 
ATOM     16  C   UNL     1      -1.842   4.362  25.322  0.00  0.00    +0.066 C 
ATOM     17  C   UNL     1      -1.109   4.336  24.946  0.00  0.00    +0.189 C 
ATOM     18  O   UNL     1      -0.650   5.019  24.889  0.00  0.00    -0.220 OA
ATOM     19  C   UNL     1      -0.834   3.627  24.627  0.00  0.00    +0.206 C 
ATOM     20  O   UNL     1      -0.100   3.600  24.250  0.00  0.00    -0.218 OA
ENDROOT
BRANCH  13  12
ATOM     10  C   UNL     1      -0.837   1.601  24.861  0.00  0.00    +0.266 C 
ATOM     11  O   UNL     1      -0.930   1.678  25.677  0.00  0.00    -0.268 OA
ATOM     12  N   UNL     1      -1.019   2.235  24.364  0.00  0.00    -0.196 NA
BRANCH  10   8
ATOM      3  C   UNL     1       0.202   0.190  23.559  0.00  0.00    +0.139 A 
ATOM      4  C   UNL     1      -0.013  -0.527  23.903  0.00  0.00    +0.037 A 
ATOM      5  C   UNL     1      -0.503  -0.537  24.567  0.00  0.00    +0.010 A 
ATOM      6  C   UNL     1      -0.778   0.174  24.887  0.00  0.00    +0.039 A 
ATOM      7 BR   UNL     1      -1.267   0.165  25.550  0.00  0.00    -0.049 Br
ATOM      8  C   UNL     1      -0.563   0.892  24.542  0.00  0.00    +0.064 A 
ATOM      9  C   UNL     1      -0.073   0.901  23.879  0.00  0.00    +0.042 A 
BRANCH   3   2
ATOM      1  C   UNL     1       1.409  -0.207  22.906  0.00  0.00    +0.252 C 
ATOM      2  O   UNL     1       0.691   0.200  22.895  0.00  0.00    -0.471 OA
ENDBRANCH   3   2
ENDBRANCH  10   8
ENDBRANCH  13  12
BRANCH  15  21
ATOM     21  C   UNL     1      -3.034   3.705  25.756  0.00  0.00    +0.261 C 
ATOM     22  O   UNL     1      -3.103   4.049  26.504  0.00  0.00    -0.269 OA
ATOM     23  N   UNL     1      -3.700   3.388  25.386  0.00  0.00    -0.201 NA
BRANCH  23  24
ATOM     24  C   UNL     1      -4.434   3.414  25.762  0.00  0.00    +0.125 C 
BRANCH  24  25
ATOM     25  C   UNL     1      -5.120   3.233  25.342  0.00  0.00    +0.112 C 
BRANCH  25  26
ATOM     26  C   UNL     1      -5.674   2.712  25.661  0.00  0.00    +0.263 C 
ATOM     27  N   UNL     1      -5.905   2.043  25.238  0.00  0.00    -0.088 NA
ATOM     28  O   UNL     1      -5.999   2.861  26.406  0.00  0.00    -0.272 OA
ENDBRANCH  25  26
ENDBRANCH  24  25
ENDBRANCH  23  24
ENDBRANCH  15  21
TORSDOF 7
ENDMDL
MODEL 6
REMARK VINA RESULT:      -9.2      2.462      4.554
REMARK  Name = 
REMARK  7 active torsions:
REMARK  status: ('A' for Active; 'I' for Inactive)
REMARK    1  A    between atoms: O_2  and  C_3
REMARK    2  A    between atoms: C_8  and  C_10
REMARK    3  A    between atoms: N_12  and  C_13
REMARK    4  A    between atoms: C_15  and  C_21
REMARK    5  A    between atoms: N_23  and  C_24
REMARK    6  A    between atoms: C_24  and  C_25
REMARK    7  A    between atoms: C_25  and  C_26
REMARK                            x       y       z     vdW  Elec       q    Type
REMARK                         _______ _______ _______ _____ _____    ______ ____
ROOT
ATOM     13  C   UNL     1      -2.049   3.286  25.271  0.00  0.00    +0.150 C 
ATOM     14  C   UNL     1      -1.515   2.671  25.144  0.00  0.00    -0.002 C 
ATOM     15  C   UNL     1      -0.726   2.837  24.972  0.00  0.00    +0.033 C 
ATOM     16  C   UNL     1      -0.470   3.620  24.928  0.00  0.00    +0.066 C 
ATOM     17  C   UNL     1      -1.003   4.237  25.055  0.00  0.00    +0.189 C 
ATOM     18  O   UNL     1      -0.748   5.019  25.011  0.00  0.00    -0.220 OA
ATOM     19  C   UNL     1      -1.793   4.070  25.227  0.00  0.00    +0.206 C 
ATOM     20  O   UNL     1      -2.327   4.686  25.354  0.00  0.00    -0.218 OA
ENDROOT
BRANCH  13  12
ATOM     10  C   UNL     1      -3.327   2.794  24.862  0.00  0.00    +0.266 C 
ATOM     11  O   UNL     1      -3.025   2.635  24.111  0.00  0.00    -0.268 OA
ATOM     12  N   UNL     1      -2.838   3.120  25.443  0.00  0.00    -0.196 NA
BRANCH  10   8
ATOM      3  C   UNL     1      -5.376   3.026  25.577  0.00  0.00    +0.139 A 
ATOM      4  C   UNL     1      -5.695   2.293  25.377  0.00  0.00    +0.037 A 
ATOM      5  C   UNL     1      -5.226   1.726  25.005  0.00  0.00    +0.010 A 
ATOM      6  C   UNL     1      -4.435   1.893  24.834  0.00  0.00    +0.039 A 
ATOM      7 BR   UNL     1      -3.966   1.326  24.462  0.00  0.00    -0.049 Br
ATOM      8  C   UNL     1      -4.116   2.627  25.034  0.00  0.00    +0.064 A 
ATOM      9  C   UNL     1      -4.586   3.193  25.406  0.00  0.00    +0.042 A 
BRANCH   3   2
ATOM      1  C   UNL     1      -6.040   4.291  25.554  0.00  0.00    +0.252 C 
ATOM      2  O   UNL     1      -5.846   3.594  25.949  0.00  0.00    -0.471 OA
ENDBRANCH   3   2
ENDBRANCH  10   8
ENDBRANCH  13  12
BRANCH  15  21
ATOM     21  C   UNL     1      -0.193   2.222  24.845  0.00  0.00    +0.261 C 
ATOM     22  O   UNL     1       0.423   2.091  25.380  0.00  0.00    -0.269 OA
ATOM     23  N   UNL     1      -0.273   1.735  24.184  0.00  0.00    -0.201 NA
BRANCH  23  24
ATOM     24  C   UNL     1       0.260   1.118  24.056  0.00  0.00    +0.125 C 
BRANCH  24  25
ATOM     25  C   UNL     1       0.175   0.629  23.398  0.00  0.00    +0.112 C 
BRANCH  25  26
ATOM     26  C   UNL     1       0.609  -0.071  23.346  0.00  0.00    +0.263 C 
ATOM     27  N   UNL     1       1.308  -0.092  22.908  0.00  0.00    -0.088 NA
ATOM     28  O   UNL     1       0.343  -0.751  23.733  0.00  0.00    -0.272 OA
ENDBRANCH  25  26
ENDBRANCH  24  25
ENDBRANCH  23  24
ENDBRANCH  15  21
TORSDOF 7
ENDMDL
MODEL 7
REMARK VINA RESULT:      -9.1      2.452      3.406
REMARK  Name = 
REMARK  7 active torsions:
REMARK  status: ('A' for Active; 'I' for Inactive)
REMARK    1  A    between atoms: O_2  and  C_3
REMARK    2  A    between atoms: C_8  and  C_10
REMARK    3  A    between atoms: N_12  and  C_13
REMARK    4  A    between atoms: C_15  and  C_21
REMARK    5  A    between atoms: N_23  and  C_24
REMARK    6  A    between atoms: C_24  and  C_25
REMARK    7  A    between atoms: C_25  and  C_26
REMARK                            x       y       z     vdW  Elec       q    Type
REMARK                         _______ _______ _______ _____ _____    ______ ____
ROOT
ATOM     13  C   UNL     1      -0.866   0.359  24.494  0.00  0.00    +0.150 C 
ATOM     14  C   UNL     1      -0.891   1.104  24.846  0.00  0.00    -0.002 C 
ATOM     15  C   UNL     1      -0.276   1.640  24.722  0.00  0.00    +0.033 C 
ATOM     16  C   UNL     1       0.363   1.431  24.246  0.00  0.00    +0.066 C 
ATOM     17  C   UNL     1       0.390   0.685  23.894  0.00  0.00    +0.189 C 
ATOM     18  O   UNL     1       1.030   0.476  23.418  0.00  0.00    -0.220 OA
ATOM     19  C   UNL     1      -0.225   0.149  24.018  0.00  0.00    +0.206 C 
ATOM     20  O   UNL     1      -0.199  -0.596  23.666  0.00  0.00    -0.218 OA
ENDROOT
BRANCH  13  12
ATOM     10  C   UNL     1      -2.234  -0.015  24.325  0.00  0.00    +0.266 C 
ATOM     11  O   UNL     1      -2.373   0.684  23.909  0.00  0.00    -0.268 OA
ATOM     12  N   UNL     1      -1.480  -0.177  24.617  0.00  0.00    -0.196 NA
BRANCH  10   8
ATOM      3  C   UNL     1      -3.295  -1.872  24.764  0.00  0.00    +0.139 A 
ATOM      4  C   UNL     1      -4.078  -1.624  24.696  0.00  0.00    +0.037 A 
ATOM      5  C   UNL     1      -4.248  -0.839  24.504  0.00  0.00    +0.010 A 
ATOM      6  C   UNL     1      -3.633  -0.302  24.381  0.00  0.00    +0.039 A 
ATOM      7 BR   UNL     1      -3.802   0.482  24.189  0.00  0.00    -0.049 Br
ATOM      8  C   UNL     1      -2.849  -0.551  24.449  0.00  0.00    +0.064 A 
ATOM      9  C   UNL     1      -2.680  -1.335  24.640  0.00  0.00    +0.042 A 
BRANCH   3   2
ATOM      1  C   UNL     1      -3.486  -3.270  24.539  0.00  0.00    +0.252 C 
ATOM      2  O   UNL     1      -3.125  -2.656  24.956  0.00  0.00    -0.471 OA
ENDBRANCH   3   2
ENDBRANCH  10   8
ENDBRANCH  13  12
BRANCH  15  21
ATOM     21  C   UNL     1      -0.303   2.385  25.074  0.00  0.00    +0.261 C 
ATOM     22  O   UNL     1       0.130   2.532  25.762  0.00  0.00    -0.269 OA
ATOM     23  N   UNL     1      -0.761   2.985  24.740  0.00  0.00    -0.201 NA
BRANCH  23  24
ATOM     24  C   UNL     1      -0.787   3.731  25.092  0.00  0.00    +0.125 C 
BRANCH  24  25
ATOM     25  C   UNL     1      -1.177   4.351  24.715  0.00  0.00    +0.112 C 
BRANCH  25  26
ATOM     26  C   UNL     1      -1.494   4.970  25.159  0.00  0.00    +0.263 C 
ATOM     27  N   UNL     1      -2.179   4.851  25.603  0.00  0.00    -0.088 NA
ATOM     28  O   UNL     1      -1.125   5.709  25.160  0.00  0.00    -0.272 OA
ENDBRANCH  25  26
ENDBRANCH  24  25
ENDBRANCH  23  24
ENDBRANCH  15  21
TORSDOF 7
ENDMDL
MODEL 8
REMARK VINA RESULT:      -8.9      1.932      3.130
REMARK  Name = 
REMARK  7 active torsions:
REMARK  status: ('A' for Active; 'I' for Inactive)
REMARK    1  A    between atoms: O_2  and  C_3
REMARK    2  A    between atoms: C_8  and  C_10
REMARK    3  A    between atoms: N_12  and  C_13
REMARK    4  A    between atoms: C_15  and  C_21
REMARK    5  A    between atoms: N_23  and  C_24
REMARK    6  A    between atoms: C_24  and  C_25
REMARK    7  A    between atoms: C_25  and  C_26
REMARK                            x       y       z     vdW  Elec       q    Type
REMARK                         _______ _______ _______ _____ _____    ______ ____
ROOT
ATOM     13  C   UNL     1      -1.715   1.211  24.341  0.00  0.00    +0.150 C 
ATOM     14  C   UNL     1      -2.290   1.655  24.732  0.00  0.00    -0.002 C 
ATOM     15  C   UNL     1      -2.176   2.463  24.853  0.00  0.00    +0.033 C 
ATOM     16  C   UNL     1      -1.487   2.827  24.584  0.00  0.00    +0.066 C 
ATOM     17  C   UNL     1      -0.911   2.383  24.193  0.00  0.00    +0.189 C 
ATOM     18  O   UNL     1      -0.222   2.747  23.924  0.00  0.00    -0.220 OA
ATOM     19  C   UNL     1      -1.025   1.575  24.072  0.00  0.00    +0.206 C 
ATOM     20  O   UNL     1      -0.450   1.131  23.682  0.00  0.00    -0.218 OA
ENDROOT
BRANCH  13  12
ATOM     10  C   UNL     1      -1.890  -0.106  24.867  0.00  0.00    +0.266 C 
ATOM     11  O   UNL     1      -1.837   0.193  25.634  0.00  0.00    -0.268 OA
ATOM     12  N   UNL     1      -1.829   0.403  24.220  0.00  0.00    -0.196 NA
BRANCH  10   8
ATOM      3  C   UNL     1      -2.802  -1.992  24.251  0.00  0.00    +0.139 A 
ATOM      4  C   UNL     1      -2.232  -2.531  24.504  0.00  0.00    +0.037 A 
ATOM      5  C   UNL     1      -1.547  -2.263  24.878  0.00  0.00    +0.010 A 
ATOM      6  C   UNL     1      -1.433  -1.454  24.999  0.00  0.00    +0.039 A 
ATOM      7 BR   UNL     1      -0.749  -1.186  25.373  0.00  0.00    -0.049 Br
ATOM      8  C   UNL     1      -2.004  -0.915  24.746  0.00  0.00    +0.064 A 
ATOM      9  C   UNL     1      -2.688  -1.183  24.372  0.00  0.00    +0.042 A 
BRANCH   3   2
ATOM      1  C   UNL     1      -3.969  -2.816  24.248  0.00  0.00    +0.252 C 
ATOM      2  O   UNL     1      -3.487  -2.259  23.876  0.00  0.00    -0.471 OA
ENDBRANCH   3   2
ENDBRANCH  10   8
ENDBRANCH  13  12
BRANCH  15  21
ATOM     21  C   UNL     1      -2.751   2.906  25.243  0.00  0.00    +0.261 C 
ATOM     22  O   UNL     1      -2.540   3.388  25.880  0.00  0.00    -0.269 OA
ATOM     23  N   UNL     1      -3.538   2.870  24.998  0.00  0.00    -0.201 NA
BRANCH  23  24
ATOM     24  C   UNL     1      -4.114   3.313  25.388  0.00  0.00    +0.125 C 
BRANCH  24  25
ATOM     25  C   UNL     1      -4.900   3.279  25.141  0.00  0.00    +0.112 C 
BRANCH  25  26
ATOM     26  C   UNL     1      -5.507   3.451  25.671  0.00  0.00    +0.263 C 
ATOM     27  N   UNL     1      -5.844   2.849  26.124  0.00  0.00    -0.088 NA
ATOM     28  O   UNL     1      -5.779   4.227  25.749  0.00  0.00    -0.272 OA
ENDBRANCH  25  26
ENDBRANCH  24  25
ENDBRANCH  23  24
ENDBRANCH  15  21
TORSDOF 7
ENDMDL
MODEL 9
REMARK VINA RESULT:      -8.8      2.424      5.125
REMARK  Name = 
REMARK  7 active torsions:
REMARK  status: ('A' for Active; 'I' for Inactive)
REMARK    1  A    between atoms: O_2  and  C_3
REMARK    2  A    between atoms: C_8  and  C_10
REMARK    3  A    between atoms: N_12  and  C_13
REMARK    4  A    between atoms: C_15  and  C_21
REMARK    5  A    between atoms: N_23  and  C_24
REMARK    6  A    between atoms: C_24  and  C_25
REMARK    7  A    between atoms: C_25  and  C_26
REMARK                            x       y       z     vdW  Elec       q    Type
REMARK                         _______ _______ _______ _____ _____    ______ ____
ROOT
ATOM     13  C   UNL     1      -1.681   2.117  25.401  0.00  0.00    +0.150 C 
ATOM     14  C   UNL     1      -1.626   1.375  25.045  0.00  0.00    -0.002 C 
ATOM     15  C   UNL     1      -0.888   1.019  24.944  0.00  0.00    +0.033 C 
ATOM     16  C   UNL     1      -0.206   1.405  25.199  0.00  0.00    +0.066 C 
ATOM     17  C   UNL     1      -0.260   2.147  25.556  0.00  0.00    +0.189 C 
ATOM     18  O   UNL     1       0.423   2.533  25.811  0.00  0.00    -0.220 OA
ATOM     19  C   UNL     1      -0.997   2.503  25.657  0.00  0.00    +0.206 C 
ATOM     20  O   UNL     1      -1.052   3.245  26.013  0.00  0.00    -0.218 OA
ENDROOT
BRANCH  13  12
ATOM     10  C   UNL     1      -2.915   2.584  24.853  0.00  0.00    +0.266 C 
ATOM     11  O   UNL     1      -2.674   2.338  24.103  0.00  0.00    -0.268 OA
ATOM     12  N   UNL     1      -2.417   2.473  25.502  0.00  0.00    -0.196 NA
BRANCH  10   8
ATOM      3  C   UNL     1      -4.917   3.001  25.615  0.00  0.00    +0.139 A 
ATOM      4  C   UNL     1      -5.126   3.652  25.155  0.00  0.00    +0.037 A 
ATOM      5  C   UNL     1      -4.599   3.949  24.595  0.00  0.00    +0.010 A 
ATOM      6  C   UNL     1      -3.861   3.593  24.494  0.00  0.00    +0.039 A 
ATOM      7 BR   UNL     1      -3.333   3.889  23.933  0.00  0.00    -0.049 Br
ATOM      8  C   UNL     1      -3.652   2.940  24.954  0.00  0.00    +0.064 A 
ATOM      9  C   UNL     1      -4.179   2.644  25.514  0.00  0.00    +0.042 A 
BRANCH   3   2
ATOM      1  C   UNL     1      -6.062   2.210  25.940  0.00  0.00    +0.252 C 
ATOM      2  O   UNL     1      -5.445   2.704  26.176  0.00  0.00    -0.471 OA
ENDBRANCH   3   2
ENDBRANCH  10   8
ENDBRANCH  13  12
BRANCH  15  21
ATOM     21  C   UNL     1      -0.834   0.278  24.588  0.00  0.00    +0.261 C 
ATOM     22  O   UNL     1      -0.407   0.187  23.887  0.00  0.00    -0.269 OA
ATOM     23  N   UNL     1      -1.207  -0.374  24.931  0.00  0.00    -0.201 NA
BRANCH  23  24
ATOM     24  C   UNL     1      -1.153  -1.116  24.575  0.00  0.00    +0.125 C 
BRANCH  24  25
ATOM     25  C   UNL     1      -1.462  -1.780  24.954  0.00  0.00    +0.112 C 
BRANCH  25  26
ATOM     26  C   UNL     1      -1.851  -2.361  24.518  0.00  0.00    +0.263 C 
ATOM     27  N   UNL     1      -2.659  -2.488  24.626  0.00  0.00    -0.088 NA
ATOM     28  O   UNL     1      -1.431  -2.817  23.972  0.00  0.00    -0.272 OA
ENDBRANCH  25  26
ENDBRANCH  24  25
ENDBRANCH  23  24
ENDBRANCH  15  21
TORSDOF 7
ENDMDL
