MODEL 1
REMARK VINA RESULT:     -11.0      0.000      0.000
REMARK  Name = 
REMARK  4 active torsions:
REMARK  status: ('A' for Active; 'I' for Inactive)
REMARK    1  A    between atoms: C_4  and  C_7
REMARK    2  A    between atoms: C_14  and  O_16
REMARK    3  A    between atoms: O_16  and  C_17
REMARK    4  A    between atoms: C_20  and  S_23
REMARK                            x       y       z     vdW  Elec       q    Type
REMARK                         _______ _______ _______ _____ _____    ______ ____
ROOT
ATOM      7  C   UNL     1      -2.554   2.965  25.281  0.00  0.00    +0.270 C 
ATOM      8  O   UNL     1      -3.020   2.876  25.956  0.00  0.00    -0.268 OA
ATOM      9  N   UNL     1      -2.666   2.466  24.634  0.00  0.00    -0.268 N 
ATOM     10  C   UNL     1      -2.172   2.602  23.987  0.00  0.00    +0.126 C 
ATOM     11  C   UNL     1      -2.146   2.203  23.266  0.00  0.00    +0.164 C 
ATOM     12  O   UNL     1      -2.609   1.569  23.012  0.00  0.00    -0.348 OA
ATOM     13  C   UNL     1      -3.212   1.178  23.418  0.00  0.00    +0.187 C 
ATOM     14  C   UNL     1      -3.500   1.324  24.177  0.00  0.00    +0.215 C 
ATOM     15  C   UNL     1      -3.257   1.897  24.717  0.00  0.00    +0.140 C 
ENDROOT
BRANCH   7   4
ATOM      1  C   UNL     1      -1.251   5.546  25.004  0.00  0.00    +0.075 C 
ATOM      2  C   UNL     1      -1.378   4.740  25.126  0.00  0.00    +0.155 A 
ATOM      3  C   UNL     1      -2.107   4.354  25.099  0.00  0.00    +0.063 A 
ATOM      4  C   UNL     1      -1.977   3.553  25.254  0.00  0.00    +0.176 A 
ATOM      5  N   UNL     1      -1.168   3.445  25.376  0.00  0.00    -0.073 NA
ATOM      6  O   UNL     1      -0.798   4.179  25.297  0.00  0.00    -0.358 OA
ENDBRANCH   7   4
BRANCH  14  16
ATOM     16  O   UNL     1      -4.113   0.831  24.428  0.00  0.00    -0.475 OA
BRANCH  16  17
ATOM     17  C   UNL     1      -3.985   0.019  24.500  0.00  0.00    +0.139 A 
ATOM     18  C   UNL     1      -4.163  -0.483  23.870  0.00  0.00    +0.038 A 
ATOM     19  C   UNL     1      -4.036  -1.295  23.942  0.00  0.00    +0.021 A 
ATOM     20  C   UNL     1      -3.731  -1.605  24.643  0.00  0.00    +0.106 A 
ATOM     21  C   UNL     1      -3.553  -1.102  25.272  0.00  0.00    +0.021 A 
ATOM     22  C   UNL     1      -3.681  -0.290  25.201  0.00  0.00    +0.038 A 
BRANCH  20  23
ATOM     23  S   UNL     1      -3.603  -2.416  24.714  0.00  0.00    +0.010 S 
ATOM     24  C   UNL     1      -3.477  -3.229  24.785  0.00  0.00    +0.182 C 
ATOM     25  O   UNL     1      -3.985  -2.540  23.993  0.00  0.00    -0.169 OA
ATOM     26  O   UNL     1      -3.222  -2.294  25.435  0.00  0.00    -0.169 OA
ENDBRANCH  20  23
ENDBRANCH  16  17
ENDBRANCH  14  16
TORSDOF 4
ENDMDL
MODEL 2
REMARK VINA RESULT:     -10.2      2.473      5.449
REMARK  Name = 
REMARK  4 active torsions:
REMARK  status: ('A' for Active; 'I' for Inactive)
REMARK    1  A    between atoms: C_4  and  C_7
REMARK    2  A    between atoms: C_14  and  O_16
REMARK    3  A    between atoms: O_16  and  C_17
REMARK    4  A    between atoms: C_20  and  S_23
REMARK                            x       y       z     vdW  Elec       q    Type
REMARK                         _______ _______ _______ _____ _____    ______ ____
ROOT
ATOM      7  C   UNL     1      -2.281  -0.798  25.399  0.00  0.00    +0.270 C 
ATOM      8  O   UNL     1      -2.600  -0.584  26.129  0.00  0.00    -0.268 OA
ATOM      9  N   UNL     1      -1.663  -0.360  25.074  0.00  0.00    -0.268 N 
ATOM     10  C   UNL     1      -1.385  -0.622  24.342  0.00  0.00    +0.126 C 
ATOM     11  C   UNL     1      -0.780  -0.306  23.879  0.00  0.00    +0.164 C 
ATOM     12  O   UNL     1      -0.302   0.349  24.032  0.00  0.00    -0.348 OA
ATOM     13  C   UNL     1      -0.312   0.850  24.688  0.00  0.00    +0.187 C 
ATOM     14  C   UNL     1      -0.803   0.820  25.351  0.00  0.00    +0.215 C 
ATOM     15  C   UNL     1      -1.403   0.281  25.522  0.00  0.00    +0.140 C 
ENDROOT
BRANCH   7   4
ATOM      1  C   UNL     1      -4.042  -2.530  23.871  0.00  0.00    +0.075 C 
ATOM      2  C   UNL     1      -3.391  -2.248  24.292  0.00  0.00    +0.155 A 
ATOM      3  C   UNL     1      -3.320  -1.497  24.627  0.00  0.00    +0.063 A 
ATOM      4  C   UNL     1      -2.582  -1.451  24.994  0.00  0.00    +0.176 A 
ATOM      5  N   UNL     1      -2.198  -2.173  24.886  0.00  0.00    -0.073 NA
ATOM      6  O   UNL     1      -2.699  -2.665  24.451  0.00  0.00    -0.358 OA
ENDBRANCH   7   4
BRANCH  14  16
ATOM     16  O   UNL     1      -0.675   1.406  25.918  0.00  0.00    -0.475 OA
BRANCH  16  17
ATOM     17  C   UNL     1      -0.840   2.195  25.739  0.00  0.00    +0.139 A 
ATOM     18  C   UNL     1      -0.227   2.709  25.538  0.00  0.00    +0.038 A 
ATOM     19  C   UNL     1      -0.392   3.497  25.360  0.00  0.00    +0.021 A 
ATOM     20  C   UNL     1      -1.170   3.772  25.382  0.00  0.00    +0.106 A 
ATOM     21  C   UNL     1      -1.783   3.257  25.584  0.00  0.00    +0.021 A 
ATOM     22  C   UNL     1      -1.617   2.469  25.762  0.00  0.00    +0.038 A 
BRANCH  20  23
ATOM     23  S   UNL     1      -1.335   4.560  25.204  0.00  0.00    +0.010 S 
ATOM     24  C   UNL     1      -1.499   5.348  25.025  0.00  0.00    +0.182 C 
ATOM     25  O   UNL     1      -0.658   4.594  24.733  0.00  0.00    -0.169 OA
ATOM     26  O   UNL     1      -2.011   4.526  25.674  0.00  0.00    -0.169 OA
ENDBRANCH  20  23
ENDBRANCH  16  17
ENDBRANCH  14  16
TORSDOF 4
ENDMDL
MODEL 3
REMARK VINA RESULT:      -9.8      1.930      5.285
REMARK  Name = 
REMARK  4 active torsions:
REMARK  status: ('A' for Active; 'I' for Inactive)
REMARK    1  A    between atoms: C_4  and  C_7
REMARK    2  A    between atoms: C_14  and  O_16
REMARK    3  A    between atoms: O_16  and  C_17
REMARK    4  A    between atoms: C_20  and  S_23
REMARK                            x       y       z     vdW  Elec       q    Type
REMARK                         _______ _______ _______ _____ _____    ______ ____
ROOT
ATOM      7  C   UNL     1      -3.962  -0.416  24.993  0.00  0.00    +0.270 C 
ATOM      8  O   UNL     1      -4.178  -0.283  25.778  0.00  0.00    -0.268 OA
ATOM      9  N   UNL     1      -3.750   0.218  24.511  0.00  0.00    -0.268 N 
ATOM     10  C   UNL     1      -3.543   0.026  23.735  0.00  0.00    +0.126 C 
ATOM     11  C   UNL     1      -3.308   0.528  23.125  0.00  0.00    +0.164 C 
ATOM     12  O   UNL     1      -3.221   1.349  23.138  0.00  0.00    -0.348 OA
ATOM     13  C   UNL     1      -3.347   1.869  23.767  0.00  0.00    +0.187 C 
ATOM     14  C   UNL     1      -3.592   1.696  24.536  0.00  0.00    +0.215 C 
ATOM     15  C   UNL     1      -3.771   0.962  24.866  0.00  0.00    +0.140 C 
ENDROOT
BRANCH   7   4
ATOM      1  C   UNL     1      -3.261  -3.194  24.517  0.00  0.00    +0.075 C 
ATOM      2  C   UNL     1      -3.637  -2.461  24.472  0.00  0.00    +0.155 A 
ATOM      3  C   UNL     1      -3.444  -1.789  24.911  0.00  0.00    +0.063 A 
ATOM      4  C   UNL     1      -3.959  -1.183  24.690  0.00  0.00    +0.176 A 
ATOM      5  N   UNL     1      -4.469  -1.480  24.114  0.00  0.00    -0.073 NA
ATOM      6  O   UNL     1      -4.270  -2.270  23.979  0.00  0.00    -0.358 OA
ENDBRANCH   7   4
BRANCH  14  16
ATOM     16  O   UNL     1      -3.668   2.345  25.041  0.00  0.00    -0.475 OA
BRANCH  16  17
ATOM     17  C   UNL     1      -3.087   2.929  25.051  0.00  0.00    +0.139 A 
ATOM     18  C   UNL     1      -3.219   3.649  24.670  0.00  0.00    +0.038 A 
ATOM     19  C   UNL     1      -2.637   4.234  24.680  0.00  0.00    +0.021 A 
ATOM     20  C   UNL     1      -1.922   4.099  25.071  0.00  0.00    +0.106 A 
ATOM     21  C   UNL     1      -1.791   3.379  25.452  0.00  0.00    +0.021 A 
ATOM     22  C   UNL     1      -2.373   2.795  25.442  0.00  0.00    +0.038 A 
BRANCH  20  23
ATOM     23  S   UNL     1      -1.341   4.684  25.081  0.00  0.00    +0.010 S 
ATOM     24  C   UNL     1      -0.759   5.268  25.091  0.00  0.00    +0.182 C 
ATOM     25  O   UNL     1      -0.819   4.171  24.699  0.00  0.00    -0.169 OA
ATOM     26  O   UNL     1      -1.862   5.197  25.464  0.00  0.00    -0.169 OA
ENDBRANCH  20  23
ENDBRANCH  16  17
ENDBRANCH  14  16
TORSDOF 4
ENDMDL
MODEL 4
REMARK VINA RESULT:      -9.6      2.614      4.504
REMARK  Name = 
REMARK  4 active torsions:
REMARK  status: ('A' for Active; 'I' for Inactive)
REMARK    1  A    between atoms: C_4  and  C_7
REMARK    2  A    between atoms: C_14  and  O_16
REMARK    3  A    between atoms: O_16  and  C_17
REMARK    4  A    between atoms: C_20  and  S_23
REMARK                            x       y       z     vdW  Elec       q    Type
REMARK                         _______ _______ _______ _____ _____    ______ ____
ROOT
ATOM      7  C   UNL     1      -1.222   0.864  24.177  0.00  0.00    +0.270 C 
ATOM      8  O   UNL     1      -1.796   0.886  23.584  0.00  0.00    -0.268 OA
ATOM      9  N   UNL     1      -1.092   1.526  24.650  0.00  0.00    -0.268 N 
ATOM     10  C   UNL     1      -0.506   1.446  25.226  0.00  0.00    +0.126 C 
ATOM     11  C   UNL     1      -0.248   2.001  25.779  0.00  0.00    +0.164 C 
ATOM     12  O   UNL     1      -0.512   2.774  25.894  0.00  0.00    -0.348 OA
ATOM     13  C   UNL     1      -1.100   3.183  25.484  0.00  0.00    +0.187 C 
ATOM     14  C   UNL     1      -1.569   2.919  24.857  0.00  0.00    +0.215 C 
ATOM     15  C   UNL     1      -1.564   2.182  24.487  0.00  0.00    +0.140 C 
ENDROOT
BRANCH   7   4
ATOM      1  C   UNL     1      -0.382  -1.757  25.104  0.00  0.00    +0.075 C 
ATOM      2  C   UNL     1      -0.392  -1.026  24.721  0.00  0.00    +0.155 A 
ATOM      3  C   UNL     1      -0.998  -0.467  24.760  0.00  0.00    +0.063 A 
ATOM      4  C   UNL     1      -0.778   0.179  24.295  0.00  0.00    +0.176 A 
ATOM      5  N   UNL     1      -0.037   0.018  23.969  0.00  0.00    -0.073 NA
ATOM      6  O   UNL     1       0.201  -0.726  24.233  0.00  0.00    -0.358 OA
ENDBRANCH   7   4
BRANCH  14  16
ATOM     16  O   UNL     1      -2.113   3.466  24.563  0.00  0.00    -0.475 OA
BRANCH  16  17
ATOM     17  C   UNL     1      -2.901   3.434  24.805  0.00  0.00    +0.139 A 
ATOM     18  C   UNL     1      -3.482   3.166  24.284  0.00  0.00    +0.038 A 
ATOM     19  C   UNL     1      -4.270   3.135  24.527  0.00  0.00    +0.021 A 
ATOM     20  C   UNL     1      -4.477   3.371  25.290  0.00  0.00    +0.106 A 
ATOM     21  C   UNL     1      -3.895   3.638  25.811  0.00  0.00    +0.021 A 
ATOM     22  C   UNL     1      -3.107   3.670  25.568  0.00  0.00    +0.038 A 
BRANCH  20  23
ATOM     23  S   UNL     1      -5.264   3.339  25.532  0.00  0.00    +0.010 S 
ATOM     24  C   UNL     1      -6.052   3.308  25.774  0.00  0.00    +0.182 C 
ATOM     25  O   UNL     1      -5.337   4.151  25.403  0.00  0.00    -0.169 OA
ATOM     26  O   UNL     1      -5.193   2.527  25.661  0.00  0.00    -0.169 OA
ENDBRANCH  20  23
ENDBRANCH  16  17
ENDBRANCH  14  16
TORSDOF 4
ENDMDL
