MODEL 1
REMARK VINA RESULT:     -11.7      0.000      0.000
REMARK  Name = 
REMARK  6 active torsions:
REMARK  status: ('A' for Active; 'I' for Inactive)
REMARK    1  A    between atoms: C_8  and  C_10
REMARK    2  A    between atoms: C_10  and  C_11
REMARK    3  A    between atoms: C_11  and  C_12
REMARK    4  A    between atoms: C_19  and  N_22
REMARK    5  A    between atoms: N_22  and  C_23
REMARK    6  A    between atoms: C_23  and  C_24
REMARK                            x       y       z     vdW  Elec       q    Type
REMARK                         _______ _______ _______ _____ _____    ______ ____
ROOT
ATOM     12  C   UNL     1      -4.822   1.578  24.916  0.00  0.00    +0.080 C 
ATOM     13  C   UNL     1      -5.556   1.386  25.239  0.00  0.00    +0.131 C 
ATOM     14  N   UNL     1      -5.966   1.940  25.692  0.00  0.00    -0.203 NA
ATOM     15  C   UNL     1      -5.642   2.687  25.820  0.00  0.00    +0.256 C 
ATOM     16  O   UNL     1      -6.053   3.243  26.274  0.00  0.00    -0.272 OA
ATOM     17  C   UNL     1      -4.908   2.881  25.497  0.00  0.00    +0.138 C 
ATOM     18  C   UNL     1      -4.454   3.569  25.530  0.00  0.00    +0.044 C 
ATOM     19  C   UNL     1      -3.764   3.440  25.098  0.00  0.00    +0.091 C 
ATOM     20  C   UNL     1      -3.791   2.671  24.798  0.00  0.00    +0.090 C 
ATOM     21  N   UNL     1      -4.498   2.326  25.045  0.00  0.00    -0.265 NA
ENDROOT
BRANCH  12  11
ATOM     11  C   UNL     1      -4.412   1.024  24.464  0.00  0.00    +0.027 C 
BRANCH  11  10
ATOM     10  C   UNL     1      -4.351   0.243  24.723  0.00  0.00    +0.087 C 
BRANCH  10   8
ATOM      1  O   UNL     1      -3.093  -3.258  25.398  0.00  0.00    -0.223 OA
ATOM      2  C   UNL     1      -3.341  -2.529  25.101  0.00  0.00    +0.155 C 
ATOM      3  C   UNL     1      -3.608  -1.942  25.616  0.00  0.00    +0.054 C 
ATOM      4  C   UNL     1      -3.856  -1.214  25.318  0.00  0.00    +0.096 C 
ATOM      5  N   UNL     1      -3.837  -1.072  24.506  0.00  0.00    -0.279 N 
ATOM      6  C   UNL     1      -3.570  -1.659  23.991  0.00  0.00    +0.096 C 
ATOM      7  C   UNL     1      -3.322  -2.387  24.288  0.00  0.00    +0.054 C 
ATOM      8  C   UNL     1      -4.085  -0.343  24.208  0.00  0.00    +0.226 C 
ATOM      9  O   UNL     1      -4.066  -0.202  23.396  0.00  0.00    -0.275 OA
ENDBRANCH  10   8
ENDBRANCH  11  10
ENDBRANCH  12  11
BRANCH  19  22
ATOM     22  N   UNL     1      -3.153   3.983  24.986  0.00  0.00    -0.213 NA
BRANCH  22  23
ATOM     23  C   UNL     1      -2.477   3.947  25.457  0.00  0.00    +0.115 C 
BRANCH  23  24
ATOM     24  C   UNL     1      -1.789   4.337  25.222  0.00  0.00    -0.005 A 
ATOM     25  C   UNL     1      -1.117   3.904  25.023  0.00  0.00    -0.003 A 
ATOM     26  C   UNL     1      -0.429   4.294  24.788  0.00  0.00    -0.000 A 
ATOM     27  C   UNL     1      -0.413   5.118  24.752  0.00  0.00    -0.000 A 
ATOM     28  C   UNL     1      -1.086   5.551  24.952  0.00  0.00    -0.000 A 
ATOM     29  C   UNL     1      -1.774   5.161  25.186  0.00  0.00    -0.003 A 
ENDBRANCH  23  24
ENDBRANCH  22  23
ENDBRANCH  19  22
TORSDOF 6
ENDMDL
MODEL 2
REMARK VINA RESULT:     -11.7      1.805      4.899
REMARK  Name = 
REMARK  6 active torsions:
REMARK  status: ('A' for Active; 'I' for Inactive)
REMARK    1  A    between atoms: C_8  and  C_10
REMARK    2  A    between atoms: C_10  and  C_11
REMARK    3  A    between atoms: C_11  and  C_12
REMARK    4  A    between atoms: C_19  and  N_22
REMARK    5  A    between atoms: N_22  and  C_23
REMARK    6  A    between atoms: C_23  and  C_24
REMARK                            x       y       z     vdW  Elec       q    Type
REMARK                         _______ _______ _______ _____ _____    ______ ____
ROOT
ATOM     12  C   UNL     1      -4.035   2.812  24.908  0.00  0.00    +0.080 C 
ATOM     13  C   UNL     1      -4.439   3.447  25.246  0.00  0.00    +0.131 C 
ATOM     14  N   UNL     1      -5.169   3.325  25.610  0.00  0.00    -0.203 NA
ATOM     15  C   UNL     1      -5.495   2.569  25.637  0.00  0.00    +0.256 C 
ATOM     16  O   UNL     1      -6.226   2.447  26.002  0.00  0.00    -0.272 OA
ATOM     17  C   UNL     1      -5.092   1.932  25.300  0.00  0.00    +0.138 C 
ATOM     18  C   UNL     1      -5.275   1.131  25.243  0.00  0.00    +0.044 C 
ATOM     19  C   UNL     1      -4.658   0.756  24.843  0.00  0.00    +0.091 C 
ATOM     20  C   UNL     1      -4.094   1.328  24.653  0.00  0.00    +0.090 C 
ATOM     21  N   UNL     1      -4.362   2.054  24.936  0.00  0.00    -0.265 NA
ENDROOT
BRANCH  12  11
ATOM     11  C   UNL     1      -3.306   2.934  24.544  0.00  0.00    +0.027 C 
BRANCH  11  10
ATOM     10  C   UNL     1      -2.656   3.173  24.992  0.00  0.00    +0.087 C 
BRANCH  10   8
ATOM      1  O   UNL     1       0.770   2.535  26.458  0.00  0.00    -0.223 OA
ATOM      2  C   UNL     1       0.101   2.702  26.006  0.00  0.00    +0.155 C 
ATOM      3  C   UNL     1      -0.648   2.671  26.350  0.00  0.00    +0.054 C 
ATOM      4  C   UNL     1      -1.317   2.838  25.897  0.00  0.00    +0.096 C 
ATOM      5  N   UNL     1      -1.238   3.037  25.101  0.00  0.00    -0.279 N 
ATOM      6  C   UNL     1      -0.489   3.069  24.757  0.00  0.00    +0.096 C 
ATOM      7  C   UNL     1       0.181   2.902  25.208  0.00  0.00    +0.054 C 
ATOM      8  C   UNL     1      -1.907   3.205  24.648  0.00  0.00    +0.226 C 
ATOM      9  O   UNL     1      -1.827   3.404  23.852  0.00  0.00    -0.275 OA
ENDBRANCH  10   8
ENDBRANCH  11  10
ENDBRANCH  12  11
BRANCH  19  22
ATOM     22  N   UNL     1      -4.614  -0.048  24.664  0.00  0.00    -0.213 NA
BRANCH  22  23
ATOM     23  C   UNL     1      -3.888  -0.438  24.695  0.00  0.00    +0.115 C 
BRANCH  23  24
ATOM     24  C   UNL     1      -3.852  -1.254  24.581  0.00  0.00    -0.005 A 
ATOM     25  C   UNL     1      -4.189  -1.591  23.909  0.00  0.00    -0.003 A 
ATOM     26  C   UNL     1      -4.153  -2.408  23.795  0.00  0.00    -0.000 A 
ATOM     27  C   UNL     1      -3.781  -2.887  24.354  0.00  0.00    -0.000 A 
ATOM     28  C   UNL     1      -3.445  -2.549  25.027  0.00  0.00    -0.000 A 
ATOM     29  C   UNL     1      -3.480  -1.732  25.140  0.00  0.00    -0.003 A 
ENDBRANCH  23  24
ENDBRANCH  22  23
ENDBRANCH  19  22
TORSDOF 6
ENDMDL
MODEL 3
REMARK VINA RESULT:     -10.5      2.488      6.022
REMARK  Name = 
REMARK  6 active torsions:
REMARK  status: ('A' for Active; 'I' for Inactive)
REMARK    1  A    between atoms: C_8  and  C_10
REMARK    2  A    between atoms: C_10  and  C_11
REMARK    3  A    between atoms: C_11  and  C_12
REMARK    4  A    between atoms: C_19  and  N_22
REMARK    5  A    between atoms: N_22  and  C_23
REMARK    6  A    between atoms: C_23  and  C_24
REMARK                            x       y       z     vdW  Elec       q    Type
REMARK                         _______ _______ _______ _____ _____    ______ ____
ROOT
ATOM     12  C   UNL     1      -0.399   1.493  24.793  0.00  0.00    +0.080 C 
ATOM     13  C   UNL     1       0.256   1.833  24.426  0.00  0.00    +0.131 C 
ATOM     14  N   UNL     1       0.698   1.397  23.884  0.00  0.00    -0.203 NA
ATOM     15  C   UNL     1       0.486   0.619  23.709  0.00  0.00    +0.256 C 
ATOM     16  O   UNL     1       0.929   0.182  23.167  0.00  0.00    -0.272 OA
ATOM     17  C   UNL     1      -0.169   0.277  24.077  0.00  0.00    +0.138 C 
ATOM     18  C   UNL     1      -0.508  -0.472  24.015  0.00  0.00    +0.044 C 
ATOM     19  C   UNL     1      -1.160  -0.498  24.519  0.00  0.00    +0.091 C 
ATOM     20  C   UNL     1      -1.225   0.235  24.892  0.00  0.00    +0.090 C 
ATOM     21  N   UNL     1      -0.612   0.714  24.619  0.00  0.00    -0.265 NA
ENDROOT
BRANCH  12  11
ATOM     11  C   UNL     1      -0.842   1.929  25.335  0.00  0.00    +0.027 C 
BRANCH  11  10
ATOM     10  C   UNL     1      -1.309   2.557  25.076  0.00  0.00    +0.087 C 
BRANCH  10   8
ATOM      1  O   UNL     1      -4.778   4.058  25.156  0.00  0.00    -0.223 OA
ATOM      2  C   UNL     1      -4.001   3.808  25.273  0.00  0.00    +0.155 C 
ATOM      3  C   UNL     1      -3.642   3.306  24.725  0.00  0.00    +0.054 C 
ATOM      4  C   UNL     1      -2.864   3.057  24.842  0.00  0.00    +0.096 C 
ATOM      5  N   UNL     1      -2.445   3.308  25.506  0.00  0.00    -0.279 N 
ATOM      6  C   UNL     1      -2.804   3.810  26.054  0.00  0.00    +0.096 C 
ATOM      7  C   UNL     1      -3.582   4.060  25.938  0.00  0.00    +0.054 C 
ATOM      8  C   UNL     1      -1.668   3.059  25.624  0.00  0.00    +0.226 C 
ATOM      9  O   UNL     1      -1.249   3.310  26.288  0.00  0.00    -0.275 OA
ENDBRANCH  10   8
ENDBRANCH  11  10
ENDBRANCH  12  11
BRANCH  19  22
ATOM     22  N   UNL     1      -1.661  -1.144  24.630  0.00  0.00    -0.213 NA
BRANCH  22  23
ATOM     23  C   UNL     1      -2.464  -1.024  24.778  0.00  0.00    +0.115 C 
BRANCH  23  24
ATOM     24  C   UNL     1      -3.013  -1.604  24.573  0.00  0.00    -0.005 A 
ATOM     25  C   UNL     1      -3.664  -1.408  24.107  0.00  0.00    -0.003 A 
ATOM     26  C   UNL     1      -4.214  -1.988  23.901  0.00  0.00    -0.000 A 
ATOM     27  C   UNL     1      -4.112  -2.764  24.161  0.00  0.00    -0.000 A 
ATOM     28  C   UNL     1      -3.460  -2.960  24.627  0.00  0.00    -0.000 A 
ATOM     29  C   UNL     1      -2.911  -2.380  24.833  0.00  0.00    -0.003 A 
ENDBRANCH  23  24
ENDBRANCH  22  23
ENDBRANCH  19  22
TORSDOF 6
ENDMDL
MODEL 4
REMARK VINA RESULT:      -9.8      2.617      3.883
REMARK  Name = 
REMARK  6 active torsions:
REMARK  status: ('A' for Active; 'I' for Inactive)
REMARK    1  A    between atoms: C_8  and  C_10
REMARK    2  A    between atoms: C_10  and  C_11
REMARK    3  A    between atoms: C_11  and  C_12
REMARK    4  A    between atoms: C_19  and  N_22
REMARK    5  A    between atoms: N_22  and  C_23
REMARK    6  A    between atoms: C_23  and  C_24
REMARK                            x       y       z     vdW  Elec       q    Type
REMARK                         _______ _______ _______ _____ _____    ______ ____
ROOT
ATOM     12  C   UNL     1      -0.358  -0.106  24.489  0.00  0.00    +0.080 C 
ATOM     13  C   UNL     1       0.116  -0.683  24.138  0.00  0.00    +0.131 C 
ATOM     14  N   UNL     1       0.723  -0.463  23.624  0.00  0.00    -0.203 NA
ATOM     15  C   UNL     1       0.856   0.334  23.461  0.00  0.00    +0.256 C 
ATOM     16  O   UNL     1       1.464   0.554  22.946  0.00  0.00    -0.272 OA
ATOM     17  C   UNL     1       0.383   0.912  23.811  0.00  0.00    +0.138 C 
ATOM     18  C   UNL     1       0.384   1.735  23.755  0.00  0.00    +0.044 C 
ATOM     19  C   UNL     1      -0.222   2.024  24.234  0.00  0.00    +0.091 C 
ATOM     20  C   UNL     1      -0.598   1.379  24.586  0.00  0.00    +0.090 C 
ATOM     21  N   UNL     1      -0.224   0.692  24.325  0.00  0.00    -0.265 NA
ENDROOT
BRANCH  12  11
ATOM     11  C   UNL     1      -0.964  -0.325  25.002  0.00  0.00    +0.027 C 
BRANCH  11  10
ATOM     10  C   UNL     1      -1.357  -1.042  24.894  0.00  0.00    +0.087 C 
BRANCH  10   8
ATOM      1  O   UNL     1      -4.279  -3.315  24.123  0.00  0.00    -0.223 OA
ATOM      2  C   UNL     1      -3.719  -2.788  24.423  0.00  0.00    +0.155 C 
ATOM      3  C   UNL     1      -3.035  -2.623  23.992  0.00  0.00    +0.054 C 
ATOM      4  C   UNL     1      -2.476  -2.096  24.293  0.00  0.00    +0.096 C 
ATOM      5  N   UNL     1      -2.600  -1.734  25.023  0.00  0.00    -0.279 N 
ATOM      6  C   UNL     1      -3.284  -1.899  25.454  0.00  0.00    +0.096 C 
ATOM      7  C   UNL     1      -3.844  -2.426  25.154  0.00  0.00    +0.054 C 
ATOM      8  C   UNL     1      -2.041  -1.207  25.324  0.00  0.00    +0.226 C 
ATOM      9  O   UNL     1      -2.166  -0.845  26.054  0.00  0.00    -0.275 OA
ENDBRANCH  10   8
ENDBRANCH  11  10
ENDBRANCH  12  11
BRANCH  19  22
ATOM     22  N   UNL     1      -0.418   2.818  24.341  0.00  0.00    -0.213 NA
BRANCH  22  23
ATOM     23  C   UNL     1      -0.692   3.080  25.074  0.00  0.00    +0.115 C 
BRANCH  23  24
ATOM     24  C   UNL     1      -1.052   3.819  25.140  0.00  0.00    -0.005 A 
ATOM     25  C   UNL     1      -0.662   4.493  24.870  0.00  0.00    -0.003 A 
ATOM     26  C   UNL     1      -1.023   5.232  24.937  0.00  0.00    -0.000 A 
ATOM     27  C   UNL     1      -1.773   5.297  25.273  0.00  0.00    -0.000 A 
ATOM     28  C   UNL     1      -2.163   4.622  25.543  0.00  0.00    -0.000 A 
ATOM     29  C   UNL     1      -1.802   3.883  25.476  0.00  0.00    -0.003 A 
ENDBRANCH  23  24
ENDBRANCH  22  23
ENDBRANCH  19  22
TORSDOF 6
ENDMDL
MODEL 5
REMARK VINA RESULT:      -9.8      2.886      4.928
REMARK  Name = 
REMARK  6 active torsions:
REMARK  status: ('A' for Active; 'I' for Inactive)
REMARK    1  A    between atoms: C_8  and  C_10
REMARK    2  A    between atoms: C_10  and  C_11
REMARK    3  A    between atoms: C_11  and  C_12
REMARK    4  A    between atoms: C_19  and  N_22
REMARK    5  A    between atoms: N_22  and  C_23
REMARK    6  A    between atoms: C_23  and  C_24
REMARK                            x       y       z     vdW  Elec       q    Type
REMARK                         _______ _______ _______ _____ _____    ______ ____
ROOT
ATOM     12  C   UNL     1      -1.890  -1.050  24.759  0.00  0.00    +0.080 C 
ATOM     13  C   UNL     1      -1.690  -1.831  24.585  0.00  0.00    +0.131 C 
ATOM     14  N   UNL     1      -2.280  -2.404  24.523  0.00  0.00    -0.203 NA
ATOM     15  C   UNL     1      -3.070  -2.197  24.635  0.00  0.00    +0.256 C 
ATOM     16  O   UNL     1      -3.660  -2.771  24.572  0.00  0.00    -0.272 OA
ATOM     17  C   UNL     1      -3.271  -1.416  24.809  0.00  0.00    +0.138 C 
ATOM     18  C   UNL     1      -3.997  -1.051  24.946  0.00  0.00    +0.044 C 
ATOM     19  C   UNL     1      -3.857  -0.251  25.093  0.00  0.00    +0.091 C 
ATOM     20  C   UNL     1      -3.043  -0.123  25.047  0.00  0.00    +0.090 C 
ATOM     21  N   UNL     1      -2.681  -0.842  24.871  0.00  0.00    -0.265 NA
ENDROOT
BRANCH  12  11
ATOM     11  C   UNL     1      -1.301  -0.477  24.821  0.00  0.00    +0.027 C 
BRANCH  11  10
ATOM     10  C   UNL     1      -0.683  -0.459  24.275  0.00  0.00    +0.087 C 
BRANCH  10   8
ATOM      1  O   UNL     1       2.383   0.187  22.160  0.00  0.00    -0.223 OA
ATOM      2  C   UNL     1       1.751   0.181  22.690  0.00  0.00    +0.155 C 
ATOM      3  C   UNL     1       1.213  -0.444  22.684  0.00  0.00    +0.054 C 
ATOM      4  C   UNL     1       0.581  -0.449  23.215  0.00  0.00    +0.096 C 
ATOM      5  N   UNL     1       0.487   0.171  23.750  0.00  0.00    -0.279 N 
ATOM      6  C   UNL     1       1.025   0.796  23.756  0.00  0.00    +0.096 C 
ATOM      7  C   UNL     1       1.657   0.802  23.226  0.00  0.00    +0.054 C 
ATOM      8  C   UNL     1      -0.145   0.167  24.281  0.00  0.00    +0.226 C 
ATOM      9  O   UNL     1      -0.239   0.786  24.816  0.00  0.00    -0.275 OA
ENDBRANCH  10   8
ENDBRANCH  11  10
ENDBRANCH  12  11
BRANCH  19  22
ATOM     22  N   UNL     1      -4.430   0.319  25.258  0.00  0.00    -0.213 NA
BRANCH  22  23
ATOM     23  C   UNL     1      -4.537   0.957  24.746  0.00  0.00    +0.115 C 
BRANCH  23  24
ATOM     24  C   UNL     1      -4.926   1.636  25.007  0.00  0.00    -0.005 A 
ATOM     25  C   UNL     1      -4.563   2.372  24.934  0.00  0.00    -0.003 A 
ATOM     26  C   UNL     1      -4.952   3.051  25.195  0.00  0.00    -0.000 A 
ATOM     27  C   UNL     1      -5.704   2.994  25.529  0.00  0.00    -0.000 A 
ATOM     28  C   UNL     1      -6.067   2.256  25.601  0.00  0.00    -0.000 A 
ATOM     29  C   UNL     1      -5.678   1.577  25.340  0.00  0.00    -0.003 A 
ENDBRANCH  23  24
ENDBRANCH  22  23
ENDBRANCH  19  22
TORSDOF 6
ENDMDL
MODEL 6
REMARK VINA RESULT:      -9.7      2.164      5.455
REMARK  Name = 
REMARK  6 active torsions:
REMARK  status: ('A' for Active; 'I' for Inactive)
REMARK    1  A    between atoms: C_8  and  C_10
REMARK    2  A    between atoms: C_10  and  C_11
REMARK    3  A    between atoms: C_11  and  C_12
REMARK    4  A    between atoms: C_19  and  N_22
REMARK    5  A    between atoms: N_22  and  C_23
REMARK    6  A    between atoms: C_23  and  C_24
REMARK                            x       y       z     vdW  Elec       q    Type
REMARK                         _______ _______ _______ _____ _____    ______ ____
ROOT
ATOM     12  C   UNL     1      -1.467   2.272  24.016  0.00  0.00    +0.080 C 
ATOM     13  C   UNL     1      -0.930   2.890  24.110  0.00  0.00    +0.131 C 
ATOM     14  N   UNL     1      -0.160   2.734  24.364  0.00  0.00    -0.203 NA
ATOM     15  C   UNL     1       0.071   1.960  24.525  0.00  0.00    +0.256 C 
ATOM     16  O   UNL     1       0.842   1.804  24.779  0.00  0.00    -0.272 OA
ATOM     17  C   UNL     1      -0.465   1.340  24.431  0.00  0.00    +0.138 C 
ATOM     18  C   UNL     1      -0.395   0.527  24.547  0.00  0.00    +0.044 C 
ATOM     19  C   UNL     1      -1.120   0.179  24.364  0.00  0.00    +0.091 C 
ATOM     20  C   UNL     1      -1.639   0.779  24.135  0.00  0.00    +0.090 C 
ATOM     21  N   UNL     1      -1.234   1.496  24.177  0.00  0.00    -0.265 NA
ENDROOT
BRANCH  12  11
ATOM     11  C   UNL     1      -2.235   2.427  23.762  0.00  0.00    +0.027 C 
BRANCH  11  10
ATOM     10  C   UNL     1      -2.738   2.888  24.227  0.00  0.00    +0.087 C 
BRANCH  10   8
ATOM      1  O   UNL     1      -5.801   3.259  26.411  0.00  0.00    -0.223 OA
ATOM      2  C   UNL     1      -5.235   3.183  25.817  0.00  0.00    +0.155 C 
ATOM      3  C   UNL     1      -4.436   3.118  26.013  0.00  0.00    +0.054 C 
ATOM      4  C   UNL     1      -3.870   3.041  25.417  0.00  0.00    +0.096 C 
ATOM      5  N   UNL     1      -4.103   3.029  24.626  0.00  0.00    -0.279 N 
ATOM      6  C   UNL     1      -4.901   3.095  24.430  0.00  0.00    +0.096 C 
ATOM      7  C   UNL     1      -5.468   3.171  25.025  0.00  0.00    +0.054 C 
ATOM      8  C   UNL     1      -3.537   2.953  24.030  0.00  0.00    +0.226 C 
ATOM      9  O   UNL     1      -3.769   2.941  23.239  0.00  0.00    -0.275 OA
ENDBRANCH  10   8
ENDBRANCH  11  10
ENDBRANCH  12  11
BRANCH  19  22
ATOM     22  N   UNL     1      -1.296  -0.626  24.402  0.00  0.00    -0.213 NA
BRANCH  22  23
ATOM     23  C   UNL     1      -1.762  -0.918  25.017  0.00  0.00    +0.115 C 
BRANCH  23  24
ATOM     24  C   UNL     1      -2.224  -1.591  24.901  0.00  0.00    -0.005 A 
ATOM     25  C   UNL     1      -1.895  -2.262  24.554  0.00  0.00    -0.003 A 
ATOM     26  C   UNL     1      -2.358  -2.935  24.438  0.00  0.00    -0.000 A 
ATOM     27  C   UNL     1      -3.149  -2.937  24.670  0.00  0.00    -0.000 A 
ATOM     28  C   UNL     1      -3.478  -2.265  25.018  0.00  0.00    -0.000 A 
ATOM     29  C   UNL     1      -3.015  -1.592  25.134  0.00  0.00    -0.003 A 
ENDBRANCH  23  24
ENDBRANCH  22  23
ENDBRANCH  19  22
TORSDOF 6
ENDMDL
MODEL 7
REMARK VINA RESULT:      -9.6      2.334      4.108
REMARK  Name = 
REMARK  6 active torsions:
REMARK  status: ('A' for Active; 'I' for Inactive)
REMARK    1  A    between atoms: C_8  and  C_10
REMARK    2  A    between atoms: C_10  and  C_11
REMARK    3  A    between atoms: C_11  and  C_12
REMARK    4  A    between atoms: C_19  and  N_22
REMARK    5  A    between atoms: N_22  and  C_23
REMARK    6  A    between atoms: C_23  and  C_24
REMARK                            x       y       z     vdW  Elec       q    Type
REMARK                         _______ _______ _______ _____ _____    ______ ____
ROOT
ATOM     12  C   UNL     1      -1.003   2.993  24.344  0.00  0.00    +0.080 C 
ATOM     13  C   UNL     1      -0.360   3.497  24.461  0.00  0.00    +0.131 C 
ATOM     14  N   UNL     1      -0.474   4.239  24.804  0.00  0.00    -0.203 NA
ATOM     15  C   UNL     1      -1.231   4.477  25.030  0.00  0.00    +0.256 C 
ATOM     16  O   UNL     1      -1.345   5.219  25.373  0.00  0.00    -0.272 OA
ATOM     17  C   UNL     1      -1.874   3.973  24.914  0.00  0.00    +0.138 C 
ATOM     18  C   UNL     1      -2.677   4.057  25.080  0.00  0.00    +0.044 C 
ATOM     19  C   UNL     1      -3.060   3.367  24.840  0.00  0.00    +0.091 C 
ATOM     20  C   UNL     1      -2.493   2.856  24.525  0.00  0.00    +0.090 C 
ATOM     21  N   UNL     1      -1.760   3.231  24.571  0.00  0.00    -0.265 NA
ENDROOT
BRANCH  12  11
ATOM     11  C   UNL     1      -0.889   2.252  24.002  0.00  0.00    +0.027 C 
BRANCH  11  10
ATOM     10  C   UNL     1      -0.527   1.649  24.433  0.00  0.00    +0.087 C 
BRANCH  10   8
ATOM      1  O   UNL     1      -0.787  -1.965  25.512  0.00  0.00    -0.223 OA
ATOM      2  C   UNL     1      -0.663  -1.235  25.149  0.00  0.00    +0.155 C 
ATOM      3  C   UNL     1      -0.898  -0.540  25.527  0.00  0.00    +0.054 C 
ATOM      4  C   UNL     1      -0.774   0.189  25.162  0.00  0.00    +0.096 C 
ATOM      5  N   UNL     1      -0.417   0.225  24.420  0.00  0.00    -0.279 N 
ATOM      6  C   UNL     1      -0.182  -0.470  24.042  0.00  0.00    +0.096 C 
ATOM      7  C   UNL     1      -0.305  -1.200  24.406  0.00  0.00    +0.054 C 
ATOM      8  C   UNL     1      -0.293   0.954  24.055  0.00  0.00    +0.226 C 
ATOM      9  O   UNL     1       0.065   0.990  23.313  0.00  0.00    -0.275 OA
ENDBRANCH  10   8
ENDBRANCH  11  10
ENDBRANCH  12  11
BRANCH  19  22
ATOM     22  N   UNL     1      -3.868   3.213  24.904  0.00  0.00    -0.213 NA
BRANCH  22  23
ATOM     23  C   UNL     1      -4.132   2.552  25.321  0.00  0.00    +0.115 C 
BRANCH  23  24
ATOM     24  C   UNL     1      -4.933   2.357  25.323  0.00  0.00    -0.005 A 
ATOM     25  C   UNL     1      -5.454   2.758  25.820  0.00  0.00    -0.003 A 
ATOM     26  C   UNL     1      -6.255   2.564  25.822  0.00  0.00    -0.000 A 
ATOM     27  C   UNL     1      -6.537   1.968  25.327  0.00  0.00    -0.000 A 
ATOM     28  C   UNL     1      -6.015   1.566  24.829  0.00  0.00    -0.000 A 
ATOM     29  C   UNL     1      -5.214   1.761  24.827  0.00  0.00    -0.003 A 
ENDBRANCH  23  24
ENDBRANCH  22  23
ENDBRANCH  19  22
TORSDOF 6
ENDMDL
MODEL 8
REMARK VINA RESULT:      -9.6      2.084      3.661
REMARK  Name = 
REMARK  6 active torsions:
REMARK  status: ('A' for Active; 'I' for Inactive)
REMARK    1  A    between atoms: C_8  and  C_10
REMARK    2  A    between atoms: C_10  and  C_11
REMARK    3  A    between atoms: C_11  and  C_12
REMARK    4  A    between atoms: C_19  and  N_22
REMARK    5  A    between atoms: N_22  and  C_23
REMARK    6  A    between atoms: C_23  and  C_24
REMARK                            x       y       z     vdW  Elec       q    Type
REMARK                         _______ _______ _______ _____ _____    ______ ____
ROOT
ATOM     12  C   UNL     1      -0.903   0.911  24.916  0.00  0.00    +0.080 C 
ATOM     13  C   UNL     1      -0.131   0.940  24.628  0.00  0.00    +0.131 C 
ATOM     14  N   UNL     1       0.182   1.653  24.354  0.00  0.00    -0.203 NA
ATOM     15  C   UNL     1      -0.279   2.337  24.369  0.00  0.00    +0.256 C 
ATOM     16  O   UNL     1       0.034   3.050  24.095  0.00  0.00    -0.272 OA
ATOM     17  C   UNL     1      -1.052   2.309  24.656  0.00  0.00    +0.138 C 
ATOM     18  C   UNL     1      -1.632   2.889  24.738  0.00  0.00    +0.044 C 
ATOM     19  C   UNL     1      -2.303   2.535  25.061  0.00  0.00    +0.091 C 
ATOM     20  C   UNL     1      -2.137   1.735  25.180  0.00  0.00    +0.090 C 
ATOM     21  N   UNL     1      -1.364   1.596  24.930  0.00  0.00    -0.265 NA
ENDROOT
BRANCH  12  11
ATOM     11  C   UNL     1      -1.215   0.199  25.189  0.00  0.00    +0.027 C 
BRANCH  11  10
ATOM     10  C   UNL     1      -1.505  -0.358  24.654  0.00  0.00    +0.087 C 
BRANCH  10   8
ATOM      1  O   UNL     1      -4.427  -2.647  23.936  0.00  0.00    -0.223 OA
ATOM      2  C   UNL     1      -3.736  -2.267  24.177  0.00  0.00    +0.155 C 
ATOM      3  C   UNL     1      -3.580  -1.496  23.928  0.00  0.00    +0.054 C 
ATOM      4  C   UNL     1      -2.888  -1.117  24.170  0.00  0.00    +0.096 C 
ATOM      5  N   UNL     1      -2.353  -1.508  24.661  0.00  0.00    -0.279 N 
ATOM      6  C   UNL     1      -2.509  -2.278  24.910  0.00  0.00    +0.096 C 
ATOM      7  C   UNL     1      -3.200  -2.658  24.669  0.00  0.00    +0.054 C 
ATOM      8  C   UNL     1      -1.661  -1.129  24.903  0.00  0.00    +0.226 C 
ATOM      9  O   UNL     1      -1.126  -1.519  25.394  0.00  0.00    -0.275 OA
ENDBRANCH  10   8
ENDBRANCH  11  10
ENDBRANCH  12  11
BRANCH  19  22
ATOM     22  N   UNL     1      -3.015   2.914  25.236  0.00  0.00    -0.213 NA
BRANCH  22  23
ATOM     23  C   UNL     1      -3.668   2.812  24.743  0.00  0.00    +0.115 C 
BRANCH  23  24
ATOM     24  C   UNL     1      -4.430   2.920  25.039  0.00  0.00    -0.005 A 
ATOM     25  C   UNL     1      -4.977   2.304  25.004  0.00  0.00    -0.003 A 
ATOM     26  C   UNL     1      -5.739   2.413  25.301  0.00  0.00    -0.000 A 
ATOM     27  C   UNL     1      -5.954   3.137  25.633  0.00  0.00    -0.000 A 
ATOM     28  C   UNL     1      -5.407   3.752  25.667  0.00  0.00    -0.000 A 
ATOM     29  C   UNL     1      -4.644   3.644  25.371  0.00  0.00    -0.003 A 
ENDBRANCH  23  24
ENDBRANCH  22  23
ENDBRANCH  19  22
TORSDOF 6
ENDMDL
