MODEL 1
REMARK VINA RESULT:     -12.7      0.000      0.000
REMARK  Name = 
REMARK  6 active torsions:
REMARK  status: ('A' for Active; 'I' for Inactive)
REMARK    1  A    between atoms: C_5  and  C_6
REMARK    2  A    between atoms: C_6  and  C_7
REMARK    3  A    between atoms: N_12  and  C_15
REMARK    4  A    between atoms: C_23  and  C_24
REMARK    5  A    between atoms: C_24  and  N_25
REMARK    6  A    between atoms: C_26  and  C_28
REMARK                            x       y       z     vdW  Elec       q    Type
REMARK                         _______ _______ _______ _____ _____    ______ ____
ROOT
ATOM      1  O   UNL     1      -0.815   4.480  24.627  0.00  0.00    -0.218 OA
ATOM      2  C   UNL     1      -0.994   3.678  24.700  0.00  0.00    +0.213 C 
ATOM      3  C   UNL     1      -0.455   3.055  24.657  0.00  0.00    +0.212 C 
ATOM      4  O   UNL     1       0.357   3.124  24.532  0.00  0.00    -0.218 OA
ATOM      5  C   UNL     1      -0.871   2.350  24.760  0.00  0.00    +0.157 C 
ATOM     22  O   UNL     1      -1.667   2.538  24.867  0.00  0.00    -0.351 OA
ATOM     23  C   UNL     1      -1.743   3.358  24.830  0.00  0.00    +0.170 C 
ENDROOT
BRANCH   5   6
ATOM      6  C   UNL     1      -0.548   1.591  24.756  0.00  0.00    +0.117 C 
BRANCH   6   7
ATOM      7  C   UNL     1      -0.747   1.056  25.352  0.00  0.00    +0.228 C 
ATOM      8  O   UNL     1      -0.482   1.178  26.123  0.00  0.00    -0.275 OA
ATOM      9  N   UNL     1      -1.213   0.398  25.175  0.00  0.00    -0.276 N 
ATOM     10  C   UNL     1      -1.413  -0.137  25.770  0.00  0.00    +0.115 C 
ATOM     11  C   UNL     1      -1.878  -0.795  25.594  0.00  0.00    +0.112 C 
ATOM     12  N   UNL     1      -2.143  -0.918  24.822  0.00  0.00    -0.304 N 
ATOM     13  C   UNL     1      -1.943  -0.383  24.227  0.00  0.00    +0.112 C 
ATOM     14  C   UNL     1      -1.478   0.275  24.403  0.00  0.00    +0.115 C 
BRANCH  12  15
ATOM     15  C   UNL     1      -2.608  -1.576  24.646  0.00  0.00    +0.048 A 
ATOM     16  C   UNL     1      -3.409  -1.481  24.472  0.00  0.00    +0.017 A 
ATOM     17  C   UNL     1      -3.874  -2.139  24.296  0.00  0.00    +0.031 A 
ATOM     18  C   UNL     1      -3.538  -2.893  24.294  0.00  0.00    +0.140 A 
ATOM     19  F   UNL     1      -4.003  -3.551  24.118  0.00  0.00    -0.204 F 
ATOM     20  C   UNL     1      -2.737  -2.988  24.469  0.00  0.00    +0.031 A 
ATOM     21  C   UNL     1      -2.272  -2.330  24.645  0.00  0.00    +0.017 A 
ENDBRANCH  12  15
ENDBRANCH   6   7
ENDBRANCH   5   6
BRANCH  23  24
ATOM     24  C   UNL     1      -2.446   3.784  24.909  0.00  0.00    +0.148 C 
BRANCH  24  25
ATOM     25  N   UNL     1      -3.143   3.395  25.114  0.00  0.00    -0.199 NA
ATOM     26  C   UNL     1      -3.867   3.663  24.822  0.00  0.00    +0.265 C 
ATOM     27  O   UNL     1      -3.892   4.321  24.324  0.00  0.00    -0.268 OA
BRANCH  26  28
ATOM     28  C   UNL     1      -4.565   3.274  25.026  0.00  0.00    +0.057 A 
ATOM     29  C   UNL     1      -5.083   3.614  25.570  0.00  0.00    +0.005 A 
ATOM     30  C   UNL     1      -5.781   3.225  25.774  0.00  0.00    +0.002 A 
ATOM     31  C   UNL     1      -5.961   2.495  25.435  0.00  0.00    +0.030 A 
ATOM     32  C   UNL     1      -5.443   2.154  24.890  0.00  0.00    +0.140 A 
ATOM     33  F   UNL     1      -5.622   1.424  24.551  0.00  0.00    -0.204 F 
ATOM     34  C   UNL     1      -4.745   2.544  24.686  0.00  0.00    +0.034 A 
ENDBRANCH  26  28
ENDBRANCH  24  25
ENDBRANCH  23  24
TORSDOF 6
ENDMDL
MODEL 2
REMARK VINA RESULT:     -12.7      2.086      3.677
REMARK  Name = 
REMARK  6 active torsions:
REMARK  status: ('A' for Active; 'I' for Inactive)
REMARK    1  A    between atoms: C_5  and  C_6
REMARK    2  A    between atoms: C_6  and  C_7
REMARK    3  A    between atoms: N_12  and  C_15
REMARK    4  A    between atoms: C_23  and  C_24
REMARK    5  A    between atoms: C_24  and  N_25
REMARK    6  A    between atoms: C_26  and  C_28
REMARK                            x       y       z     vdW  Elec       q    Type
REMARK                         _______ _______ _______ _____ _____    ______ ____
ROOT
ATOM      1  O   UNL     1      -5.937   3.789  25.961  0.00  0.00    -0.218 OA
ATOM      2  C   UNL     1      -5.452   3.174  25.702  0.00  0.00    +0.213 C 
ATOM      3  C   UNL     1      -5.704   2.421  25.474  0.00  0.00    +0.212 C 
ATOM      4  O   UNL     1      -6.483   2.153  25.466  0.00  0.00    -0.218 OA
ATOM      5  C   UNL     1      -5.038   1.986  25.257  0.00  0.00    +0.157 C 
ATOM     22  O   UNL     1      -4.376   2.469  25.350  0.00  0.00    -0.351 OA
ATOM     23  C   UNL     1      -4.632   3.202  25.625  0.00  0.00    +0.170 C 
ENDROOT
BRANCH   5   6
ATOM      6  C   UNL     1      -5.035   1.204  24.992  0.00  0.00    +0.117 C 
BRANCH   6   7
ATOM      7  C   UNL     1      -4.549   0.984  24.364  0.00  0.00    +0.228 C 
ATOM      8  O   UNL     1      -4.605   1.376  23.640  0.00  0.00    -0.275 OA
ATOM      9  N   UNL     1      -4.004   0.371  24.460  0.00  0.00    -0.276 N 
ATOM     10  C   UNL     1      -3.517   0.150  23.832  0.00  0.00    +0.115 C 
ATOM     11  C   UNL     1      -2.973  -0.462  23.927  0.00  0.00    +0.112 C 
ATOM     12  N   UNL     1      -2.916  -0.855  24.651  0.00  0.00    -0.304 N 
ATOM     13  C   UNL     1      -3.404  -0.634  25.279  0.00  0.00    +0.112 C 
ATOM     14  C   UNL     1      -3.948  -0.021  25.184  0.00  0.00    +0.115 C 
BRANCH  12  15
ATOM     15  C   UNL     1      -2.372  -1.467  24.746  0.00  0.00    +0.048 A 
ATOM     16  C   UNL     1      -2.589  -2.243  24.567  0.00  0.00    +0.017 A 
ATOM     17  C   UNL     1      -2.045  -2.855  24.663  0.00  0.00    +0.031 A 
ATOM     18  C   UNL     1      -1.284  -2.693  24.936  0.00  0.00    +0.140 A 
ATOM     19  F   UNL     1      -0.740  -3.305  25.031  0.00  0.00    -0.204 F 
ATOM     20  C   UNL     1      -1.067  -1.916  25.115  0.00  0.00    +0.031 A 
ATOM     21  C   UNL     1      -1.611  -1.304  25.019  0.00  0.00    +0.017 A 
ENDBRANCH  12  15
ENDBRANCH   6   7
ENDBRANCH   5   6
BRANCH  23  24
ATOM     24  C   UNL     1      -4.151   3.852  25.794  0.00  0.00    +0.148 C 
BRANCH  24  25
ATOM     25  N   UNL     1      -3.386   3.889  25.488  0.00  0.00    -0.199 NA
ATOM     26  C   UNL     1      -2.799   4.302  25.894  0.00  0.00    +0.265 C 
ATOM     27  O   UNL     1      -2.977   4.677  26.607  0.00  0.00    -0.268 OA
BRANCH  26  28
ATOM     28  C   UNL     1      -2.033   4.340  25.589  0.00  0.00    +0.057 A 
ATOM     29  C   UNL     1      -1.548   3.673  25.607  0.00  0.00    +0.005 A 
ATOM     30  C   UNL     1      -0.782   3.711  25.302  0.00  0.00    +0.002 A 
ATOM     31  C   UNL     1      -0.502   4.416  24.977  0.00  0.00    +0.030 A 
ATOM     32  C   UNL     1      -0.988   5.083  24.958  0.00  0.00    +0.140 A 
ATOM     33  F   UNL     1      -0.708   5.788  24.634  0.00  0.00    -0.204 F 
ATOM     34  C   UNL     1      -1.753   5.044  25.264  0.00  0.00    +0.034 A 
ENDBRANCH  26  28
ENDBRANCH  24  25
ENDBRANCH  23  24
TORSDOF 6
ENDMDL
MODEL 3
REMARK VINA RESULT:     -12.3      1.445      4.796
REMARK  Name = 
REMARK  6 active torsions:
REMARK  status: ('A' for Active; 'I' for Inactive)
REMARK    1  A    between atoms: C_5  and  C_6
REMARK    2  A    between atoms: C_6  and  C_7
REMARK    3  A    between atoms: N_12  and  C_15
REMARK    4  A    between atoms: C_23  and  C_24
REMARK    5  A    between atoms: C_24  and  N_25
REMARK    6  A    between atoms: C_26  and  C_28
REMARK                            x       y       z     vdW  Elec       q    Type
REMARK                         _______ _______ _______ _____ _____    ______ ____
ROOT
ATOM      1  O   UNL     1       1.064  -0.347  23.482  0.00  0.00    -0.218 OA
ATOM      2  C   UNL     1       0.475   0.152  23.773  0.00  0.00    +0.213 C 
ATOM      3  C   UNL     1       0.477   0.976  23.737  0.00  0.00    +0.212 C 
ATOM      4  O   UNL     1       1.067   1.446  23.404  0.00  0.00    -0.218 OA
ATOM      5  C   UNL     1      -0.216   1.248  24.093  0.00  0.00    +0.157 C 
ATOM     22  O   UNL     1      -0.645   0.591  24.349  0.00  0.00    -0.351 OA
ATOM     23  C   UNL     1      -0.218  -0.086  24.151  0.00  0.00    +0.170 C 
ENDROOT
BRANCH   5   6
ATOM      6  C   UNL     1      -0.440   2.037  24.179  0.00  0.00    +0.117 C 
BRANCH   6   7
ATOM      7  C   UNL     1      -0.697   2.315  24.911  0.00  0.00    +0.228 C 
ATOM      8  O   UNL     1      -0.176   2.342  25.550  0.00  0.00    -0.275 OA
ATOM      9  N   UNL     1      -1.477   2.567  25.006  0.00  0.00    -0.276 N 
ATOM     10  C   UNL     1      -1.735   2.844  25.738  0.00  0.00    +0.115 C 
ATOM     11  C   UNL     1      -2.515   3.096  25.833  0.00  0.00    +0.112 C 
ATOM     12  N   UNL     1      -3.038   3.070  25.195  0.00  0.00    -0.304 N 
ATOM     13  C   UNL     1      -2.779   2.792  24.462  0.00  0.00    +0.112 C 
ATOM     14  C   UNL     1      -2.000   2.540  24.367  0.00  0.00    +0.115 C 
BRANCH  12  15
ATOM     15  C   UNL     1      -3.817   3.321  25.289  0.00  0.00    +0.048 A 
ATOM     16  C   UNL     1      -3.993   4.127  25.298  0.00  0.00    +0.017 A 
ATOM     17  C   UNL     1      -4.773   4.378  25.393  0.00  0.00    +0.031 A 
ATOM     18  C   UNL     1      -5.378   3.824  25.479  0.00  0.00    +0.140 A 
ATOM     19  F   UNL     1      -6.157   4.076  25.574  0.00  0.00    -0.204 F 
ATOM     20  C   UNL     1      -5.202   3.018  25.470  0.00  0.00    +0.031 A 
ATOM     21  C   UNL     1      -4.422   2.766  25.375  0.00  0.00    +0.017 A 
ENDBRANCH  12  15
ENDBRANCH   6   7
ENDBRANCH   5   6
BRANCH  23  24
ATOM     24  C   UNL     1      -0.445  -0.864  24.305  0.00  0.00    +0.148 C 
BRANCH  24  25
ATOM     25  N   UNL     1      -1.243  -1.050  24.400  0.00  0.00    -0.199 NA
ATOM     26  C   UNL     1      -1.461  -1.776  24.727  0.00  0.00    +0.265 C 
ATOM     27  O   UNL     1      -0.881  -2.315  24.957  0.00  0.00    -0.268 OA
BRANCH  26  28
ATOM     28  C   UNL     1      -2.259  -1.962  24.822  0.00  0.00    +0.057 A 
ATOM     29  C   UNL     1      -2.717  -1.548  25.368  0.00  0.00    +0.005 A 
ATOM     30  C   UNL     1      -3.515  -1.734  25.464  0.00  0.00    +0.002 A 
ATOM     31  C   UNL     1      -3.855  -2.336  25.013  0.00  0.00    +0.030 A 
ATOM     32  C   UNL     1      -3.397  -2.751  24.467  0.00  0.00    +0.140 A 
ATOM     33  F   UNL     1      -3.736  -3.353  24.016  0.00  0.00    -0.204 F 
ATOM     34  C   UNL     1      -2.599  -2.564  24.372  0.00  0.00    +0.034 A 
ENDBRANCH  26  28
ENDBRANCH  24  25
ENDBRANCH  23  24
TORSDOF 6
ENDMDL
