MODEL 1
REMARK VINA RESULT:     -11.4      0.000      0.000
REMARK  Name = 
REMARK  8 active torsions:
REMARK  status: ('A' for Active; 'I' for Inactive)
REMARK    1  A    between atoms: O_2  and  C_3
REMARK    2  A    between atoms: C_3  and  C_4
REMARK    3  A    between atoms: C_4  and  O_5
REMARK    4  A    between atoms: O_5  and  C_6
REMARK    5  A    between atoms: C_7  and  C_12
REMARK    6  A    between atoms: C_15  and  C_17
REMARK    7  A    between atoms: N_21  and  C_22
REMARK    8  A    between atoms: C_22  and  C_23
REMARK                            x       y       z     vdW  Elec       q    Type
REMARK                         _______ _______ _______ _____ _____    ______ ____
ROOT
ATOM     12  C   UNL     1      -2.844   3.116  24.520  0.00  0.00    +0.208 A 
ATOM     13  N   UNL     1      -3.167   3.063  23.762  0.00  0.00    -0.056 NA
ATOM     14  O   UNL     1      -3.806   2.541  23.794  0.00  0.00    -0.336 OA
ATOM     15  C   UNL     1      -3.877   2.272  24.571  0.00  0.00    +0.251 A 
ATOM     16  N   UNL     1      -3.282   2.627  25.019  0.00  0.00    -0.189 NA
ENDROOT
BRANCH  12   7
ATOM      6  C   UNL     1      -1.430   3.280  24.652  0.00  0.00    +0.228 A 
ATOM      7  C   UNL     1      -2.195   3.577  24.739  0.00  0.00    +0.092 A 
ATOM      8  C   UNL     1      -2.312   4.334  25.044  0.00  0.00    +0.009 A 
ATOM      9  C   UNL     1      -1.664   4.795  25.263  0.00  0.00    +0.021 A 
ATOM     10  C   UNL     1      -0.899   4.499  25.177  0.00  0.00    +0.102 A 
ATOM     11  N   UNL     1      -0.782   3.741  24.872  0.00  0.00    -0.210 NA
BRANCH   6   5
ATOM      5  O   UNL     1      -1.313   2.523  24.347  0.00  0.00    -0.457 OA
BRANCH   5   4
ATOM      4  C   UNL     1      -0.571   2.167  24.399  0.00  0.00    +0.239 C 
BRANCH   4   3
ATOM      3  C   UNL     1      -0.400   1.500  23.946  0.00  0.00    +0.189 C 
BRANCH   3   2
ATOM      1  C   UNL     1      -0.032   0.122  23.861  0.00  0.00    +0.174 C 
ATOM      2  O   UNL     1      -0.188   0.793  24.314  0.00  0.00    -0.347 OA
ENDBRANCH   3   2
ENDBRANCH   4   3
ENDBRANCH   5   4
ENDBRANCH   6   5
ENDBRANCH  12   7
BRANCH  15  17
ATOM     17  C   UNL     1      -4.443   1.741  24.850  0.00  0.00    +0.138 C 
ATOM     18  C   UNL     1      -5.146   1.939  25.233  0.00  0.00    +0.027 C 
ATOM     19  C   UNL     1      -5.543   1.239  25.415  0.00  0.00    +0.019 C 
ATOM     20  C   UNL     1      -5.085   0.609  25.146  0.00  0.00    +0.073 C 
ATOM     21  N   UNL     1      -4.404   0.919  24.797  0.00  0.00    -0.263 NA
BRANCH  21  22
ATOM     22  C   UNL     1      -3.794   0.483  24.454  0.00  0.00    +0.099 C 
BRANCH  22  23
ATOM     23  C   UNL     1      -3.744  -0.330  24.584  0.00  0.00    -0.006 A 
ATOM     24  C   UNL     1      -4.058  -0.857  24.031  0.00  0.00    -0.002 A 
ATOM     25  C   UNL     1      -4.008  -1.669  24.161  0.00  0.00    +0.011 A 
ATOM     26  C   UNL     1      -3.644  -1.957  24.843  0.00  0.00    +0.058 A 
ATOM     27 CL   UNL     1      -3.594  -2.770  24.974  0.00  0.00    -0.082 Cl
ATOM     28  C   UNL     1      -3.330  -1.431  25.396  0.00  0.00    +0.011 A 
ATOM     29  C   UNL     1      -3.380  -0.617  25.266  0.00  0.00    -0.002 A 
ENDBRANCH  22  23
ENDBRANCH  21  22
ENDBRANCH  15  17
TORSDOF 8
ENDMDL
MODEL 2
REMARK VINA RESULT:     -10.8      1.378      2.998
REMARK  Name = 
REMARK  8 active torsions:
REMARK  status: ('A' for Active; 'I' for Inactive)
REMARK    1  A    between atoms: O_2  and  C_3
REMARK    2  A    between atoms: C_3  and  C_4
REMARK    3  A    between atoms: C_4  and  O_5
REMARK    4  A    between atoms: O_5  and  C_6
REMARK    5  A    between atoms: C_7  and  C_12
REMARK    6  A    between atoms: C_15  and  C_17
REMARK    7  A    between atoms: N_21  and  C_22
REMARK    8  A    between atoms: C_22  and  C_23
REMARK                            x       y       z     vdW  Elec       q    Type
REMARK                         _______ _______ _______ _____ _____    ______ ____
ROOT
ATOM     12  C   UNL     1      -1.189   2.755  25.391  0.00  0.00    +0.208 A 
ATOM     13  N   UNL     1      -1.080   2.383  26.120  0.00  0.00    -0.056 NA
ATOM     14  O   UNL     1      -0.956   1.579  25.980  0.00  0.00    -0.336 OA
ATOM     15  C   UNL     1      -0.988   1.454  25.165  0.00  0.00    +0.251 A 
ATOM     16  N   UNL     1      -1.132   2.181  24.801  0.00  0.00    -0.189 NA
ENDROOT
BRANCH  12   7
ATOM      6  C   UNL     1      -2.101   3.851  25.304  0.00  0.00    +0.228 A 
ATOM      7  C   UNL     1      -1.330   3.559  25.274  0.00  0.00    +0.092 A 
ATOM      8  C   UNL     1      -0.700   4.070  25.125  0.00  0.00    +0.009 A 
ATOM      9  C   UNL     1      -0.841   4.875  25.008  0.00  0.00    +0.021 A 
ATOM     10  C   UNL     1      -1.611   5.168  25.038  0.00  0.00    +0.102 A 
ATOM     11  N   UNL     1      -2.242   4.656  25.187  0.00  0.00    -0.210 NA
BRANCH   6   5
ATOM      5  O   UNL     1      -2.730   3.340  25.453  0.00  0.00    -0.457 OA
BRANCH   5   4
ATOM      4  C   UNL     1      -3.507   3.603  25.361  0.00  0.00    +0.239 C 
BRANCH   4   3
ATOM      3  C   UNL     1      -4.130   3.174  25.687  0.00  0.00    +0.189 C 
BRANCH   3   2
ATOM      1  C   UNL     1      -5.451   2.642  25.563  0.00  0.00    +0.174 C 
ATOM      2  O   UNL     1      -4.768   2.947  25.216  0.00  0.00    -0.347 OA
ENDBRANCH   3   2
ENDBRANCH   4   3
ENDBRANCH   5   4
ENDBRANCH   6   5
ENDBRANCH  12   7
BRANCH  15  17
ATOM     17  C   UNL     1      -0.893   0.731  24.781  0.00  0.00    +0.138 C 
ATOM     18  C   UNL     1      -0.219   0.482  24.375  0.00  0.00    +0.027 C 
ATOM     19  C   UNL     1      -0.365  -0.274  24.078  0.00  0.00    +0.019 C 
ATOM     20  C   UNL     1      -1.128  -0.493  24.301  0.00  0.00    +0.073 C 
ATOM     21  N   UNL     1      -1.455   0.128  24.736  0.00  0.00    -0.263 NA
BRANCH  21  22
ATOM     22  C   UNL     1      -2.210   0.143  25.066  0.00  0.00    +0.099 C 
BRANCH  22  23
ATOM     23  C   UNL     1      -2.786  -0.385  24.804  0.00  0.00    -0.006 A 
ATOM     24  C   UNL     1      -3.298  -0.167  24.194  0.00  0.00    -0.002 A 
ATOM     25  C   UNL     1      -3.874  -0.696  23.931  0.00  0.00    +0.011 A 
ATOM     26  C   UNL     1      -3.939  -1.441  24.278  0.00  0.00    +0.058 A 
ATOM     27 CL   UNL     1      -4.516  -1.970  24.015  0.00  0.00    -0.082 Cl
ATOM     28  C   UNL     1      -3.428  -1.659  24.887  0.00  0.00    +0.011 A 
ATOM     29  C   UNL     1      -2.851  -1.130  25.150  0.00  0.00    -0.002 A 
ENDBRANCH  22  23
ENDBRANCH  21  22
ENDBRANCH  15  17
TORSDOF 8
ENDMDL
MODEL 3
REMARK VINA RESULT:     -10.6      1.943      4.345
REMARK  Name = 
REMARK  8 active torsions:
REMARK  status: ('A' for Active; 'I' for Inactive)
REMARK    1  A    between atoms: O_2  and  C_3
REMARK    2  A    between atoms: C_3  and  C_4
REMARK    3  A    between atoms: C_4  and  O_5
REMARK    4  A    between atoms: O_5  and  C_6
REMARK    5  A    between atoms: C_7  and  C_12
REMARK    6  A    between atoms: C_15  and  C_17
REMARK    7  A    between atoms: N_21  and  C_22
REMARK    8  A    between atoms: C_22  and  C_23
REMARK                            x       y       z     vdW  Elec       q    Type
REMARK                         _______ _______ _______ _____ _____    ______ ____
ROOT
ATOM     12  C   UNL     1      -3.650  -0.470  24.352  0.00  0.00    +0.208 A 
ATOM     13  N   UNL     1      -3.755  -0.123  23.610  0.00  0.00    -0.056 NA
ATOM     14  O   UNL     1      -4.046   0.641  23.726  0.00  0.00    -0.336 OA
ATOM     15  C   UNL     1      -4.120   0.766  24.538  0.00  0.00    +0.251 A 
ATOM     16  N   UNL     1      -3.875   0.079  24.925  0.00  0.00    -0.189 NA
ENDROOT
BRANCH  12   7
ATOM      6  C   UNL     1      -2.559  -1.362  24.585  0.00  0.00    +0.228 A 
ATOM      7  C   UNL     1      -3.369  -1.232  24.495  0.00  0.00    +0.092 A 
ATOM      8  C   UNL     1      -3.897  -1.863  24.548  0.00  0.00    +0.009 A 
ATOM      9  C   UNL     1      -3.615  -2.625  24.690  0.00  0.00    +0.021 A 
ATOM     10  C   UNL     1      -2.806  -2.757  24.780  0.00  0.00    +0.102 A 
ATOM     11  N   UNL     1      -2.277  -2.125  24.727  0.00  0.00    -0.210 NA
BRANCH   6   5
ATOM      5  O   UNL     1      -2.031  -0.731  24.532  0.00  0.00    -0.457 OA
BRANCH   5   4
ATOM      4  C   UNL     1      -1.218  -0.873  24.521  0.00  0.00    +0.239 C 
BRANCH   4   3
ATOM      3  C   UNL     1      -0.689  -0.246  24.601  0.00  0.00    +0.189 C 
BRANCH   3   2
ATOM      1  C   UNL     1       0.185   0.669  23.936  0.00  0.00    +0.174 C 
ATOM      2  O   UNL     1      -0.145  -0.084  24.002  0.00  0.00    -0.347 OA
ENDBRANCH   3   2
ENDBRANCH   4   3
ENDBRANCH   5   4
ENDBRANCH   6   5
ENDBRANCH  12   7
BRANCH  15  17
ATOM     17  C   UNL     1      -4.391   1.456  24.900  0.00  0.00    +0.138 C 
ATOM     18  C   UNL     1      -5.126   1.557  25.260  0.00  0.00    +0.027 C 
ATOM     19  C   UNL     1      -5.164   2.330  25.549  0.00  0.00    +0.019 C 
ATOM     20  C   UNL     1      -4.453   2.705  25.366  0.00  0.00    +0.073 C 
ATOM     21  N   UNL     1      -3.975   2.165  24.965  0.00  0.00    -0.263 NA
BRANCH  21  22
ATOM     22  C   UNL     1      -3.214   2.309  24.680  0.00  0.00    +0.099 C 
BRANCH  22  23
ATOM     23  C   UNL     1      -2.827   3.010  24.876  0.00  0.00    -0.006 A 
ATOM     24  C   UNL     1      -2.288   3.024  25.501  0.00  0.00    -0.002 A 
ATOM     25  C   UNL     1      -1.900   3.725  25.696  0.00  0.00    +0.011 A 
ATOM     26  C   UNL     1      -2.050   4.413  25.267  0.00  0.00    +0.058 A 
ATOM     27 CL   UNL     1      -1.662   5.115  25.462  0.00  0.00    -0.082 Cl
ATOM     28  C   UNL     1      -2.589   4.400  24.642  0.00  0.00    +0.011 A 
ATOM     29  C   UNL     1      -2.977   3.699  24.447  0.00  0.00    -0.002 A 
ENDBRANCH  22  23
ENDBRANCH  21  22
ENDBRANCH  15  17
TORSDOF 8
ENDMDL
MODEL 4
REMARK VINA RESULT:     -10.4      2.089      5.276
REMARK  Name = 
REMARK  8 active torsions:
REMARK  status: ('A' for Active; 'I' for Inactive)
REMARK    1  A    between atoms: O_2  and  C_3
REMARK    2  A    between atoms: C_3  and  C_4
REMARK    3  A    between atoms: C_4  and  O_5
REMARK    4  A    between atoms: O_5  and  C_6
REMARK    5  A    between atoms: C_7  and  C_12
REMARK    6  A    between atoms: C_15  and  C_17
REMARK    7  A    between atoms: N_21  and  C_22
REMARK    8  A    between atoms: C_22  and  C_23
REMARK                            x       y       z     vdW  Elec       q    Type
REMARK                         _______ _______ _______ _____ _____    ______ ____
ROOT
ATOM     12  C   UNL     1      -2.295  -0.782  24.884  0.00  0.00    +0.208 A 
ATOM     13  N   UNL     1      -1.994  -0.732  25.651  0.00  0.00    -0.056 NA
ATOM     14  O   UNL     1      -1.363  -0.200  25.642  0.00  0.00    -0.336 OA
ATOM     15  C   UNL     1      -1.273   0.078  24.871  0.00  0.00    +0.251 A 
ATOM     16  N   UNL     1      -1.850  -0.282  24.402  0.00  0.00    -0.189 NA
ENDROOT
BRANCH  12   7
ATOM      6  C   UNL     1      -3.687  -0.928  24.599  0.00  0.00    +0.228 A 
ATOM      7  C   UNL     1      -2.929  -1.251  24.642  0.00  0.00    +0.092 A 
ATOM      8  C   UNL     1      -2.805  -2.041  24.443  0.00  0.00    +0.009 A 
ATOM      9  C   UNL     1      -3.440  -2.510  24.201  0.00  0.00    +0.021 A 
ATOM     10  C   UNL     1      -4.198  -2.188  24.158  0.00  0.00    +0.102 A 
ATOM     11  N   UNL     1      -4.322  -1.397  24.357  0.00  0.00    -0.210 NA
BRANCH   6   5
ATOM      5  O   UNL     1      -3.811  -0.138  24.797  0.00  0.00    -0.457 OA
BRANCH   5   4
ATOM      4  C   UNL     1      -4.550   0.208  24.675  0.00  0.00    +0.239 C 
BRANCH   4   3
ATOM      3  C   UNL     1      -4.754   0.899  25.076  0.00  0.00    +0.189 C 
BRANCH   3   2
ATOM      1  C   UNL     1      -5.492   2.123  25.091  0.00  0.00    +0.174 C 
ATOM      2  O   UNL     1      -5.119   1.519  24.672  0.00  0.00    -0.347 OA
ENDBRANCH   3   2
ENDBRANCH   4   3
ENDBRANCH   5   4
ENDBRANCH   6   5
ENDBRANCH  12   7
BRANCH  15  17
ATOM     17  C   UNL     1      -0.708   0.620  24.613  0.00  0.00    +0.138 C 
ATOM     18  C   UNL     1      -0.075   0.457  24.109  0.00  0.00    +0.027 C 
ATOM     19  C   UNL     1       0.349   1.157  23.998  0.00  0.00    +0.019 C 
ATOM     20  C   UNL     1      -0.023   1.752  24.432  0.00  0.00    +0.073 C 
ATOM     21  N   UNL     1      -0.676   1.420  24.812  0.00  0.00    -0.263 NA
BRANCH  21  22
ATOM     22  C   UNL     1      -1.204   1.818  25.305  0.00  0.00    +0.099 C 
BRANCH  22  23
ATOM     23  C   UNL     1      -1.264   2.639  25.267  0.00  0.00    -0.006 A 
ATOM     24  C   UNL     1      -0.751   3.111  25.710  0.00  0.00    -0.002 A 
ATOM     25  C   UNL     1      -0.810   3.933  25.672  0.00  0.00    +0.011 A 
ATOM     26  C   UNL     1      -1.383   4.284  25.193  0.00  0.00    +0.058 A 
ATOM     27 CL   UNL     1      -1.442   5.106  25.156  0.00  0.00    -0.082 Cl
ATOM     28  C   UNL     1      -1.896   3.813  24.751  0.00  0.00    +0.011 A 
ATOM     29  C   UNL     1      -1.836   2.991  24.789  0.00  0.00    -0.002 A 
ENDBRANCH  22  23
ENDBRANCH  21  22
ENDBRANCH  15  17
TORSDOF 8
ENDMDL
MODEL 5
REMARK VINA RESULT:     -10.1      1.380      2.811
REMARK  Name = 
REMARK  8 active torsions:
REMARK  status: ('A' for Active; 'I' for Inactive)
REMARK    1  A    between atoms: O_2  and  C_3
REMARK    2  A    between atoms: C_3  and  C_4
REMARK    3  A    between atoms: C_4  and  O_5
REMARK    4  A    between atoms: O_5  and  C_6
REMARK    5  A    between atoms: C_7  and  C_12
REMARK    6  A    between atoms: C_15  and  C_17
REMARK    7  A    between atoms: N_21  and  C_22
REMARK    8  A    between atoms: C_22  and  C_23
REMARK                            x       y       z     vdW  Elec       q    Type
REMARK                         _______ _______ _______ _____ _____    ______ ____
ROOT
ATOM     12  C   UNL     1      -3.749   2.194  24.535  0.00  0.00    +0.208 A 
ATOM     13  N   UNL     1      -3.612   2.179  23.721  0.00  0.00    -0.056 NA
ATOM     14  O   UNL     1      -3.063   1.582  23.566  0.00  0.00    -0.336 OA
ATOM     15  C   UNL     1      -2.861   1.229  24.284  0.00  0.00    +0.251 A 
ATOM     16  N   UNL     1      -3.285   1.607  24.883  0.00  0.00    -0.189 NA
ENDROOT
BRANCH  12   7
ATOM      6  C   UNL     1      -3.968   3.400  25.270  0.00  0.00    +0.228 A 
ATOM      7  C   UNL     1      -4.260   2.706  24.931  0.00  0.00    +0.092 A 
ATOM      8  C   UNL     1      -5.062   2.525  24.988  0.00  0.00    +0.009 A 
ATOM      9  C   UNL     1      -5.574   3.037  25.384  0.00  0.00    +0.021 A 
ATOM     10  C   UNL     1      -5.283   3.731  25.723  0.00  0.00    +0.102 A 
ATOM     11  N   UNL     1      -4.479   3.912  25.666  0.00  0.00    -0.210 NA
BRANCH   6   5
ATOM      5  O   UNL     1      -3.166   3.581  25.213  0.00  0.00    -0.457 OA
BRANCH   5   4
ATOM      4  C   UNL     1      -2.880   4.291  25.520  0.00  0.00    +0.239 C 
BRANCH   4   3
ATOM      3  C   UNL     1      -2.068   4.412  25.594  0.00  0.00    +0.189 C 
BRANCH   3   2
ATOM      1  C   UNL     1      -0.924   4.977  24.949  0.00  0.00    +0.174 C 
ATOM      2  O   UNL     1      -1.706   5.042  25.204  0.00  0.00    -0.347 OA
ENDBRANCH   3   2
ENDBRANCH   4   3
ENDBRANCH   5   4
ENDBRANCH   6   5
ENDBRANCH  12   7
BRANCH  15  17
ATOM     17  C   UNL     1      -2.329   0.607  24.386  0.00  0.00    +0.138 C 
ATOM     18  C   UNL     1      -1.510   0.650  24.299  0.00  0.00    +0.027 C 
ATOM     19  C   UNL     1      -1.197  -0.098  24.452  0.00  0.00    +0.019 C 
ATOM     20  C   UNL     1      -1.823  -0.604  24.633  0.00  0.00    +0.073 C 
ATOM     21  N   UNL     1      -2.523  -0.168  24.592  0.00  0.00    -0.263 NA
BRANCH  21  22
ATOM     22  C   UNL     1      -3.282  -0.457  24.734  0.00  0.00    +0.099 C 
BRANCH  22  23
ATOM     23  C   UNL     1      -3.450  -1.255  24.611  0.00  0.00    -0.006 A 
ATOM     24  C   UNL     1      -3.831  -1.495  23.919  0.00  0.00    -0.002 A 
ATOM     25  C   UNL     1      -3.998  -2.293  23.796  0.00  0.00    +0.011 A 
ATOM     26  C   UNL     1      -3.785  -2.852  24.364  0.00  0.00    +0.058 A 
ATOM     27 CL   UNL     1      -3.953  -3.651  24.241  0.00  0.00    -0.082 Cl
ATOM     28  C   UNL     1      -3.404  -2.613  25.055  0.00  0.00    +0.011 A 
ATOM     29  C   UNL     1      -3.236  -1.814  25.178  0.00  0.00    -0.002 A 
ENDBRANCH  22  23
ENDBRANCH  21  22
ENDBRANCH  15  17
TORSDOF 8
ENDMDL
MODEL 6
REMARK VINA RESULT:      -9.7      1.608      2.771
REMARK  Name = 
REMARK  8 active torsions:
REMARK  status: ('A' for Active; 'I' for Inactive)
REMARK    1  A    between atoms: O_2  and  C_3
REMARK    2  A    between atoms: C_3  and  C_4
REMARK    3  A    between atoms: C_4  and  O_5
REMARK    4  A    between atoms: O_5  and  C_6
REMARK    5  A    between atoms: C_7  and  C_12
REMARK    6  A    between atoms: C_15  and  C_17
REMARK    7  A    between atoms: N_21  and  C_22
REMARK    8  A    between atoms: C_22  and  C_23
REMARK                            x       y       z     vdW  Elec       q    Type
REMARK                         _______ _______ _______ _____ _____    ______ ____
ROOT
ATOM     12  C   UNL     1      -4.190   1.883  24.545  0.00  0.00    +0.208 A 
ATOM     13  N   UNL     1      -3.918   1.872  23.766  0.00  0.00    -0.056 NA
ATOM     14  O   UNL     1      -3.746   1.089  23.568  0.00  0.00    -0.336 OA
ATOM     15  C   UNL     1      -3.913   0.617  24.224  0.00  0.00    +0.251 A 
ATOM     16  N   UNL     1      -4.187   1.108  24.828  0.00  0.00    -0.189 NA
ENDROOT
BRANCH  12   7
ATOM      6  C   UNL     1      -3.856   3.054  25.293  0.00  0.00    +0.228 A 
ATOM      7  C   UNL     1      -4.425   2.552  24.967  0.00  0.00    +0.092 A 
ATOM      8  C   UNL     1      -5.226   2.720  25.063  0.00  0.00    +0.009 A 
ATOM      9  C   UNL     1      -5.461   3.389  25.484  0.00  0.00    +0.021 A 
ATOM     10  C   UNL     1      -4.893   3.891  25.810  0.00  0.00    +0.102 A 
ATOM     11  N   UNL     1      -4.091   3.723  25.714  0.00  0.00    -0.210 NA
BRANCH   6   5
ATOM      5  O   UNL     1      -3.055   2.887  25.197  0.00  0.00    -0.457 OA
BRANCH   5   4
ATOM      4  C   UNL     1      -2.490   3.314  25.622  0.00  0.00    +0.239 C 
BRANCH   4   3
ATOM      3  C   UNL     1      -1.688   3.214  25.458  0.00  0.00    +0.189 C 
BRANCH   3   2
ATOM      1  C   UNL     1      -0.394   2.788  25.889  0.00  0.00    +0.174 C 
ATOM      2  O   UNL     1      -1.162   3.029  26.066  0.00  0.00    -0.347 OA
ENDBRANCH   3   2
ENDBRANCH   4   3
ENDBRANCH   5   4
ENDBRANCH   6   5
ENDBRANCH  12   7
BRANCH  15  17
ATOM     17  C   UNL     1      -3.821  -0.201  24.269  0.00  0.00    +0.138 C 
ATOM     18  C   UNL     1      -4.420  -0.762  24.174  0.00  0.00    +0.027 C 
ATOM     19  C   UNL     1      -4.083  -1.511  24.263  0.00  0.00    +0.019 C 
ATOM     20  C   UNL     1      -3.278  -1.412  24.413  0.00  0.00    +0.073 C 
ATOM     21  N   UNL     1      -3.116  -0.603  24.417  0.00  0.00    -0.263 NA
BRANCH  21  22
ATOM     22  C   UNL     1      -2.379  -0.257  24.545  0.00  0.00    +0.099 C 
BRANCH  22  23
ATOM     23  C   UNL     1      -1.745  -0.720  24.798  0.00  0.00    -0.006 A 
ATOM     24  C   UNL     1      -1.590  -0.803  25.605  0.00  0.00    -0.002 A 
ATOM     25  C   UNL     1      -0.956  -1.265  25.858  0.00  0.00    +0.011 A 
ATOM     26  C   UNL     1      -0.476  -1.645  25.305  0.00  0.00    +0.058 A 
ATOM     27 CL   UNL     1       0.159  -2.108  25.559  0.00  0.00    -0.082 Cl
ATOM     28  C   UNL     1      -0.629  -1.562  24.499  0.00  0.00    +0.011 A 
ATOM     29  C   UNL     1      -1.264  -1.099  24.246  0.00  0.00    -0.002 A 
ENDBRANCH  22  23
ENDBRANCH  21  22
ENDBRANCH  15  17
TORSDOF 8
ENDMDL
MODEL 7
REMARK VINA RESULT:      -9.5      1.531      3.548
REMARK  Name = 
REMARK  8 active torsions:
REMARK  status: ('A' for Active; 'I' for Inactive)
REMARK    1  A    between atoms: O_2  and  C_3
REMARK    2  A    between atoms: C_3  and  C_4
REMARK    3  A    between atoms: C_4  and  O_5
REMARK    4  A    between atoms: O_5  and  C_6
REMARK    5  A    between atoms: C_7  and  C_12
REMARK    6  A    between atoms: C_15  and  C_17
REMARK    7  A    between atoms: N_21  and  C_22
REMARK    8  A    between atoms: C_22  and  C_23
REMARK                            x       y       z     vdW  Elec       q    Type
REMARK                         _______ _______ _______ _____ _____    ______ ____
ROOT
ATOM     12  C   UNL     1      -3.437   2.781  24.889  0.00  0.00    +0.208 A 
ATOM     13  N   UNL     1      -3.123   3.012  24.162  0.00  0.00    -0.056 NA
ATOM     14  O   UNL     1      -2.304   2.913  24.195  0.00  0.00    -0.336 OA
ATOM     15  C   UNL     1      -2.113   2.621  24.943  0.00  0.00    +0.251 A 
ATOM     16  N   UNL     1      -2.814   2.539  25.372  0.00  0.00    -0.189 NA
ENDROOT
BRANCH  12   7
ATOM      6  C   UNL     1      -4.698   2.115  24.990  0.00  0.00    +0.228 A 
ATOM      7  C   UNL     1      -4.236   2.791  25.097  0.00  0.00    +0.092 A 
ATOM      8  C   UNL     1      -4.572   3.475  25.412  0.00  0.00    +0.009 A 
ATOM      9  C   UNL     1      -5.370   3.484  25.620  0.00  0.00    +0.021 A 
ATOM     10  C   UNL     1      -5.832   2.810  25.513  0.00  0.00    +0.102 A 
ATOM     11  N   UNL     1      -5.496   2.125  25.198  0.00  0.00    -0.210 NA
BRANCH   6   5
ATOM      5  O   UNL     1      -4.362   1.431  24.675  0.00  0.00    -0.457 OA
BRANCH   5   4
ATOM      4  C   UNL     1      -4.770   0.715  24.714  0.00  0.00    +0.239 C 
BRANCH   4   3
ATOM      3  C   UNL     1      -4.531   0.078  24.248  0.00  0.00    +0.189 C 
BRANCH   3   2
ATOM      1  C   UNL     1      -4.322  -1.329  24.116  0.00  0.00    +0.174 C 
ATOM      2  O   UNL     1      -4.404  -0.661  24.592  0.00  0.00    -0.347 OA
ENDBRANCH   3   2
ENDBRANCH   4   3
ENDBRANCH   5   4
ENDBRANCH   6   5
ENDBRANCH  12   7
BRANCH  15  17
ATOM     17  C   UNL     1      -1.355   2.441  25.214  0.00  0.00    +0.138 C 
ATOM     18  C   UNL     1      -0.882   2.925  25.686  0.00  0.00    +0.027 C 
ATOM     19  C   UNL     1      -0.171   2.529  25.825  0.00  0.00    +0.019 C 
ATOM     20  C   UNL     1      -0.205   1.801  25.440  0.00  0.00    +0.073 C 
ATOM     21  N   UNL     1      -0.937   1.746  25.062  0.00  0.00    -0.263 NA
BRANCH  21  22
ATOM     22  C   UNL     1      -1.204   1.109  24.612  0.00  0.00    +0.099 C 
BRANCH  22  23
ATOM     23  C   UNL     1      -0.953   0.344  24.791  0.00  0.00    -0.006 A 
ATOM     24  C   UNL     1      -0.460  -0.062  24.268  0.00  0.00    -0.002 A 
ATOM     25  C   UNL     1      -0.210  -0.827  24.447  0.00  0.00    +0.011 A 
ATOM     26  C   UNL     1      -0.452  -1.187  25.148  0.00  0.00    +0.058 A 
ATOM     27 CL   UNL     1      -0.201  -1.953  25.327  0.00  0.00    -0.082 Cl
ATOM     28  C   UNL     1      -0.945  -0.782  25.671  0.00  0.00    +0.011 A 
ATOM     29  C   UNL     1      -1.196  -0.016  25.492  0.00  0.00    -0.002 A 
ENDBRANCH  22  23
ENDBRANCH  21  22
ENDBRANCH  15  17
TORSDOF 8
ENDMDL
MODEL 8
REMARK VINA RESULT:      -9.5      2.062      4.280
REMARK  Name = 
REMARK  8 active torsions:
REMARK  status: ('A' for Active; 'I' for Inactive)
REMARK    1  A    between atoms: O_2  and  C_3
REMARK    2  A    between atoms: C_3  and  C_4
REMARK    3  A    between atoms: C_4  and  O_5
REMARK    4  A    between atoms: O_5  and  C_6
REMARK    5  A    between atoms: C_7  and  C_12
REMARK    6  A    between atoms: C_15  and  C_17
REMARK    7  A    between atoms: N_21  and  C_22
REMARK    8  A    between atoms: C_22  and  C_23
REMARK                            x       y       z     vdW  Elec       q    Type
REMARK                         _______ _______ _______ _____ _____    ______ ____
ROOT
ATOM     12  C   UNL     1      -0.082   1.847  24.716  0.00  0.00    +0.208 A 
ATOM     13  N   UNL     1       0.112   1.957  25.511  0.00  0.00    -0.056 NA
ATOM     14  O   UNL     1      -0.212   2.676  25.755  0.00  0.00    -0.336 OA
ATOM     15  C   UNL     1      -0.606   3.010  25.112  0.00  0.00    +0.251 A 
ATOM     16  N   UNL     1      -0.525   2.497  24.470  0.00  0.00    -0.189 NA
ENDROOT
BRANCH  12   7
ATOM      6  C   UNL     1      -0.312   0.505  24.284  0.00  0.00    +0.228 A 
ATOM      7  C   UNL     1       0.131   1.200  24.250  0.00  0.00    +0.092 A 
ATOM      8  C   UNL     1       0.786   1.249  23.752  0.00  0.00    +0.009 A 
ATOM      9  C   UNL     1       0.999   0.602  23.287  0.00  0.00    +0.021 A 
ATOM     10  C   UNL     1       0.557  -0.093  23.319  0.00  0.00    +0.102 A 
ATOM     11  N   UNL     1      -0.099  -0.142  23.818  0.00  0.00    -0.210 NA
BRANCH   6   5
ATOM      5  O   UNL     1      -0.967   0.456  24.782  0.00  0.00    -0.457 OA
BRANCH   5   4
ATOM      4  C   UNL     1      -1.483  -0.185  24.724  0.00  0.00    +0.239 C 
BRANCH   4   3
ATOM      3  C   UNL     1      -2.037  -0.323  25.319  0.00  0.00    +0.189 C 
BRANCH   3   2
ATOM      1  C   UNL     1      -3.308  -0.905  25.619  0.00  0.00    +0.174 C 
ATOM      2  O   UNL     1      -2.829  -0.452  25.124  0.00  0.00    -0.347 OA
ENDBRANCH   3   2
ENDBRANCH   4   3
ENDBRANCH   5   4
ENDBRANCH   6   5
ENDBRANCH  12   7
BRANCH  15  17
ATOM     17  C   UNL     1      -1.009   3.729  25.110  0.00  0.00    +0.138 C 
ATOM     18  C   UNL     1      -0.693   4.462  24.901  0.00  0.00    +0.027 C 
ATOM     19  C   UNL     1      -1.289   5.028  24.979  0.00  0.00    +0.019 C 
ATOM     20  C   UNL     1      -1.972   4.645  25.236  0.00  0.00    +0.073 C 
ATOM     21  N   UNL     1      -1.800   3.842  25.317  0.00  0.00    -0.263 NA
BRANCH  21  22
ATOM     22  C   UNL     1      -2.326   3.256  25.562  0.00  0.00    +0.099 C 
BRANCH  22  23
ATOM     23  C   UNL     1      -3.139   3.388  25.522  0.00  0.00    -0.006 A 
ATOM     24  C   UNL     1      -3.566   3.136  24.862  0.00  0.00    -0.002 A 
ATOM     25  C   UNL     1      -4.379   3.268  24.822  0.00  0.00    +0.011 A 
ATOM     26  C   UNL     1      -4.766   3.652  25.440  0.00  0.00    +0.058 A 
ATOM     27 CL   UNL     1      -5.580   3.784  25.400  0.00  0.00    -0.082 Cl
ATOM     28  C   UNL     1      -4.340   3.904  26.100  0.00  0.00    +0.011 A 
ATOM     29  C   UNL     1      -3.526   3.772  26.140  0.00  0.00    -0.002 A 
ENDBRANCH  22  23
ENDBRANCH  21  22
ENDBRANCH  15  17
TORSDOF 8
ENDMDL
MODEL 9
REMARK VINA RESULT:      -9.2      1.798      3.569
REMARK  Name = 
REMARK  8 active torsions:
REMARK  status: ('A' for Active; 'I' for Inactive)
REMARK    1  A    between atoms: O_2  and  C_3
REMARK    2  A    between atoms: C_3  and  C_4
REMARK    3  A    between atoms: C_4  and  O_5
REMARK    4  A    between atoms: O_5  and  C_6
REMARK    5  A    between atoms: C_7  and  C_12
REMARK    6  A    between atoms: C_15  and  C_17
REMARK    7  A    between atoms: N_21  and  C_22
REMARK    8  A    between atoms: C_22  and  C_23
REMARK                            x       y       z     vdW  Elec       q    Type
REMARK                         _______ _______ _______ _____ _____    ______ ____
ROOT
ATOM     12  C   UNL     1      -0.953  -0.204  24.416  0.00  0.00    +0.208 A 
ATOM     13  N   UNL     1      -1.018  -0.444  25.204  0.00  0.00    -0.056 NA
ATOM     14  O   UNL     1      -1.804  -0.657  25.341  0.00  0.00    -0.336 OA
ATOM     15  C   UNL     1      -2.224  -0.549  24.640  0.00  0.00    +0.251 A 
ATOM     16  N   UNL     1      -1.698  -0.269  24.068  0.00  0.00    -0.189 NA
ENDROOT
BRANCH  12   7
ATOM      6  C   UNL     1      -0.021   0.839  24.127  0.00  0.00    +0.228 A 
ATOM      7  C   UNL     1      -0.264   0.055  24.044  0.00  0.00    +0.092 A 
ATOM      8  C   UNL     1       0.180  -0.469  23.589  0.00  0.00    +0.009 A 
ATOM      9  C   UNL     1       0.869  -0.210  23.217  0.00  0.00    +0.021 A 
ATOM     10  C   UNL     1       1.113   0.574  23.299  0.00  0.00    +0.102 A 
ATOM     11  N   UNL     1       0.668   1.099  23.754  0.00  0.00    -0.210 NA
BRANCH   6   5
ATOM      5  O   UNL     1      -0.466   1.364  24.581  0.00  0.00    -0.457 OA
BRANCH   5   4
ATOM      4  C   UNL     1      -0.276   2.167  24.590  0.00  0.00    +0.239 C 
BRANCH   4   3
ATOM      3  C   UNL     1      -0.654   2.675  25.119  0.00  0.00    +0.189 C 
BRANCH   3   2
ATOM      1  C   UNL     1      -1.327   3.908  25.379  0.00  0.00    +0.174 C 
ATOM      2  O   UNL     1      -1.008   3.368  24.844  0.00  0.00    -0.347 OA
ENDBRANCH   3   2
ENDBRANCH   4   3
ENDBRANCH   5   4
ENDBRANCH   6   5
ENDBRANCH  12   7
BRANCH  15  17
ATOM     17  C   UNL     1      -3.028  -0.695  24.528  0.00  0.00    +0.138 C 
ATOM     18  C   UNL     1      -3.358  -1.392  24.235  0.00  0.00    +0.027 C 
ATOM     19  C   UNL     1      -4.178  -1.298  24.216  0.00  0.00    +0.019 C 
ATOM     20  C   UNL     1      -4.354  -0.543  24.497  0.00  0.00    +0.073 C 
ATOM     21  N   UNL     1      -3.643  -0.170  24.690  0.00  0.00    -0.263 NA
BRANCH  21  22
ATOM     22  C   UNL     1      -3.563   0.593  24.993  0.00  0.00    +0.099 C 
BRANCH  22  23
ATOM     23  C   UNL     1      -4.204   1.111  24.981  0.00  0.00    -0.006 A 
ATOM     24  C   UNL     1      -4.813   1.028  25.532  0.00  0.00    -0.002 A 
ATOM     25  C   UNL     1      -5.454   1.546  25.520  0.00  0.00    +0.011 A 
ATOM     26  C   UNL     1      -5.488   2.148  24.958  0.00  0.00    +0.058 A 
ATOM     27 CL   UNL     1      -6.130   2.667  24.946  0.00  0.00    -0.082 Cl
ATOM     28  C   UNL     1      -4.880   2.232  24.406  0.00  0.00    +0.011 A 
ATOM     29  C   UNL     1      -4.238   1.713  24.418  0.00  0.00    -0.002 A 
ENDBRANCH  22  23
ENDBRANCH  21  22
ENDBRANCH  15  17
TORSDOF 8
ENDMDL
