MODEL 1
REMARK VINA RESULT:     -16.6      0.000      0.000
REMARK  Name = 
REMARK  2 active torsions:
REMARK  status: ('A' for Active; 'I' for Inactive)
REMARK    1  A    between atoms: C_2  and  C_23
REMARK    2  A    between atoms: C_10  and  C_17
REMARK                            x       y       z     vdW  Elec       q    Type
REMARK                         _______ _______ _______ _____ _____    ______ ____
ROOT
ATOM      1  O   UNL     1      -3.926   4.073  24.229  0.00  0.00    -0.269 OA
ATOM      2  C   UNL     1      -4.034   3.208  24.383  0.00  0.00    +0.255 C 
ATOM      3  N   UNL     1      -3.396   2.666  24.177  0.00  0.00    -0.275 N 
ATOM      4  C   UNL     1      -2.631   2.537  23.866  0.00  0.00    +0.096 C 
ATOM      5  C   UNL     1      -2.576   1.555  23.964  0.00  0.00    +0.043 C 
ATOM      6  C   UNL     1      -2.376   0.766  23.976  0.00  0.00    +0.011 C 
ATOM      7  C   UNL     1      -2.922   1.165  24.161  0.00  0.00    +0.058 C 
ATOM      8  C   UNL     1      -2.961   2.114  24.059  0.00  0.00    +0.100 C 
ATOM      9  C   UNL     1      -3.763   1.111  24.527  0.00  0.00    +0.041 A 
ATOM     10  C   UNL     1      -4.298   0.558  24.825  0.00  0.00    +0.012 A 
ATOM     11  C   UNL     1      -5.032   0.805  25.108  0.00  0.00    +0.006 A 
ATOM     12  C   UNL     1      -5.231   1.606  25.095  0.00  0.00    +0.061 A 
ATOM     13  C   UNL     1      -4.697   2.159  24.797  0.00  0.00    +0.261 A 
ATOM     14  O   UNL     1      -4.759   3.187  24.696  0.00  0.00    -0.267 OA
ATOM     15  N   UNL     1      -3.963   1.912  24.513  0.00  0.00    -0.299 N 
ATOM     16  C   UNL     1      -3.455   1.509  24.346  0.00  0.00    +0.110 C 
ENDROOT
BRANCH  10  17
ATOM     17  C   UNL     1      -4.098  -0.243  24.839  0.00  0.00    +0.001 A 
ATOM     18  C   UNL     1      -3.722  -0.562  25.499  0.00  0.00    +0.000 A 
ATOM     19  C   UNL     1      -3.523  -1.363  25.513  0.00  0.00    +0.000 A 
ATOM     20  C   UNL     1      -3.699  -1.844  24.867  0.00  0.00    +0.000 A 
ATOM     21  C   UNL     1      -4.076  -1.524  24.206  0.00  0.00    +0.000 A 
ATOM     22  C   UNL     1      -4.275  -0.723  24.192  0.00  0.00    +0.000 A 
ENDBRANCH  10  17
BRANCH   2  23
ATOM     23  C   UNL     1      -4.710   2.667  24.740  0.00  0.00    +0.083 A 
ATOM     24  C   UNL     1      -5.219   2.123  24.386  0.00  0.00    +0.012 A 
ATOM     25  C   UNL     1      -5.705   1.809  24.974  0.00  0.00    +0.008 A 
ATOM     26  C   UNL     1      -5.496   2.159  25.691  0.00  0.00    +0.036 A 
ATOM     27  S   UNL     1      -4.881   2.691  25.546  0.00  0.00    -0.082 S 
ENDBRANCH   2  23
TORSDOF 2
ENDMDL
MODEL 2
REMARK VINA RESULT:     -16.4      0.760      2.046
REMARK  Name = 
REMARK  2 active torsions:
REMARK  status: ('A' for Active; 'I' for Inactive)
REMARK    1  A    between atoms: C_2  and  C_23
REMARK    2  A    between atoms: C_10  and  C_17
REMARK                            x       y       z     vdW  Elec       q    Type
REMARK                         _______ _______ _______ _____ _____    ______ ____
ROOT
ATOM      1  O   UNL     1      -4.069   4.032  24.217  0.00  0.00    -0.269 OA
ATOM      2  C   UNL     1      -3.912   3.161  24.210  0.00  0.00    +0.255 C 
ATOM      3  N   UNL     1      -4.469   2.634  24.605  0.00  0.00    -0.275 N 
ATOM      4  C   UNL     1      -5.171   2.527  25.046  0.00  0.00    +0.096 C 
ATOM      5  C   UNL     1      -5.159   1.543  25.138  0.00  0.00    +0.043 C 
ATOM      6  C   UNL     1      -5.294   0.757  25.301  0.00  0.00    +0.011 C 
ATOM      7  C   UNL     1      -4.812   1.142  24.967  0.00  0.00    +0.058 C 
ATOM      8  C   UNL     1      -4.838   2.093  24.885  0.00  0.00    +0.100 C 
ATOM      9  C   UNL     1      -4.028   1.064  24.494  0.00  0.00    +0.041 A 
ATOM     10  C   UNL     1      -3.496   0.494  24.226  0.00  0.00    +0.012 A 
ATOM     11  C   UNL     1      -2.830   0.721  23.795  0.00  0.00    +0.006 A 
ATOM     12  C   UNL     1      -2.697   1.519  23.632  0.00  0.00    +0.061 A 
ATOM     13  C   UNL     1      -3.229   2.089  23.900  0.00  0.00    +0.261 A 
ATOM     14  O   UNL     1      -3.237   3.119  23.801  0.00  0.00    -0.267 OA
ATOM     15  N   UNL     1      -3.894   1.862  24.331  0.00  0.00    -0.299 N 
ATOM     16  C   UNL     1      -4.340   1.472  24.644  0.00  0.00    +0.110 C 
ENDROOT
BRANCH  10  17
ATOM     17  C   UNL     1      -3.630  -0.304  24.389  0.00  0.00    +0.001 A 
ATOM     18  C   UNL     1      -4.051  -0.770  23.854  0.00  0.00    +0.000 A 
ATOM     19  C   UNL     1      -4.184  -1.567  24.017  0.00  0.00    +0.000 A 
ATOM     20  C   UNL     1      -3.897  -1.900  24.715  0.00  0.00    +0.000 A 
ATOM     21  C   UNL     1      -3.475  -1.435  25.250  0.00  0.00    +0.000 A 
ATOM     22  C   UNL     1      -3.342  -0.637  25.087  0.00  0.00    +0.000 A 
ENDBRANCH  10  17
BRANCH   2  23
ATOM     23  C   UNL     1      -3.249   2.599  23.861  0.00  0.00    +0.083 A 
ATOM     24  C   UNL     1      -3.252   2.085  23.217  0.00  0.00    +0.012 A 
ATOM     25  C   UNL     1      -2.508   1.731  23.170  0.00  0.00    +0.008 A 
ATOM     26  C   UNL     1      -2.046   2.026  23.785  0.00  0.00    +0.036 A 
ATOM     27  S   UNL     1      -2.504   2.564  24.213  0.00  0.00    -0.082 S 
ENDBRANCH   2  23
TORSDOF 2
ENDMDL
