MODEL 1
REMARK VINA RESULT:     -10.4      0.000      0.000
REMARK  Name = 
REMARK  7 active torsions:
REMARK  status: ('A' for Active; 'I' for Inactive)
REMARK    1  A    between atoms: C_2  and  N_3
REMARK    2  A    between atoms: N_6  and  C_7
REMARK    3  A    between atoms: C_7  and  C_8
REMARK    4  A    between atoms: C_12  and  C_13
REMARK    5  A    between atoms: C_13  and  C_14
REMARK    6  A    between atoms: C_17  and  C_19
REMARK    7  A    between atoms: C_26  and  C_27
REMARK                            x       y       z     vdW  Elec       q    Type
REMARK                         _______ _______ _______ _____ _____    ______ ____
ROOT
ATOM      8  C   UNL     1      -3.960   0.874  24.186  0.00  0.00    +0.043 C 
ATOM      9  C   UNL     1      -4.559   1.023  24.732  0.00  0.00    -0.033 C 
ATOM     10  C   UNL     1      -4.673   1.789  25.020  0.00  0.00    -0.048 C 
ATOM     11  C   UNL     1      -5.273   1.938  25.567  0.00  0.00    +0.026 C 
ATOM     12  C   UNL     1      -4.188   2.403  24.761  0.00  0.00    +0.027 C 
ATOM     25  C   UNL     1      -3.588   2.253  24.215  0.00  0.00    +0.005 C 
ATOM     26  C   UNL     1      -3.474   1.489  23.927  0.00  0.00    +0.006 C 
ENDROOT
BRANCH  26  27
ATOM     27  C   UNL     1      -2.875   1.338  23.380  0.00  0.00    +0.000 C 
ATOM     28  C   UNL     1      -2.148   1.045  23.635  0.00  0.00    +0.000 C 
ATOM     29  C   UNL     1      -3.003   1.482  22.577  0.00  0.00    +0.000 C 
ENDBRANCH  26  27
BRANCH   8   7
ATOM      7  C   UNL     1      -3.846   0.109  23.898  0.00  0.00    +0.121 C 
BRANCH   7   6
ATOM      3  N   UNL     1      -3.839  -1.938  24.657  0.00  0.00    -0.187 NA
ATOM      4  C   UNL     1      -3.867  -1.301  24.134  0.00  0.00    +0.339 C 
ATOM      5  O   UNL     1      -3.943  -1.435  23.324  0.00  0.00    -0.249 OA
ATOM      6  N   UNL     1      -3.818  -0.528  24.421  0.00  0.00    -0.187 NA
BRANCH   3   2
ATOM      1  C   UNL     1      -3.463  -3.314  24.737  0.00  0.00    +0.025 C 
ATOM      2  C   UNL     1      -3.888  -2.710  24.369  0.00  0.00    +0.117 C 
ENDBRANCH   3   2
ENDBRANCH   7   6
ENDBRANCH   8   7
BRANCH  12  13
ATOM     13  C   UNL     1      -4.302   3.167  25.049  0.00  0.00    +0.091 C 
BRANCH  13  14
ATOM     14  C   UNL     1      -3.666   3.592  25.359  0.00  0.00    +0.227 A 
ATOM     15  N   UNL     1      -3.523   3.735  26.158  0.00  0.00    -0.111 NA
ATOM     16  N   UNL     1      -2.830   4.179  26.218  0.00  0.00    -0.106 NA
ATOM     17  C   UNL     1      -2.545   4.310  25.455  0.00  0.00    +0.267 A 
ATOM     18  O   UNL     1      -3.062   3.947  24.924  0.00  0.00    -0.418 OA
BRANCH  17  19
ATOM     19  C   UNL     1      -1.863   4.730  25.258  0.00  0.00    +0.136 A 
ATOM     20  C   UNL     1      -1.830   5.521  25.027  0.00  0.00    +0.123 A 
ATOM     21  N   UNL     1      -1.041   5.713  24.884  0.00  0.00    -0.222 NA
ATOM     22  C   UNL     1      -0.586   5.039  25.026  0.00  0.00    +0.179 A 
ATOM     23  N   UNL     1      -1.094   4.432  25.258  0.00  0.00    -0.303 N 
ATOM     24  C   UNL     1      -0.871   3.663  25.454  0.00  0.00    +0.132 C 
ENDBRANCH  17  19
ENDBRANCH  13  14
ENDBRANCH  12  13
TORSDOF 7
ENDMDL
MODEL 2
REMARK VINA RESULT:     -10.2      2.565      4.247
REMARK  Name = 
REMARK  7 active torsions:
REMARK  status: ('A' for Active; 'I' for Inactive)
REMARK    1  A    between atoms: C_2  and  N_3
REMARK    2  A    between atoms: N_6  and  C_7
REMARK    3  A    between atoms: C_7  and  C_8
REMARK    4  A    between atoms: C_12  and  C_13
REMARK    5  A    between atoms: C_13  and  C_14
REMARK    6  A    between atoms: C_17  and  C_19
REMARK    7  A    between atoms: C_26  and  C_27
REMARK                            x       y       z     vdW  Elec       q    Type
REMARK                         _______ _______ _______ _____ _____    ______ ____
ROOT
ATOM      8  C   UNL     1      -0.527   1.395  24.362  0.00  0.00    +0.043 C 
ATOM      9  C   UNL     1      -0.318   2.186  24.256  0.00  0.00    -0.033 C 
ATOM     10  C   UNL     1      -0.805   2.783  24.552  0.00  0.00    -0.048 C 
ATOM     11  C   UNL     1      -0.596   3.574  24.447  0.00  0.00    +0.026 C 
ATOM     12  C   UNL     1      -1.500   2.589  24.953  0.00  0.00    +0.027 C 
ATOM     25  C   UNL     1      -1.708   1.798  25.057  0.00  0.00    +0.005 C 
ATOM     26  C   UNL     1      -1.222   1.201  24.762  0.00  0.00    +0.006 C 
ENDROOT
BRANCH  26  27
ATOM     27  C   UNL     1      -1.430   0.409  24.866  0.00  0.00    +0.000 C 
ATOM     28  C   UNL     1      -1.873   0.019  24.291  0.00  0.00    +0.000 C 
ATOM     29  C   UNL     1      -1.193   0.007  25.548  0.00  0.00    +0.000 C 
ENDBRANCH  26  27
BRANCH   8   7
ATOM      7  C   UNL     1      -0.040   0.797  24.066  0.00  0.00    +0.121 C 
BRANCH   7   6
ATOM      3  N   UNL     1       1.912   0.617  23.107  0.00  0.00    -0.187 NA
ATOM      4  C   UNL     1       1.144   0.439  23.351  0.00  0.00    +0.339 C 
ATOM      5  O   UNL     1       0.793  -0.271  23.124  0.00  0.00    -0.249 OA
ATOM      6  N   UNL     1       0.728   0.974  23.822  0.00  0.00    -0.187 NA
BRANCH   3   2
ATOM      1  C   UNL     1       3.090   0.266  22.378  0.00  0.00    +0.025 C 
ATOM      2  C   UNL     1       2.329   0.082  22.636  0.00  0.00    +0.117 C 
ENDBRANCH   3   2
ENDBRANCH   7   6
ENDBRANCH   8   7
BRANCH  12  13
ATOM     13  C   UNL     1      -1.985   3.186  25.248  0.00  0.00    +0.091 C 
BRANCH  13  14
ATOM     14  C   UNL     1      -2.787   3.200  25.054  0.00  0.00    +0.227 A 
ATOM     15  N   UNL     1      -3.109   3.461  24.341  0.00  0.00    -0.111 NA
ATOM     16  N   UNL     1      -3.929   3.378  24.385  0.00  0.00    -0.106 NA
ATOM     17  C   UNL     1      -4.113   3.066  25.127  0.00  0.00    +0.267 A 
ATOM     18  O   UNL     1      -3.407   2.956  25.540  0.00  0.00    -0.418 OA
BRANCH  17  19
ATOM     19  C   UNL     1      -4.870   2.893  25.405  0.00  0.00    +0.136 A 
ATOM     20  C   UNL     1      -5.325   3.370  25.901  0.00  0.00    +0.123 A 
ATOM     21  N   UNL     1      -6.041   2.986  26.038  0.00  0.00    -0.222 NA
ATOM     22  C   UNL     1      -6.029   2.270  25.627  0.00  0.00    +0.179 A 
ATOM     23  N   UNL     1      -5.305   2.214  25.236  0.00  0.00    -0.303 N 
ATOM     24  C   UNL     1      -5.061   1.587  24.759  0.00  0.00    +0.132 C 
ENDBRANCH  17  19
ENDBRANCH  13  14
ENDBRANCH  12  13
TORSDOF 7
ENDMDL
MODEL 3
REMARK VINA RESULT:      -9.5      2.665      4.342
REMARK  Name = 
REMARK  7 active torsions:
REMARK  status: ('A' for Active; 'I' for Inactive)
REMARK    1  A    between atoms: C_2  and  N_3
REMARK    2  A    between atoms: N_6  and  C_7
REMARK    3  A    between atoms: C_7  and  C_8
REMARK    4  A    between atoms: C_12  and  C_13
REMARK    5  A    between atoms: C_13  and  C_14
REMARK    6  A    between atoms: C_17  and  C_19
REMARK    7  A    between atoms: C_26  and  C_27
REMARK                            x       y       z     vdW  Elec       q    Type
REMARK                         _______ _______ _______ _____ _____    ______ ____
ROOT
ATOM      8  C   UNL     1      -0.633   0.859  24.374  0.00  0.00    +0.043 C 
ATOM      9  C   UNL     1      -0.951   0.107  24.255  0.00  0.00    -0.033 C 
ATOM     10  C   UNL     1      -1.721  -0.059  24.502  0.00  0.00    -0.048 C 
ATOM     11  C   UNL     1      -2.039  -0.810  24.383  0.00  0.00    +0.026 C 
ATOM     12  C   UNL     1      -2.172   0.527  24.868  0.00  0.00    +0.027 C 
ATOM     25  C   UNL     1      -1.853   1.279  24.987  0.00  0.00    +0.005 C 
ATOM     26  C   UNL     1      -1.084   1.444  24.740  0.00  0.00    +0.006 C 
ENDROOT
BRANCH  26  27
ATOM     27  C   UNL     1      -0.765   2.196  24.859  0.00  0.00    +0.000 C 
ATOM     28  C   UNL     1      -0.817   2.766  24.265  0.00  0.00    +0.000 C 
ATOM     29  C   UNL     1      -0.392   2.378  25.573  0.00  0.00    +0.000 C 
ENDBRANCH  26  27
BRANCH   8   7
ATOM      7  C   UNL     1       0.137   1.024  24.127  0.00  0.00    +0.121 C 
BRANCH   7   6
ATOM      3  N   UNL     1       1.683   0.152  22.857  0.00  0.00    -0.187 NA
ATOM      4  C   UNL     1       1.304   0.656  23.388  0.00  0.00    +0.339 C 
ATOM      5  O   UNL     1       1.711   1.295  23.712  0.00  0.00    -0.249 OA
ATOM      6  N   UNL     1       0.516   0.520  23.595  0.00  0.00    -0.187 NA
BRANCH   3   2
ATOM      1  C   UNL     1       2.791  -0.079  21.985  0.00  0.00    +0.025 C 
ATOM      2  C   UNL     1       2.471   0.288  22.650  0.00  0.00    +0.117 C 
ENDBRANCH   3   2
ENDBRANCH   7   6
ENDBRANCH   8   7
BRANCH  12  13
ATOM     13  C   UNL     1      -2.941   0.361  25.115  0.00  0.00    +0.091 C 
BRANCH  13  14
ATOM     14  C   UNL     1      -3.556   0.878  24.926  0.00  0.00    +0.227 A 
ATOM     15  N   UNL     1      -3.942   0.925  24.200  0.00  0.00    -0.111 NA
ATOM     16  N   UNL     1      -4.518   1.514  24.254  0.00  0.00    -0.106 NA
ATOM     17  C   UNL     1      -4.486   1.830  25.016  0.00  0.00    +0.267 A 
ATOM     18  O   UNL     1      -3.892   1.437  25.431  0.00  0.00    -0.418 OA
BRANCH  17  19
ATOM     19  C   UNL     1      -4.966   2.434  25.310  0.00  0.00    +0.136 A 
ATOM     20  C   UNL     1      -5.624   2.337  25.798  0.00  0.00    +0.123 A 
ATOM     21  N   UNL     1      -5.936   3.083  25.957  0.00  0.00    -0.222 NA
ATOM     22  C   UNL     1      -5.470   3.642  25.568  0.00  0.00    +0.179 A 
ATOM     23  N   UNL     1      -4.871   3.240  25.168  0.00  0.00    -0.303 N 
ATOM     24  C   UNL     1      -4.280   3.586  24.708  0.00  0.00    +0.132 C 
ENDBRANCH  17  19
ENDBRANCH  13  14
ENDBRANCH  12  13
TORSDOF 7
ENDMDL
MODEL 4
REMARK VINA RESULT:      -9.0      0.983      5.321
REMARK  Name = 
REMARK  7 active torsions:
REMARK  status: ('A' for Active; 'I' for Inactive)
REMARK    1  A    between atoms: C_2  and  N_3
REMARK    2  A    between atoms: N_6  and  C_7
REMARK    3  A    between atoms: C_7  and  C_8
REMARK    4  A    between atoms: C_12  and  C_13
REMARK    5  A    between atoms: C_13  and  C_14
REMARK    6  A    between atoms: C_17  and  C_19
REMARK    7  A    between atoms: C_26  and  C_27
REMARK                            x       y       z     vdW  Elec       q    Type
REMARK                         _______ _______ _______ _____ _____    ______ ____
ROOT
ATOM      8  C   UNL     1      -3.464   2.420  24.258  0.00  0.00    +0.043 C 
ATOM      9  C   UNL     1      -4.064   2.405  24.824  0.00  0.00    -0.033 C 
ATOM     10  C   UNL     1      -4.471   1.703  24.975  0.00  0.00    -0.048 C 
ATOM     11  C   UNL     1      -5.071   1.688  25.541  0.00  0.00    +0.026 C 
ATOM     12  C   UNL     1      -4.278   1.017  24.560  0.00  0.00    +0.027 C 
ATOM     25  C   UNL     1      -3.678   1.033  23.993  0.00  0.00    +0.005 C 
ATOM     26  C   UNL     1      -3.271   1.734  23.843  0.00  0.00    +0.006 C 
ENDROOT
BRANCH  26  27
ATOM     27  C   UNL     1      -2.671   1.750  23.276  0.00  0.00    +0.000 C 
ATOM     28  C   UNL     1      -2.840   1.979  22.503  0.00  0.00    +0.000 C 
ATOM     29  C   UNL     1      -1.901   1.536  23.485  0.00  0.00    +0.000 C 
ENDBRANCH  26  27
BRANCH   8   7
ATOM      7  C   UNL     1      -3.057   3.122  24.108  0.00  0.00    +0.121 C 
BRANCH   7   6
ATOM      3  N   UNL     1      -1.938   4.618  25.237  0.00  0.00    -0.187 NA
ATOM      4  C   UNL     1      -2.388   4.267  24.641  0.00  0.00    +0.339 C 
ATOM      5  O   UNL     1      -2.618   4.708  23.984  0.00  0.00    -0.249 OA
ATOM      6  N   UNL     1      -2.607   3.473  24.703  0.00  0.00    -0.187 NA
BRANCH   3   2
ATOM      1  C   UNL     1      -0.926   5.612  25.065  0.00  0.00    +0.025 C 
ATOM      2  C   UNL     1      -1.719   5.411  25.174  0.00  0.00    +0.117 C 
ENDBRANCH   3   2
ENDBRANCH   7   6
ENDBRANCH   8   7
BRANCH  12  13
ATOM     13  C   UNL     1      -4.685   0.316  24.710  0.00  0.00    +0.091 C 
BRANCH  13  14
ATOM     14  C   UNL     1      -4.272  -0.362  24.935  0.00  0.00    +0.227 A 
ATOM     15  N   UNL     1      -4.033  -0.551  25.701  0.00  0.00    -0.111 NA
ATOM     16  N   UNL     1      -3.638  -1.275  25.674  0.00  0.00    -0.106 NA
ATOM     17  C   UNL     1      -3.634  -1.533  24.890  0.00  0.00    +0.267 A 
ATOM     18  O   UNL     1      -4.026  -0.968  24.433  0.00  0.00    -0.418 OA
BRANCH  17  19
ATOM     19  C   UNL     1      -3.297  -2.233  24.611  0.00  0.00    +0.136 A 
ATOM     20  C   UNL     1      -3.708  -2.899  24.351  0.00  0.00    +0.123 A 
ATOM     21  N   UNL     1      -3.155  -3.467  24.124  0.00  0.00    -0.222 NA
ATOM     22  C   UNL     1      -2.402  -3.152  24.244  0.00  0.00    +0.179 A 
ATOM     23  N   UNL     1      -2.490  -2.389  24.545  0.00  0.00    -0.303 N 
ATOM     24  C   UNL     1      -1.878  -1.873  24.745  0.00  0.00    +0.132 C 
ENDBRANCH  17  19
ENDBRANCH  13  14
ENDBRANCH  12  13
TORSDOF 7
ENDMDL
MODEL 5
REMARK VINA RESULT:      -8.7      1.194      2.239
REMARK  Name = 
REMARK  7 active torsions:
REMARK  status: ('A' for Active; 'I' for Inactive)
REMARK    1  A    between atoms: C_2  and  N_3
REMARK    2  A    between atoms: N_6  and  C_7
REMARK    3  A    between atoms: C_7  and  C_8
REMARK    4  A    between atoms: C_12  and  C_13
REMARK    5  A    between atoms: C_13  and  C_14
REMARK    6  A    between atoms: C_17  and  C_19
REMARK    7  A    between atoms: C_26  and  C_27
REMARK                            x       y       z     vdW  Elec       q    Type
REMARK                         _______ _______ _______ _____ _____    ______ ____
ROOT
ATOM      8  C   UNL     1      -2.485   0.077  24.372  0.00  0.00    +0.043 C 
ATOM      9  C   UNL     1      -1.738  -0.243  24.513  0.00  0.00    -0.033 C 
ATOM     10  C   UNL     1      -1.085   0.255  24.594  0.00  0.00    -0.048 C 
ATOM     11  C   UNL     1      -0.338  -0.065  24.735  0.00  0.00    +0.026 C 
ATOM     12  C   UNL     1      -1.180   1.073  24.535  0.00  0.00    +0.027 C 
ATOM     25  C   UNL     1      -1.928   1.391  24.394  0.00  0.00    +0.005 C 
ATOM     26  C   UNL     1      -2.580   0.894  24.313  0.00  0.00    +0.006 C 
ENDROOT
BRANCH  26  27
ATOM     27  C   UNL     1      -3.328   1.213  24.172  0.00  0.00    +0.000 C 
ATOM     28  C   UNL     1      -3.859   1.311  24.795  0.00  0.00    +0.000 C 
ATOM     29  C   UNL     1      -3.545   1.433  23.406  0.00  0.00    +0.000 C 
ENDBRANCH  26  27
BRANCH   8   7
ATOM      7  C   UNL     1      -3.139  -0.422  24.291  0.00  0.00    +0.121 C 
BRANCH   7   6
ATOM      3  N   UNL     1      -3.563  -2.561  24.384  0.00  0.00    -0.187 NA
ATOM      4  C   UNL     1      -3.630  -1.761  24.196  0.00  0.00    +0.339 C 
ATOM      5  O   UNL     1      -4.254  -1.498  23.726  0.00  0.00    -0.249 OA
ATOM      6  N   UNL     1      -3.071  -1.222  24.479  0.00  0.00    -0.187 NA
BRANCH   3   2
ATOM      1  C   UNL     1      -3.946  -3.905  24.085  0.00  0.00    +0.025 C 
ATOM      2  C   UNL     1      -4.122  -3.099  24.101  0.00  0.00    +0.117 C 
ENDBRANCH   3   2
ENDBRANCH   7   6
ENDBRANCH   8   7
BRANCH  12  13
ATOM     13  C   UNL     1      -0.528   1.570  24.616  0.00  0.00    +0.091 C 
BRANCH  13  14
ATOM     14  C   UNL     1      -0.606   2.295  25.003  0.00  0.00    +0.227 A 
ATOM     15  N   UNL     1      -0.483   2.429  25.807  0.00  0.00    -0.111 NA
ATOM     16  N   UNL     1      -0.622   3.229  25.956  0.00  0.00    -0.106 NA
ATOM     17  C   UNL     1      -0.831   3.588  25.243  0.00  0.00    +0.267 A 
ATOM     18  O   UNL     1      -0.821   3.010  24.654  0.00  0.00    -0.418 OA
BRANCH  17  19
ATOM     19  C   UNL     1      -1.017   4.385  25.138  0.00  0.00    +0.136 A 
ATOM     20  C   UNL     1      -0.536   4.952  24.781  0.00  0.00    +0.123 A 
ATOM     21  N   UNL     1      -0.938   5.672  24.794  0.00  0.00    -0.222 NA
ATOM     22  C   UNL     1      -1.668   5.550  25.160  0.00  0.00    +0.179 A 
ATOM     23  N   UNL     1      -1.716   4.754  25.373  0.00  0.00    -0.303 N 
ATOM     24  C   UNL     1      -2.352   4.392  25.753  0.00  0.00    +0.132 C 
ENDBRANCH  17  19
ENDBRANCH  13  14
ENDBRANCH  12  13
TORSDOF 7
ENDMDL
MODEL 6
REMARK VINA RESULT:      -8.4      2.101      5.074
REMARK  Name = 
REMARK  7 active torsions:
REMARK  status: ('A' for Active; 'I' for Inactive)
REMARK    1  A    between atoms: C_2  and  N_3
REMARK    2  A    between atoms: N_6  and  C_7
REMARK    3  A    between atoms: C_7  and  C_8
REMARK    4  A    between atoms: C_12  and  C_13
REMARK    5  A    between atoms: C_13  and  C_14
REMARK    6  A    between atoms: C_17  and  C_19
REMARK    7  A    between atoms: C_26  and  C_27
REMARK                            x       y       z     vdW  Elec       q    Type
REMARK                         _______ _______ _______ _____ _____    ______ ____
ROOT
ATOM      8  C   UNL     1      -2.336   3.029  24.502  0.00  0.00    +0.043 C 
ATOM      9  C   UNL     1      -2.660   2.598  23.877  0.00  0.00    -0.033 C 
ATOM     10  C   UNL     1      -2.189   2.066  23.456  0.00  0.00    -0.048 C 
ATOM     11  C   UNL     1      -2.513   1.635  22.831  0.00  0.00    +0.026 C 
ATOM     12  C   UNL     1      -1.396   1.966  23.660  0.00  0.00    +0.027 C 
ATOM     25  C   UNL     1      -1.074   2.397  24.285  0.00  0.00    +0.005 C 
ATOM     26  C   UNL     1      -1.543   2.928  24.706  0.00  0.00    +0.006 C 
ENDROOT
BRANCH  26  27
ATOM     27  C   UNL     1      -1.221   3.360  25.331  0.00  0.00    +0.000 C 
ATOM     28  C   UNL     1      -1.168   3.023  26.081  0.00  0.00    +0.000 C 
ATOM     29  C   UNL     1      -0.952   4.131  25.204  0.00  0.00    +0.000 C 
ENDBRANCH  26  27
BRANCH   8   7
ATOM      7  C   UNL     1      -2.807   3.561  24.923  0.00  0.00    +0.121 C 
BRANCH   7   6
ATOM      3  N   UNL     1      -4.955   3.900  25.110  0.00  0.00    -0.187 NA
ATOM      4  C   UNL     1      -4.160   3.805  25.311  0.00  0.00    +0.339 C 
ATOM      5  O   UNL     1      -3.925   3.858  26.099  0.00  0.00    -0.249 OA
ATOM      6  N   UNL     1      -3.601   3.656  24.722  0.00  0.00    -0.187 NA
BRANCH   3   2
ATOM      1  C   UNL     1      -6.239   3.657  25.687  0.00  0.00    +0.025 C 
ATOM      2  C   UNL     1      -5.514   4.049  25.700  0.00  0.00    +0.117 C 
ENDBRANCH   3   2
ENDBRANCH   7   6
ENDBRANCH   8   7
BRANCH  12  13
ATOM     13  C   UNL     1      -0.926   1.434  23.239  0.00  0.00    +0.091 C 
BRANCH  13  14
ATOM     14  C   UNL     1      -0.661   0.742  23.601  0.00  0.00    +0.227 A 
ATOM     15  N   UNL     1       0.126   0.543  23.746  0.00  0.00    -0.111 NA
ATOM     16  N   UNL     1       0.139  -0.194  24.115  0.00  0.00    -0.106 NA
ATOM     17  C   UNL     1      -0.641  -0.451  24.197  0.00  0.00    +0.267 A 
ATOM     18  O   UNL     1      -1.135   0.128  23.879  0.00  0.00    -0.418 OA
BRANCH  17  19
ATOM     19  C   UNL     1      -0.883  -1.163  24.538  0.00  0.00    +0.136 A 
ATOM     20  C   UNL     1      -1.026  -1.869  24.137  0.00  0.00    +0.123 A 
ATOM     21  N   UNL     1      -1.256  -2.435  24.690  0.00  0.00    -0.222 NA
ATOM     22  C   UNL     1      -1.255  -2.079  25.435  0.00  0.00    +0.179 A 
ATOM     23  N   UNL     1      -1.025  -1.292  25.340  0.00  0.00    -0.303 N 
ATOM     24  C   UNL     1      -0.950  -0.734  25.943  0.00  0.00    +0.132 C 
ENDBRANCH  17  19
ENDBRANCH  13  14
ENDBRANCH  12  13
TORSDOF 7
ENDMDL
MODEL 7
REMARK VINA RESULT:      -6.6     17.483     19.065
REMARK  Name = 
REMARK  7 active torsions:
REMARK  status: ('A' for Active; 'I' for Inactive)
REMARK    1  A    between atoms: C_2  and  N_3
REMARK    2  A    between atoms: N_6  and  C_7
REMARK    3  A    between atoms: C_7  and  C_8
REMARK    4  A    between atoms: C_12  and  C_13
REMARK    5  A    between atoms: C_13  and  C_14
REMARK    6  A    between atoms: C_17  and  C_19
REMARK    7  A    between atoms: C_26  and  C_27
REMARK                            x       y       z     vdW  Elec       q    Type
REMARK                         _______ _______ _______ _____ _____    ______ ____
ROOT
ATOM      8  C   UNL     1      -5.034  -9.885  10.312  0.00  0.00    +0.043 C 
ATOM      9  C   UNL     1      -5.537  -9.811  10.962  0.00  0.00    -0.033 C 
ATOM     10  C   UNL     1      -6.346  -9.693  10.846  0.00  0.00    -0.048 C 
ATOM     11  C   UNL     1      -6.849  -9.619  11.496  0.00  0.00    +0.026 C 
ATOM     12  C   UNL     1      -6.651  -9.649  10.081  0.00  0.00    +0.027 C 
ATOM     25  C   UNL     1      -6.147  -9.723   9.432  0.00  0.00    +0.005 C 
ATOM     26  C   UNL     1      -5.339  -9.841   9.547  0.00  0.00    +0.006 C 
ENDROOT
BRANCH  26  27
ATOM     27  C   UNL     1      -4.835  -9.915   8.898  0.00  0.00    +0.000 C 
ATOM     28  C   UNL     1      -4.452  -9.251   8.595  0.00  0.00    +0.000 C 
ATOM     29  C   UNL     1      -4.716 -10.655   8.551  0.00  0.00    +0.000 C 
ENDBRANCH  26  27
BRANCH   8   7
ATOM      7  C   UNL     1      -4.225 -10.003  10.428  0.00  0.00    +0.121 C 
BRANCH   7   6
ATOM      3  N   UNL     1      -2.851 -10.172  12.116  0.00  0.00    -0.187 NA
ATOM      4  C   UNL     1      -3.177 -10.265  11.364  0.00  0.00    +0.339 C 
ATOM      5  O   UNL     1      -2.783 -10.714  10.796  0.00  0.00    -0.249 OA
ATOM      6  N   UNL     1      -3.899  -9.909  11.180  0.00  0.00    -0.187 NA
BRANCH   3   2
ATOM      1  C   UNL     1      -1.797 -10.423  13.047  0.00  0.00    +0.025 C 
ATOM      2  C   UNL     1      -2.129 -10.528  12.299  0.00  0.00    +0.117 C 
ENDBRANCH   3   2
ENDBRANCH   7   6
ENDBRANCH   8   7
BRANCH  12  13
ATOM     13  C   UNL     1      -7.459  -9.531   9.965  0.00  0.00    +0.091 C 
BRANCH  13  14
ATOM     14  C   UNL     1      -7.721  -9.021   9.373  0.00  0.00    +0.227 A 
ATOM     15  N   UNL     1      -7.979  -9.243   8.622  0.00  0.00    -0.111 NA
ATOM     16  N   UNL     1      -8.190  -8.559   8.211  0.00  0.00    -0.106 NA
ATOM     17  C   UNL     1      -8.061  -7.914   8.710  0.00  0.00    +0.267 A 
ATOM     18  O   UNL     1      -7.772  -8.200   9.428  0.00  0.00    -0.418 OA
BRANCH  17  19
ATOM     19  C   UNL     1      -8.199  -7.122   8.523  0.00  0.00    +0.136 A 
ATOM     20  C   UNL     1      -7.641  -6.588   8.233  0.00  0.00    +0.123 A 
ATOM     21  N   UNL     1      -8.015  -5.862   8.124  0.00  0.00    -0.222 NA
ATOM     22  C   UNL     1      -8.806  -5.947   8.346  0.00  0.00    +0.179 A 
ATOM     23  N   UNL     1      -8.919  -6.726   8.593  0.00  0.00    -0.303 N 
ATOM     24  C   UNL     1      -9.628  -7.051   8.861  0.00  0.00    +0.132 C 
ENDBRANCH  17  19
ENDBRANCH  13  14
ENDBRANCH  12  13
TORSDOF 7
ENDMDL
