MODEL 1
REMARK VINA RESULT:     -11.8      0.000      0.000
REMARK  Name = 
REMARK  5 active torsions:
REMARK  status: ('A' for Active; 'I' for Inactive)
REMARK    1  A    between atoms: C_2  and  S_3
REMARK    2  A    between atoms: S_3  and  C_6
REMARK    3  A    between atoms: C_11  and  C_13
REMARK    4  A    between atoms: N_16  and  C_17
REMARK    5  A    between atoms: C_17  and  C_18
REMARK                            x       y       z     vdW  Elec       q    Type
REMARK                         _______ _______ _______ _____ _____    ______ ____
ROOT
ATOM      6  C   UNL     1      -0.853   3.449  25.327  0.00  0.00    +0.107 A 
ATOM      7  C   UNL     1      -1.300   2.864  24.955  0.00  0.00    +0.041 A 
ATOM      8  C   UNL     1      -1.197   2.071  25.162  0.00  0.00    +0.120 A 
ATOM      9  C   UNL     1      -0.648   1.865  25.742  0.00  0.00    +0.164 A 
ATOM     10  O   UNL     1      -0.667   1.046  25.831  0.00  0.00    -0.438 OA
ATOM     11  C   UNL     1      -1.228   0.745  25.307  0.00  0.00    +0.207 A 
ATOM     12  N   UNL     1      -1.555   1.379  24.894  0.00  0.00    -0.212 NA
ATOM     26  C   UNL     1      -0.201   2.451  26.115  0.00  0.00    +0.040 A 
ATOM     27  C   UNL     1      -0.304   3.242  25.906  0.00  0.00    +0.022 A 
ENDROOT
BRANCH  11  13
ATOM     13  C   UNL     1      -1.427  -0.050  25.212  0.00  0.00    +0.094 C 
ATOM     14  C   UNL     1      -0.945  -0.635  24.885  0.00  0.00    +0.028 C 
ATOM     15  C   UNL     1      -1.362  -1.346  24.898  0.00  0.00    +0.073 C 
ATOM     16  N   UNL     1      -2.102  -1.202  25.233  0.00  0.00    -0.268 NA
ATOM     25  C   UNL     1      -2.142  -0.400  25.427  0.00  0.00    +0.082 C 
BRANCH  16  17
ATOM     17  C   UNL     1      -2.698  -1.759  25.353  0.00  0.00    +0.099 C 
BRANCH  17  18
ATOM     18  C   UNL     1      -3.287  -1.864  24.785  0.00  0.00    -0.010 A 
ATOM     19  C   UNL     1      -3.615  -1.209  24.405  0.00  0.00    -0.003 A 
ATOM     20  C   UNL     1      -4.204  -1.315  23.837  0.00  0.00    -0.000 A 
ATOM     21  C   UNL     1      -4.464  -2.074  23.648  0.00  0.00    -0.000 A 
ATOM     22  C   UNL     1      -4.135  -2.729  24.027  0.00  0.00    -0.005 A 
ATOM     23  C   UNL     1      -3.546  -2.624  24.596  0.00  0.00    -0.024 A 
ATOM     24  C   UNL     1      -3.217  -3.279  24.975  0.00  0.00    +0.031 C 
ENDBRANCH  17  18
ENDBRANCH  16  17
ENDBRANCH  11  13
BRANCH   6   3
ATOM      3  S   UNL     1      -0.956   4.240  25.119  0.00  0.00    +0.009 S 
ATOM      4  O   UNL     1      -0.445   4.139  24.479  0.00  0.00    -0.169 OA
ATOM      5  O   UNL     1      -1.466   4.342  25.759  0.00  0.00    -0.169 OA
BRANCH   3   2
ATOM      1  C   UNL     1      -1.759   5.422  25.108  0.00  0.00    +0.028 C 
ATOM      2  C   UNL     1      -1.059   5.032  24.912  0.00  0.00    +0.156 C 
ENDBRANCH   3   2
ENDBRANCH   6   3
TORSDOF 5
ENDMDL
MODEL 2
REMARK VINA RESULT:     -11.7      1.623      2.229
REMARK  Name = 
REMARK  5 active torsions:
REMARK  status: ('A' for Active; 'I' for Inactive)
REMARK    1  A    between atoms: C_2  and  S_3
REMARK    2  A    between atoms: S_3  and  C_6
REMARK    3  A    between atoms: C_11  and  C_13
REMARK    4  A    between atoms: N_16  and  C_17
REMARK    5  A    between atoms: C_17  and  C_18
REMARK                            x       y       z     vdW  Elec       q    Type
REMARK                         _______ _______ _______ _____ _____    ______ ____
ROOT
ATOM      6  C   UNL     1      -1.993   4.039  25.224  0.00  0.00    +0.107 A 
ATOM      7  C   UNL     1      -2.036   3.302  24.857  0.00  0.00    +0.041 A 
ATOM      8  C   UNL     1      -2.699   2.823  24.967  0.00  0.00    +0.120 A 
ATOM      9  C   UNL     1      -3.320   3.083  25.445  0.00  0.00    +0.164 A 
ATOM     10  O   UNL     1      -3.899   2.496  25.452  0.00  0.00    -0.438 OA
ATOM     11  C   UNL     1      -3.637   1.874  24.979  0.00  0.00    +0.207 A 
ATOM     12  N   UNL     1      -2.895   2.077  24.680  0.00  0.00    -0.212 NA
ATOM     26  C   UNL     1      -3.277   3.821  25.812  0.00  0.00    +0.040 A 
ATOM     27  C   UNL     1      -2.614   4.299  25.702  0.00  0.00    +0.022 A 
ENDROOT
BRANCH  11  13
ATOM     13  C   UNL     1      -4.044   1.172  24.830  0.00  0.00    +0.094 C 
ATOM     14  C   UNL     1      -4.821   1.006  25.052  0.00  0.00    +0.028 C 
ATOM     15  C   UNL     1      -5.004   0.245  24.793  0.00  0.00    +0.073 C 
ATOM     16  N   UNL     1      -4.340  -0.061  24.412  0.00  0.00    -0.268 NA
ATOM     25  C   UNL     1      -3.746   0.512  24.435  0.00  0.00    +0.082 C 
BRANCH  16  17
ATOM     17  C   UNL     1      -4.278  -0.808  24.068  0.00  0.00    +0.099 C 
BRANCH  17  18
ATOM     18  C   UNL     1      -3.945  -1.432  24.493  0.00  0.00    -0.010 A 
ATOM     19  C   UNL     1      -3.619  -1.297  25.239  0.00  0.00    -0.003 A 
ATOM     20  C   UNL     1      -3.286  -1.921  25.662  0.00  0.00    -0.000 A 
ATOM     21  C   UNL     1      -3.279  -2.681  25.342  0.00  0.00    -0.000 A 
ATOM     22  C   UNL     1      -3.605  -2.817  24.596  0.00  0.00    -0.005 A 
ATOM     23  C   UNL     1      -3.938  -2.192  24.171  0.00  0.00    -0.024 A 
ATOM     24  C   UNL     1      -4.264  -2.327  23.425  0.00  0.00    +0.031 C 
ENDBRANCH  17  18
ENDBRANCH  16  17
ENDBRANCH  11  13
BRANCH   6   3
ATOM      3  S   UNL     1      -1.330   4.517  25.114  0.00  0.00    +0.009 S 
ATOM      4  O   UNL     1      -1.816   5.133  24.858  0.00  0.00    -0.169 OA
ATOM      5  O   UNL     1      -0.843   3.902  25.370  0.00  0.00    -0.169 OA
BRANCH   3   2
ATOM      1  C   UNL     1      -0.744   5.730  24.637  0.00  0.00    +0.028 C 
ATOM      2  C   UNL     1      -0.666   4.995  25.004  0.00  0.00    +0.156 C 
ENDBRANCH   3   2
ENDBRANCH   6   3
TORSDOF 5
ENDMDL
MODEL 3
REMARK VINA RESULT:     -11.7      1.928      5.604
REMARK  Name = 
REMARK  5 active torsions:
REMARK  status: ('A' for Active; 'I' for Inactive)
REMARK    1  A    between atoms: C_2  and  S_3
REMARK    2  A    between atoms: S_3  and  C_6
REMARK    3  A    between atoms: C_11  and  C_13
REMARK    4  A    between atoms: N_16  and  C_17
REMARK    5  A    between atoms: C_17  and  C_18
REMARK                            x       y       z     vdW  Elec       q    Type
REMARK                         _______ _______ _______ _____ _____    ______ ____
ROOT
ATOM      6  C   UNL     1      -2.401  -1.779  24.845  0.00  0.00    +0.107 A 
ATOM      7  C   UNL     1      -2.550  -0.973  24.926  0.00  0.00    +0.041 A 
ATOM      8  C   UNL     1      -1.929  -0.449  25.069  0.00  0.00    +0.120 A 
ATOM      9  C   UNL     1      -1.157  -0.733  25.130  0.00  0.00    +0.164 A 
ATOM     10  O   UNL     1      -0.659  -0.091  25.272  0.00  0.00    -0.438 OA
ATOM     11  C   UNL     1      -1.123   0.590  25.298  0.00  0.00    +0.207 A 
ATOM     12  N   UNL     1      -1.907   0.368  25.172  0.00  0.00    -0.212 NA
ATOM     26  C   UNL     1      -1.006  -1.541  25.049  0.00  0.00    +0.040 A 
ATOM     27  C   UNL     1      -1.629  -2.064  24.907  0.00  0.00    +0.022 A 
ENDROOT
BRANCH  11  13
ATOM     13  C   UNL     1      -0.850   1.358  25.427  0.00  0.00    +0.094 C 
ATOM     14  C   UNL     1      -0.389   1.608  26.062  0.00  0.00    +0.028 C 
ATOM     15  C   UNL     1      -0.244   2.416  25.972  0.00  0.00    +0.073 C 
ATOM     16  N   UNL     1      -0.617   2.664  25.279  0.00  0.00    -0.268 NA
ATOM     25  C   UNL     1      -0.992   2.010  24.943  0.00  0.00    +0.082 C 
BRANCH  16  17
ATOM     17  C   UNL     1      -0.616   3.431  24.976  0.00  0.00    +0.099 C 
BRANCH  17  18
ATOM     18  C   UNL     1      -1.212   3.961  25.190  0.00  0.00    -0.010 A 
ATOM     19  C   UNL     1      -1.882   3.689  25.589  0.00  0.00    -0.003 A 
ATOM     20  C   UNL     1      -2.477   4.219  25.802  0.00  0.00    -0.000 A 
ATOM     21  C   UNL     1      -2.404   5.019  25.617  0.00  0.00    -0.000 A 
ATOM     22  C   UNL     1      -1.735   5.290  25.217  0.00  0.00    -0.005 A 
ATOM     23  C   UNL     1      -1.138   4.761  25.004  0.00  0.00    -0.024 A 
ATOM     24  C   UNL     1      -0.469   5.032  24.604  0.00  0.00    +0.031 C 
ENDBRANCH  17  18
ENDBRANCH  16  17
ENDBRANCH  11  13
BRANCH   6   3
ATOM      3  S   UNL     1      -3.022  -2.302  24.703  0.00  0.00    +0.009 S 
ATOM      4  O   UNL     1      -2.705  -2.479  23.963  0.00  0.00    -0.169 OA
ATOM      5  O   UNL     1      -3.341  -2.125  25.443  0.00  0.00    -0.169 OA
BRANCH   3   2
ATOM      1  C   UNL     1      -4.191  -2.662  23.965  0.00  0.00    +0.028 C 
ATOM      2  C   UNL     1      -3.645  -2.825  24.561  0.00  0.00    +0.156 C 
ENDBRANCH   3   2
ENDBRANCH   6   3
TORSDOF 5
ENDMDL
MODEL 4
REMARK VINA RESULT:     -11.2      2.382      5.976
REMARK  Name = 
REMARK  5 active torsions:
REMARK  status: ('A' for Active; 'I' for Inactive)
REMARK    1  A    between atoms: C_2  and  S_3
REMARK    2  A    between atoms: S_3  and  C_6
REMARK    3  A    between atoms: C_11  and  C_13
REMARK    4  A    between atoms: N_16  and  C_17
REMARK    5  A    between atoms: C_17  and  C_18
REMARK                            x       y       z     vdW  Elec       q    Type
REMARK                         _______ _______ _______ _____ _____    ______ ____
ROOT
ATOM      6  C   UNL     1      -3.605  -1.288  24.613  0.00  0.00    +0.107 A 
ATOM      7  C   UNL     1      -3.121  -0.640  24.774  0.00  0.00    +0.041 A 
ATOM      8  C   UNL     1      -3.415   0.126  24.690  0.00  0.00    +0.120 A 
ATOM      9  C   UNL     1      -4.194   0.244  24.445  0.00  0.00    +0.164 A 
ATOM     10  O   UNL     1      -4.331   1.056  24.411  0.00  0.00    -0.438 OA
ATOM     11  C   UNL     1      -3.637   1.441  24.636  0.00  0.00    +0.207 A 
ATOM     12  N   UNL     1      -3.071   0.866  24.808  0.00  0.00    -0.212 NA
ATOM     26  C   UNL     1      -4.679  -0.405  24.283  0.00  0.00    +0.040 A 
ATOM     27  C   UNL     1      -4.383  -1.170  24.368  0.00  0.00    +0.022 A 
ENDROOT
BRANCH  11  13
ATOM     13  C   UNL     1      -3.527   2.258  24.681  0.00  0.00    +0.094 C 
ATOM     14  C   UNL     1      -3.901   2.823  24.211  0.00  0.00    +0.028 C 
ATOM     15  C   UNL     1      -3.630   3.568  24.442  0.00  0.00    +0.073 C 
ATOM     16  N   UNL     1      -3.089   3.462  25.056  0.00  0.00    -0.268 NA
ATOM     25  C   UNL     1      -3.025   2.652  25.203  0.00  0.00    +0.082 C 
BRANCH  16  17
ATOM     17  C   UNL     1      -2.682   4.059  25.452  0.00  0.00    +0.099 C 
BRANCH  17  18
ATOM     18  C   UNL     1      -1.920   4.269  25.214  0.00  0.00    -0.010 A 
ATOM     19  C   UNL     1      -1.370   3.682  25.028  0.00  0.00    -0.003 A 
ATOM     20  C   UNL     1      -0.609   3.892  24.790  0.00  0.00    -0.000 A 
ATOM     21  C   UNL     1      -0.396   4.687  24.739  0.00  0.00    -0.000 A 
ATOM     22  C   UNL     1      -0.946   5.274  24.926  0.00  0.00    -0.005 A 
ATOM     23  C   UNL     1      -1.708   5.064  25.164  0.00  0.00    -0.024 A 
ATOM     24  C   UNL     1      -2.258   5.650  25.350  0.00  0.00    +0.031 C 
ENDBRANCH  17  18
ENDBRANCH  16  17
ENDBRANCH  11  13
BRANCH   6   3
ATOM      3  S   UNL     1      -3.310  -2.054  24.697  0.00  0.00    +0.009 S 
ATOM      4  O   UNL     1      -3.599  -2.081  25.469  0.00  0.00    -0.169 OA
ATOM      5  O   UNL     1      -3.021  -2.028  23.925  0.00  0.00    -0.169 OA
BRANCH   3   2
ATOM      1  C   UNL     1      -2.242  -2.991  24.553  0.00  0.00    +0.028 C 
ATOM      2  C   UNL     1      -3.016  -2.820  24.781  0.00  0.00    +0.156 C 
ENDBRANCH   3   2
ENDBRANCH   6   3
TORSDOF 5
ENDMDL
