MODEL 1
REMARK VINA RESULT:      -9.9      0.000      0.000
REMARK  Name = 
REMARK  6 active torsions:
REMARK  status: ('A' for Active; 'I' for Inactive)
REMARK    1  A    between atoms: N_3  and  C_4
REMARK    2  A    between atoms: C_8  and  N_12
REMARK    3  A    between atoms: C_14  and  C_17
REMARK    4  A    between atoms: N_23  and  C_24
REMARK    5  A    between atoms: C_27  and  O_28
REMARK    6  A    between atoms: O_28  and  C_29
REMARK                            x       y       z     vdW  Elec       q    Type
REMARK                         _______ _______ _______ _____ _____    ______ ____
ROOT
ATOM      4  C   UNL     1       0.076   0.431  23.500  0.00  0.00    +0.156 C 
ATOM      5  C   UNL     1       0.452   0.949  24.020  0.00  0.00    +0.166 C 
ATOM      6  O   UNL     1       1.256   0.953  23.838  0.00  0.00    -0.350 OA
ATOM      7  C   UNL     1       1.378   0.439  23.207  0.00  0.00    +0.169 C 
ATOM      8  C   UNL     1       1.950   0.122  22.703  0.00  0.00    +0.166 C 
ATOM      9  C   UNL     1       1.574  -0.396  22.183  0.00  0.00    +0.169 C 
ATOM     10  O   UNL     1       0.770  -0.400  22.365  0.00  0.00    -0.350 OA
ATOM     11  C   UNL     1       0.648   0.115  22.997  0.00  0.00    +0.167 C 
ENDROOT
BRANCH   8  12
ATOM     12  N   UNL     1       2.757   0.295  22.717  0.00  0.00    -0.227 N 
ATOM     13  C   UNL     1       3.320  -0.061  23.204  0.00  0.00    +0.118 A 
ATOM     14  C   UNL     1       4.053   0.278  23.035  0.00  0.00    +0.123 A 
ATOM     15  N   UNL     1       3.943   0.842  22.444  0.00  0.00    -0.129 NA
ATOM     16  N   UNL     1       3.142   0.852  22.248  0.00  0.00    -0.064 NA
BRANCH  14  17
ATOM     17  C   UNL     1       4.771   0.085  23.394  0.00  0.00    +0.021 A 
ATOM     18  C   UNL     1       5.378   0.642  23.426  0.00  0.00    +0.002 A 
ATOM     19  C   UNL     1       6.096   0.450  23.785  0.00  0.00    +0.000 A 
ATOM     20  C   UNL     1       6.205  -0.299  24.112  0.00  0.00    +0.000 A 
ATOM     21  C   UNL     1       5.597  -0.856  24.081  0.00  0.00    +0.000 A 
ATOM     22  C   UNL     1       4.880  -0.664  23.722  0.00  0.00    +0.002 A 
ENDBRANCH  14  17
ENDBRANCH   8  12
BRANCH   4   3
ATOM      1  O   UNL     1      -1.020   1.572  23.969  0.00  0.00    -0.249 OA
ATOM      2  C   UNL     1      -1.279   0.829  23.720  0.00  0.00    +0.344 C 
ATOM      3  N   UNL     1      -0.731   0.259  23.486  0.00  0.00    -0.184 NA
ATOM     23  N   UNL     1      -2.086   0.657  23.706  0.00  0.00    -0.161 NA
BRANCH  23  24
ATOM     24  C   UNL     1      -2.634   1.227  23.940  0.00  0.00    +0.075 A 
ATOM     25  C   UNL     1      -2.757   1.377  24.741  0.00  0.00    +0.020 A 
ATOM     26  C   UNL     1      -3.305   1.948  24.975  0.00  0.00    +0.039 A 
ATOM     27  C   UNL     1      -3.731   2.368  24.407  0.00  0.00    +0.145 A 
ATOM     35  C   UNL     1      -3.608   2.218  23.605  0.00  0.00    +0.039 A 
ATOM     36  C   UNL     1      -3.059   1.648  23.372  0.00  0.00    +0.020 A 
BRANCH  27  28
ATOM     28  O   UNL     1      -4.279   2.939  24.640  0.00  0.00    -0.453 OA
BRANCH  28  29
ATOM     29  C   UNL     1      -4.969   2.713  25.032  0.00  0.00    +0.145 A 
ATOM     30  C   UNL     1      -5.123   2.995  25.791  0.00  0.00    +0.037 A 
ATOM     31  C   UNL     1      -5.813   2.769  26.183  0.00  0.00    +0.003 A 
ATOM     32  C   UNL     1      -6.349   2.260  25.814  0.00  0.00    +0.000 A 
ATOM     33  C   UNL     1      -6.195   1.978  25.055  0.00  0.00    +0.003 A 
ATOM     34  C   UNL     1      -5.504   2.205  24.663  0.00  0.00    +0.037 A 
ENDBRANCH  28  29
ENDBRANCH  27  28
ENDBRANCH  23  24
ENDBRANCH   4   3
TORSDOF 6
ENDMDL
MODEL 2
REMARK VINA RESULT:      -8.9      1.194      7.968
REMARK  Name = 
REMARK  6 active torsions:
REMARK  status: ('A' for Active; 'I' for Inactive)
REMARK    1  A    between atoms: N_3  and  C_4
REMARK    2  A    between atoms: C_8  and  N_12
REMARK    3  A    between atoms: C_14  and  C_17
REMARK    4  A    between atoms: N_23  and  C_24
REMARK    5  A    between atoms: C_27  and  O_28
REMARK    6  A    between atoms: O_28  and  C_29
REMARK                            x       y       z     vdW  Elec       q    Type
REMARK                         _______ _______ _______ _____ _____    ______ ____
ROOT
ATOM      4  C   UNL     1      -0.755   0.706  23.645  0.00  0.00    +0.156 C 
ATOM      5  C   UNL     1      -0.730   0.782  24.466  0.00  0.00    +0.166 C 
ATOM      6  O   UNL     1      -1.345   1.282  24.694  0.00  0.00    -0.350 OA
ATOM      7  C   UNL     1      -1.750   1.515  24.015  0.00  0.00    +0.169 C 
ATOM      8  C   UNL     1      -2.380   1.968  23.735  0.00  0.00    +0.166 C 
ATOM      9  C   UNL     1      -2.405   1.892  22.914  0.00  0.00    +0.169 C 
ATOM     10  O   UNL     1      -1.790   1.392  22.686  0.00  0.00    -0.350 OA
ATOM     11  C   UNL     1      -1.385   1.159  23.367  0.00  0.00    +0.167 C 
ENDROOT
BRANCH   8  12
ATOM     12  N   UNL     1      -2.895   2.419  24.196  0.00  0.00    -0.227 N 
ATOM     13  C   UNL     1      -3.653   2.196  24.436  0.00  0.00    +0.118 A 
ATOM     14  C   UNL     1      -3.969   2.811  24.886  0.00  0.00    +0.123 A 
ATOM     15  N   UNL     1      -3.407   3.412  24.925  0.00  0.00    -0.129 NA
ATOM     16  N   UNL     1      -2.743   3.170  24.499  0.00  0.00    -0.064 NA
BRANCH  14  17
ATOM     17  C   UNL     1      -4.716   2.821  25.236  0.00  0.00    +0.021 A 
ATOM     18  C   UNL     1      -5.062   3.539  25.448  0.00  0.00    +0.002 A 
ATOM     19  C   UNL     1      -5.809   3.550  25.798  0.00  0.00    +0.000 A 
ATOM     20  C   UNL     1      -6.210   2.842  25.936  0.00  0.00    +0.000 A 
ATOM     21  C   UNL     1      -5.864   2.124  25.724  0.00  0.00    +0.000 A 
ATOM     22  C   UNL     1      -5.117   2.113  25.374  0.00  0.00    +0.002 A 
ENDBRANCH  14  17
ENDBRANCH   8  12
BRANCH   4   3
ATOM      1  O   UNL     1       0.854   1.069  23.612  0.00  0.00    -0.249 OA
ATOM      2  C   UNL     1       0.565   0.436  23.167  0.00  0.00    +0.344 C 
ATOM      3  N   UNL     1      -0.240   0.255  23.184  0.00  0.00    -0.184 NA
ATOM     23  N   UNL     1       1.080  -0.014  22.706  0.00  0.00    -0.161 NA
BRANCH  23  24
ATOM     24  C   UNL     1       1.884   0.168  22.689  0.00  0.00    +0.075 A 
ATOM     25  C   UNL     1       2.198   0.704  23.231  0.00  0.00    +0.020 A 
ATOM     26  C   UNL     1       3.003   0.885  23.214  0.00  0.00    +0.039 A 
ATOM     27  C   UNL     1       3.494   0.530  22.654  0.00  0.00    +0.145 A 
ATOM     35  C   UNL     1       3.180  -0.007  22.112  0.00  0.00    +0.039 A 
ATOM     36  C   UNL     1       2.375  -0.188  22.129  0.00  0.00    +0.020 A 
BRANCH  27  28
ATOM     28  O   UNL     1       4.298   0.711  22.637  0.00  0.00    -0.453 OA
BRANCH  28  29
ATOM     29  C   UNL     1       4.811   0.366  23.183  0.00  0.00    +0.145 A 
ATOM     30  C   UNL     1       5.177   0.832  23.757  0.00  0.00    +0.037 A 
ATOM     31  C   UNL     1       5.690   0.487  24.303  0.00  0.00    +0.003 A 
ATOM     32  C   UNL     1       5.837  -0.324  24.275  0.00  0.00    +0.000 A 
ATOM     33  C   UNL     1       5.472  -0.791  23.701  0.00  0.00    +0.003 A 
ATOM     34  C   UNL     1       4.958  -0.445  23.155  0.00  0.00    +0.037 A 
ENDBRANCH  28  29
ENDBRANCH  27  28
ENDBRANCH  23  24
ENDBRANCH   4   3
TORSDOF 6
ENDMDL
MODEL 3
REMARK VINA RESULT:      -7.4     14.416     16.919
REMARK  Name = 
REMARK  6 active torsions:
REMARK  status: ('A' for Active; 'I' for Inactive)
REMARK    1  A    between atoms: N_3  and  C_4
REMARK    2  A    between atoms: C_8  and  N_12
REMARK    3  A    between atoms: C_14  and  C_17
REMARK    4  A    between atoms: N_23  and  C_24
REMARK    5  A    between atoms: C_27  and  O_28
REMARK    6  A    between atoms: O_28  and  C_29
REMARK                            x       y       z     vdW  Elec       q    Type
REMARK                         _______ _______ _______ _____ _____    ______ ____
ROOT
ATOM      4  C   UNL     1      -4.422 -10.668  15.416  0.00  0.00    +0.156 C 
ATOM      5  C   UNL     1      -5.159 -10.729  15.051  0.00  0.00    +0.166 C 
ATOM      6  O   UNL     1      -5.738 -10.643  15.632  0.00  0.00    -0.350 OA
ATOM      7  C   UNL     1      -5.359 -10.529  16.355  0.00  0.00    +0.169 C 
ATOM      8  C   UNL     1      -5.482 -10.405  17.162  0.00  0.00    +0.166 C 
ATOM      9  C   UNL     1      -4.744 -10.344  17.526  0.00  0.00    +0.169 C 
ATOM     10  O   UNL     1      -4.166 -10.430  16.945  0.00  0.00    -0.350 OA
ATOM     11  C   UNL     1      -4.545 -10.544  16.221  0.00  0.00    +0.167 C 
ENDROOT
BRANCH   8  12
ATOM     12  N   UNL     1      -6.215 -10.351  17.538  0.00  0.00    -0.227 N 
ATOM     13  C   UNL     1      -6.886  -9.972  17.242  0.00  0.00    +0.118 A 
ATOM     14  C   UNL     1      -7.490 -10.054  17.797  0.00  0.00    +0.123 A 
ATOM     15  N   UNL     1      -7.193 -10.483  18.435  0.00  0.00    -0.129 NA
ATOM     16  N   UNL     1      -6.405 -10.667  18.275  0.00  0.00    -0.064 NA
BRANCH  14  17
ATOM     17  C   UNL     1      -8.257  -9.759  17.726  0.00  0.00    +0.021 A 
ATOM     18  C   UNL     1      -8.383  -9.017  17.387  0.00  0.00    +0.002 A 
ATOM     19  C   UNL     1      -9.150  -8.721  17.315  0.00  0.00    +0.000 A 
ATOM     20  C   UNL     1      -9.791  -9.167  17.583  0.00  0.00    +0.000 A 
ATOM     21  C   UNL     1      -9.664  -9.909  17.922  0.00  0.00    +0.000 A 
ATOM     22  C   UNL     1      -8.898 -10.204  17.993  0.00  0.00    +0.002 A 
ENDBRANCH  14  17
ENDBRANCH   8  12
BRANCH   4   3
ATOM      1  O   UNL     1      -4.324 -10.516  13.776  0.00  0.00    -0.249 OA
ATOM      2  C   UNL     1      -3.639 -10.645  14.220  0.00  0.00    +0.344 C 
ATOM      3  N   UNL     1      -3.689 -10.721  15.040  0.00  0.00    -0.184 NA
ATOM     23  N   UNL     1      -2.908 -10.699  13.844  0.00  0.00    -0.161 NA
BRANCH  23  24
ATOM     24  C   UNL     1      -2.858 -10.623  13.024  0.00  0.00    +0.075 A 
ATOM     25  C   UNL     1      -2.149 -10.389  12.673  0.00  0.00    +0.020 A 
ATOM     26  C   UNL     1      -2.100 -10.313  11.853  0.00  0.00    +0.039 A 
ATOM     27  C   UNL     1      -2.759 -10.471  11.383  0.00  0.00    +0.145 A 
ATOM     35  C   UNL     1      -3.469 -10.705  11.734  0.00  0.00    +0.039 A 
ATOM     36  C   UNL     1      -3.518 -10.781  12.554  0.00  0.00    +0.020 A 
BRANCH  27  28
ATOM     28  O   UNL     1      -2.711 -10.396  10.563  0.00  0.00    -0.453 OA
BRANCH  28  29
ATOM     29  C   UNL     1      -3.242  -9.910  10.161  0.00  0.00    +0.145 A 
ATOM     30  C   UNL     1      -3.868 -10.244   9.739  0.00  0.00    +0.037 A 
ATOM     31  C   UNL     1      -4.400  -9.759   9.337  0.00  0.00    +0.003 A 
ATOM     32  C   UNL     1      -4.306  -8.939   9.357  0.00  0.00    +0.000 A 
ATOM     33  C   UNL     1      -3.681  -8.605   9.779  0.00  0.00    +0.003 A 
ATOM     34  C   UNL     1      -3.149  -9.091  10.181  0.00  0.00    +0.037 A 
ENDBRANCH  28  29
ENDBRANCH  27  28
ENDBRANCH  23  24
ENDBRANCH   4   3
TORSDOF 6
ENDMDL
MODEL 4
REMARK VINA RESULT:      -7.4     15.850     18.036
REMARK  Name = 
REMARK  6 active torsions:
REMARK  status: ('A' for Active; 'I' for Inactive)
REMARK    1  A    between atoms: N_3  and  C_4
REMARK    2  A    between atoms: C_8  and  N_12
REMARK    3  A    between atoms: C_14  and  C_17
REMARK    4  A    between atoms: N_23  and  C_24
REMARK    5  A    between atoms: C_27  and  O_28
REMARK    6  A    between atoms: O_28  and  C_29
REMARK                            x       y       z     vdW  Elec       q    Type
REMARK                         _______ _______ _______ _____ _____    ______ ____
ROOT
ATOM      4  C   UNL     1      -8.465  -9.738  13.414  0.00  0.00    +0.156 C 
ATOM      5  C   UNL     1      -7.831  -9.983  13.880  0.00  0.00    +0.166 C 
ATOM      6  O   UNL     1      -8.023  -9.834  14.668  0.00  0.00    -0.350 OA
ATOM      7  C   UNL     1      -8.774  -9.496  14.689  0.00  0.00    +0.169 C 
ATOM      8  C   UNL     1      -9.358  -9.195  15.189  0.00  0.00    +0.166 C 
ATOM      9  C   UNL     1      -9.992  -8.949  14.722  0.00  0.00    +0.169 C 
ATOM     10  O   UNL     1      -9.801  -9.099  13.934  0.00  0.00    -0.350 OA
ATOM     11  C   UNL     1      -9.048  -9.437  13.914  0.00  0.00    +0.167 C 
ENDROOT
BRANCH   8  12
ATOM     12  N   UNL     1      -9.314  -9.148  16.012  0.00  0.00    -0.227 N 
ATOM     13  C   UNL     1      -9.637  -9.687  16.547  0.00  0.00    +0.118 A 
ATOM     14  C   UNL     1      -9.462  -9.425  17.309  0.00  0.00    +0.123 A 
ATOM     15  N   UNL     1      -9.032  -8.725  17.246  0.00  0.00    -0.129 NA
ATOM     16  N   UNL     1      -8.940  -8.553  16.444  0.00  0.00    -0.064 NA
BRANCH  14  17
ATOM     17  C   UNL     1      -9.680  -9.799  18.012  0.00  0.00    +0.021 A 
ATOM     18  C   UNL     1     -10.374  -9.577  18.398  0.00  0.00    +0.002 A 
ATOM     19  C   UNL     1     -10.592  -9.951  19.101  0.00  0.00    +0.000 A 
ATOM     20  C   UNL     1     -10.115 -10.546  19.417  0.00  0.00    +0.000 A 
ATOM     21  C   UNL     1      -9.421 -10.767  19.029  0.00  0.00    +0.000 A 
ATOM     22  C   UNL     1      -9.204 -10.394  18.327  0.00  0.00    +0.002 A 
ENDBRANCH  14  17
ENDBRANCH   8  12
BRANCH   4   3
ATOM      1  O   UNL     1      -7.083  -9.742  12.513  0.00  0.00    -0.249 OA
ATOM      2  C   UNL     1      -7.818  -9.787  12.140  0.00  0.00    +0.344 C 
ATOM      3  N   UNL     1      -8.509  -9.785  12.591  0.00  0.00    -0.184 NA
ATOM     23  N   UNL     1      -7.861  -9.834  11.318  0.00  0.00    -0.161 NA
BRANCH  23  24
ATOM     24  C   UNL     1      -7.170  -9.836  10.867  0.00  0.00    +0.075 A 
ATOM     25  C   UNL     1      -6.813 -10.551  10.663  0.00  0.00    +0.020 A 
ATOM     26  C   UNL     1      -6.122 -10.553  10.212  0.00  0.00    +0.039 A 
ATOM     27  C   UNL     1      -5.788  -9.839   9.966  0.00  0.00    +0.145 A 
ATOM     35  C   UNL     1      -6.145  -9.124  10.171  0.00  0.00    +0.039 A 
ATOM     36  C   UNL     1      -6.836  -9.123  10.622  0.00  0.00    +0.020 A 
BRANCH  27  28
ATOM     28  O   UNL     1      -5.097  -9.841   9.515  0.00  0.00    -0.453 OA
BRANCH  28  29
ATOM     29  C   UNL     1      -4.363  -9.774   9.885  0.00  0.00    +0.145 A 
ATOM     30  C   UNL     1      -3.980  -9.044   9.914  0.00  0.00    +0.037 A 
ATOM     31  C   UNL     1      -3.246  -8.977  10.284  0.00  0.00    +0.003 A 
ATOM     32  C   UNL     1      -2.894  -9.642  10.625  0.00  0.00    +0.000 A 
ATOM     33  C   UNL     1      -3.277 -10.372  10.596  0.00  0.00    +0.003 A 
ATOM     34  C   UNL     1      -4.012 -10.438  10.226  0.00  0.00    +0.037 A 
ENDBRANCH  28  29
ENDBRANCH  27  28
ENDBRANCH  23  24
ENDBRANCH   4   3
TORSDOF 6
ENDMDL
MODEL 5
REMARK VINA RESULT:      -7.2     15.632     16.695
REMARK  Name = 
REMARK  6 active torsions:
REMARK  status: ('A' for Active; 'I' for Inactive)
REMARK    1  A    between atoms: N_3  and  C_4
REMARK    2  A    between atoms: C_8  and  N_12
REMARK    3  A    between atoms: C_14  and  C_17
REMARK    4  A    between atoms: N_23  and  C_24
REMARK    5  A    between atoms: C_27  and  O_28
REMARK    6  A    between atoms: O_28  and  C_29
REMARK                            x       y       z     vdW  Elec       q    Type
REMARK                         _______ _______ _______ _____ _____    ______ ____
ROOT
ATOM      4  C   UNL     1      -6.990  -9.585  11.612  0.00  0.00    +0.156 C 
ATOM      5  C   UNL     1      -6.617  -8.915  11.915  0.00  0.00    +0.166 C 
ATOM      6  O   UNL     1      -5.844  -8.902  11.628  0.00  0.00    -0.350 OA
ATOM      7  C   UNL     1      -5.740  -9.563  11.147  0.00  0.00    +0.169 C 
ATOM      8  C   UNL     1      -5.198  -9.965  10.671  0.00  0.00    +0.166 C 
ATOM      9  C   UNL     1      -5.571 -10.635  10.368  0.00  0.00    +0.169 C 
ATOM     10  O   UNL     1      -6.344 -10.648  10.656  0.00  0.00    -0.350 OA
ATOM     11  C   UNL     1      -6.448  -9.985  11.137  0.00  0.00    +0.167 C 
ENDROOT
BRANCH   8  12
ATOM     12  N   UNL     1      -4.419  -9.736  10.525  0.00  0.00    -0.227 N 
ATOM     13  C   UNL     1      -3.775  -9.853  11.030  0.00  0.00    +0.118 A 
ATOM     14  C   UNL     1      -3.106  -9.539  10.665  0.00  0.00    +0.123 A 
ATOM     15  N   UNL     1      -3.334  -9.228   9.937  0.00  0.00    -0.129 NA
ATOM     16  N   UNL     1      -4.145  -9.349   9.850  0.00  0.00    -0.064 NA
BRANCH  14  17
ATOM     17  C   UNL     1      -2.341  -9.537  10.976  0.00  0.00    +0.021 A 
ATOM     18  C   UNL     1      -2.123 -10.099  11.539  0.00  0.00    +0.002 A 
ATOM     19  C   UNL     1      -1.359 -10.097  11.850  0.00  0.00    +0.000 A 
ATOM     20  C   UNL     1      -0.812  -9.533  11.596  0.00  0.00    +0.000 A 
ATOM     21  C   UNL     1      -1.031  -8.972  11.033  0.00  0.00    +0.000 A 
ATOM     22  C   UNL     1      -1.794  -8.973  10.722  0.00  0.00    +0.002 A 
ENDBRANCH  14  17
ENDBRANCH   8  12
BRANCH   4   3
ATOM      1  O   UNL     1      -7.604  -9.496  13.141  0.00  0.00    -0.249 OA
ATOM      2  C   UNL     1      -8.077  -9.769  12.522  0.00  0.00    +0.344 C 
ATOM      3  N   UNL     1      -7.770  -9.814  11.758  0.00  0.00    -0.184 NA
ATOM     23  N   UNL     1      -8.855  -9.998  12.669  0.00  0.00    -0.161 NA
BRANCH  23  24
ATOM     24  C   UNL     1      -9.162  -9.954  13.433  0.00  0.00    +0.075 A 
ATOM     25  C   UNL     1      -9.610  -9.300  13.661  0.00  0.00    +0.020 A 
ATOM     26  C   UNL     1      -9.917  -9.255  14.425  0.00  0.00    +0.039 A 
ATOM     27  C   UNL     1      -9.776  -9.866  14.962  0.00  0.00    +0.145 A 
ATOM     35  C   UNL     1      -9.329 -10.521  14.734  0.00  0.00    +0.039 A 
ATOM     36  C   UNL     1      -9.022 -10.564  13.970  0.00  0.00    +0.020 A 
BRANCH  27  28
ATOM     28  O   UNL     1     -10.083  -9.822  15.727  0.00  0.00    -0.453 OA
BRANCH  28  29
ATOM     29  C   UNL     1      -9.699  -9.370  16.300  0.00  0.00    +0.145 A 
ATOM     30  C   UNL     1      -9.070  -9.693  16.726  0.00  0.00    +0.037 A 
ATOM     31  C   UNL     1      -8.686  -9.241  17.300  0.00  0.00    +0.003 A 
ATOM     32  C   UNL     1      -8.931  -8.467  17.448  0.00  0.00    +0.000 A 
ATOM     33  C   UNL     1      -9.560  -8.145  17.022  0.00  0.00    +0.003 A 
ATOM     34  C   UNL     1      -9.944  -8.597  16.448  0.00  0.00    +0.037 A 
ENDBRANCH  28  29
ENDBRANCH  27  28
ENDBRANCH  23  24
ENDBRANCH   4   3
TORSDOF 6
ENDMDL
MODEL 6
REMARK VINA RESULT:      -7.2     15.618     17.194
REMARK  Name = 
REMARK  6 active torsions:
REMARK  status: ('A' for Active; 'I' for Inactive)
REMARK    1  A    between atoms: N_3  and  C_4
REMARK    2  A    between atoms: C_8  and  N_12
REMARK    3  A    between atoms: C_14  and  C_17
REMARK    4  A    between atoms: N_23  and  C_24
REMARK    5  A    between atoms: C_27  and  O_28
REMARK    6  A    between atoms: O_28  and  C_29
REMARK                            x       y       z     vdW  Elec       q    Type
REMARK                         _______ _______ _______ _____ _____    ______ ____
ROOT
ATOM      4  C   UNL     1      -5.744  -9.806  12.960  0.00  0.00    +0.156 C 
ATOM      5  C   UNL     1      -6.495  -9.514  13.133  0.00  0.00    +0.166 C 
ATOM      6  O   UNL     1      -6.617  -9.592  13.945  0.00  0.00    -0.350 OA
ATOM      7  C   UNL     1      -5.942  -9.932  14.274  0.00  0.00    +0.169 C 
ATOM      8  C   UNL     1      -5.599 -10.191  14.978  0.00  0.00    +0.166 C 
ATOM      9  C   UNL     1      -4.848 -10.484  14.804  0.00  0.00    +0.169 C 
ATOM     10  O   UNL     1      -4.726 -10.406  13.992  0.00  0.00    -0.350 OA
ATOM     11  C   UNL     1      -5.402 -10.065  13.664  0.00  0.00    +0.167 C 
ENDROOT
BRANCH   8  12
ATOM     12  N   UNL     1      -5.948 -10.163  15.725  0.00  0.00    -0.227 N 
ATOM     13  C   UNL     1      -5.589 -10.378  16.437  0.00  0.00    +0.118 A 
ATOM     14  C   UNL     1      -6.135 -10.262  17.043  0.00  0.00    +0.123 A 
ATOM     15  N   UNL     1      -6.832  -9.975  16.708  0.00  0.00    -0.129 NA
ATOM     16  N   UNL     1      -6.716  -9.914  15.893  0.00  0.00    -0.064 NA
BRANCH  14  17
ATOM     17  C   UNL     1      -6.008 -10.408  17.846  0.00  0.00    +0.021 A 
ATOM     18  C   UNL     1      -6.628 -10.324  18.383  0.00  0.00    +0.002 A 
ATOM     19  C   UNL     1      -6.500 -10.470  19.186  0.00  0.00    +0.000 A 
ATOM     20  C   UNL     1      -5.752 -10.698  19.450  0.00  0.00    +0.000 A 
ATOM     21  C   UNL     1      -5.133 -10.781  18.911  0.00  0.00    +0.000 A 
ATOM     22  C   UNL     1      -5.260 -10.636  18.110  0.00  0.00    +0.002 A 
ENDBRANCH  14  17
ENDBRANCH   8  12
BRANCH   4   3
ATOM      1  O   UNL     1      -6.548  -9.203  11.651  0.00  0.00    -0.249 OA
ATOM      2  C   UNL     1      -5.797  -9.533  11.558  0.00  0.00    +0.344 C 
ATOM      3  N   UNL     1      -5.396  -9.835  12.212  0.00  0.00    -0.184 NA
ATOM     23  N   UNL     1      -5.450  -9.562  10.811  0.00  0.00    -0.161 NA
BRANCH  23  24
ATOM     24  C   UNL     1      -5.851  -9.260  10.156  0.00  0.00    +0.075 A 
ATOM     25  C   UNL     1      -5.695  -8.495   9.892  0.00  0.00    +0.020 A 
ATOM     26  C   UNL     1      -6.097  -8.193   9.238  0.00  0.00    +0.039 A 
ATOM     27  C   UNL     1      -6.655  -8.658   8.847  0.00  0.00    +0.145 A 
ATOM     35  C   UNL     1      -6.812  -9.424   9.111  0.00  0.00    +0.039 A 
ATOM     36  C   UNL     1      -6.410  -9.725   9.765  0.00  0.00    +0.020 A 
BRANCH  27  28
ATOM     28  O   UNL     1      -7.057  -8.357   8.193  0.00  0.00    -0.453 OA
BRANCH  28  29
ATOM     29  C   UNL     1      -7.695  -7.844   8.299  0.00  0.00    +0.145 A 
ATOM     30  C   UNL     1      -8.433  -8.144   8.513  0.00  0.00    +0.037 A 
ATOM     31  C   UNL     1      -9.071  -7.631   8.620  0.00  0.00    +0.003 A 
ATOM     32  C   UNL     1      -8.970  -6.819   8.513  0.00  0.00    +0.000 A 
ATOM     33  C   UNL     1      -8.231  -6.520   8.299  0.00  0.00    +0.003 A 
ATOM     34  C   UNL     1      -7.594  -7.033   8.192  0.00  0.00    +0.037 A 
ENDBRANCH  28  29
ENDBRANCH  27  28
ENDBRANCH  23  24
ENDBRANCH   4   3
TORSDOF 6
ENDMDL
MODEL 7
REMARK VINA RESULT:      -7.2     15.486     17.438
REMARK  Name = 
REMARK  6 active torsions:
REMARK  status: ('A' for Active; 'I' for Inactive)
REMARK    1  A    between atoms: N_3  and  C_4
REMARK    2  A    between atoms: C_8  and  N_12
REMARK    3  A    between atoms: C_14  and  C_17
REMARK    4  A    between atoms: N_23  and  C_24
REMARK    5  A    between atoms: C_27  and  O_28
REMARK    6  A    between atoms: O_28  and  C_29
REMARK                            x       y       z     vdW  Elec       q    Type
REMARK                         _______ _______ _______ _____ _____    ______ ____
ROOT
ATOM      4  C   UNL     1      -8.125 -10.063  13.905  0.00  0.00    +0.156 C 
ATOM      5  C   UNL     1      -7.546 -10.621  14.090  0.00  0.00    +0.166 C 
ATOM      6  O   UNL     1      -7.514 -10.692  14.911  0.00  0.00    -0.350 OA
ATOM      7  C   UNL     1      -8.072 -10.179  15.234  0.00  0.00    +0.169 C 
ATOM      8  C   UNL     1      -8.398  -9.905  15.941  0.00  0.00    +0.166 C 
ATOM      9  C   UNL     1      -8.977  -9.347  15.756  0.00  0.00    +0.169 C 
ATOM     10  O   UNL     1      -9.009  -9.276  14.935  0.00  0.00    -0.350 OA
ATOM     11  C   UNL     1      -8.450  -9.790  14.612  0.00  0.00    +0.167 C 
ENDROOT
BRANCH   8  12
ATOM     12  N   UNL     1      -8.182 -10.147  16.700  0.00  0.00    -0.227 N 
ATOM     13  C   UNL     1      -7.414 -10.172  17.001  0.00  0.00    +0.118 A 
ATOM     14  C   UNL     1      -7.454 -10.447  17.777  0.00  0.00    +0.123 A 
ATOM     15  N   UNL     1      -8.245 -10.592  17.956  0.00  0.00    -0.129 NA
ATOM     16  N   UNL     1      -8.696 -10.406  17.290  0.00  0.00    -0.064 NA
BRANCH  14  17
ATOM     17  C   UNL     1      -6.813 -10.557  18.286  0.00  0.00    +0.021 A 
ATOM     18  C   UNL     1      -6.045 -10.562  17.986  0.00  0.00    +0.002 A 
ATOM     19  C   UNL     1      -5.404 -10.673  18.495  0.00  0.00    +0.000 A 
ATOM     20  C   UNL     1      -5.533 -10.778  19.303  0.00  0.00    +0.000 A 
ATOM     21  C   UNL     1      -6.302 -10.773  19.602  0.00  0.00    +0.000 A 
ATOM     22  C   UNL     1      -6.942 -10.663  19.094  0.00  0.00    +0.002 A 
ENDBRANCH  14  17
ENDBRANCH   8  12
BRANCH   4   3
ATOM      1  O   UNL     1      -6.997 -10.016  12.702  0.00  0.00    -0.249 OA
ATOM      2  C   UNL     1      -7.777  -9.797  12.545  0.00  0.00    +0.344 C 
ATOM      3  N   UNL     1      -8.341  -9.821  13.147  0.00  0.00    -0.184 NA
ATOM     23  N   UNL     1      -7.993  -9.555  11.786  0.00  0.00    -0.161 NA
BRANCH  23  24
ATOM     24  C   UNL     1      -7.429  -9.532  11.184  0.00  0.00    +0.075 A 
ATOM     25  C   UNL     1      -7.260 -10.212  10.750  0.00  0.00    +0.020 A 
ATOM     26  C   UNL     1      -6.696 -10.188  10.148  0.00  0.00    +0.039 A 
ATOM     27  C   UNL     1      -6.301  -9.484   9.981  0.00  0.00    +0.145 A 
ATOM     35  C   UNL     1      -6.470  -8.803  10.415  0.00  0.00    +0.039 A 
ATOM     36  C   UNL     1      -7.034  -8.827  11.017  0.00  0.00    +0.020 A 
BRANCH  27  28
ATOM     28  O   UNL     1      -5.737  -9.459   9.379  0.00  0.00    -0.453 OA
BRANCH  28  29
ATOM     29  C   UNL     1      -4.934  -9.450   9.566  0.00  0.00    +0.145 A 
ATOM     30  C   UNL     1      -4.542 -10.157   9.731  0.00  0.00    +0.037 A 
ATOM     31  C   UNL     1      -3.738 -10.149   9.918  0.00  0.00    +0.003 A 
ATOM     32  C   UNL     1      -3.327  -9.433   9.940  0.00  0.00    +0.000 A 
ATOM     33  C   UNL     1      -3.720  -8.726   9.775  0.00  0.00    +0.003 A 
ATOM     34  C   UNL     1      -4.524  -8.736   9.588  0.00  0.00    +0.037 A 
ENDBRANCH  28  29
ENDBRANCH  27  28
ENDBRANCH  23  24
ENDBRANCH   4   3
TORSDOF 6
ENDMDL
MODEL 8
REMARK VINA RESULT:      -7.1     15.492     18.135
REMARK  Name = 
REMARK  6 active torsions:
REMARK  status: ('A' for Active; 'I' for Inactive)
REMARK    1  A    between atoms: N_3  and  C_4
REMARK    2  A    between atoms: C_8  and  N_12
REMARK    3  A    between atoms: C_14  and  C_17
REMARK    4  A    between atoms: N_23  and  C_24
REMARK    5  A    between atoms: C_27  and  O_28
REMARK    6  A    between atoms: O_28  and  C_29
REMARK                            x       y       z     vdW  Elec       q    Type
REMARK                         _______ _______ _______ _____ _____    ______ ____
ROOT
ATOM      4  C   UNL     1      -7.554  -9.651  12.330  0.00  0.00    +0.156 C 
ATOM      5  C   UNL     1      -7.099  -9.610  13.017  0.00  0.00    +0.166 C 
ATOM      6  O   UNL     1      -7.614  -9.591  13.661  0.00  0.00    -0.350 OA
ATOM      7  C   UNL     1      -8.385  -9.620  13.373  0.00  0.00    +0.169 C 
ATOM      8  C   UNL     1      -9.181  -9.626  13.592  0.00  0.00    +0.166 C 
ATOM      9  C   UNL     1      -9.635  -9.667  12.904  0.00  0.00    +0.169 C 
ATOM     10  O   UNL     1      -9.121  -9.686  12.260  0.00  0.00    -0.350 OA
ATOM     11  C   UNL     1      -8.348  -9.657  12.550  0.00  0.00    +0.167 C 
ENDROOT
BRANCH   8  12
ATOM     12  N   UNL     1      -9.471  -9.597  14.364  0.00  0.00    -0.227 N 
ATOM     13  C   UNL     1      -9.516  -8.924  14.840  0.00  0.00    +0.118 A 
ATOM     14  C   UNL     1      -9.840  -9.147  15.565  0.00  0.00    +0.123 A 
ATOM     15  N   UNL     1      -9.995  -9.956  15.537  0.00  0.00    -0.129 NA
ATOM     16  N   UNL     1      -9.768 -10.234  14.795  0.00  0.00    -0.064 NA
BRANCH  14  17
ATOM     17  C   UNL     1      -9.983  -8.647  16.206  0.00  0.00    +0.021 A 
ATOM     18  C   UNL     1     -10.576  -8.075  16.158  0.00  0.00    +0.002 A 
ATOM     19  C   UNL     1     -10.719  -7.575  16.799  0.00  0.00    +0.000 A 
ATOM     20  C   UNL     1     -10.270  -7.647  17.487  0.00  0.00    +0.000 A 
ATOM     21  C   UNL     1      -9.677  -8.219  17.534  0.00  0.00    +0.000 A 
ATOM     22  C   UNL     1      -9.533  -8.719  16.894  0.00  0.00    +0.002 A 
ENDBRANCH  14  17
ENDBRANCH   8  12
BRANCH   4   3
ATOM      1  O   UNL     1      -5.926  -9.710  12.062  0.00  0.00    -0.249 OA
ATOM      2  C   UNL     1      -6.450  -9.710  11.423  0.00  0.00    +0.344 C 
ATOM      3  N   UNL     1      -7.263  -9.681  11.558  0.00  0.00    -0.184 NA
ATOM     23  N   UNL     1      -6.160  -9.739  10.652  0.00  0.00    -0.161 NA
BRANCH  23  24
ATOM     24  C   UNL     1      -5.346  -9.769  10.518  0.00  0.00    +0.075 A 
ATOM     25  C   UNL     1      -4.966 -10.497  10.442  0.00  0.00    +0.020 A 
ATOM     26  C   UNL     1      -4.153 -10.526  10.308  0.00  0.00    +0.039 A 
ATOM     27  C   UNL     1      -3.719  -9.827  10.249  0.00  0.00    +0.145 A 
ATOM     35  C   UNL     1      -4.099  -9.098  10.324  0.00  0.00    +0.039 A 
ATOM     36  C   UNL     1      -4.912  -9.070  10.459  0.00  0.00    +0.020 A 
BRANCH  27  28
ATOM     28  O   UNL     1      -2.906  -9.855  10.114  0.00  0.00    -0.453 OA
BRANCH  28  29
ATOM     29  C   UNL     1      -2.381  -9.837  10.751  0.00  0.00    +0.145 A 
ATOM     30  C   UNL     1      -1.852  -9.209  10.831  0.00  0.00    +0.037 A 
ATOM     31  C   UNL     1      -1.328  -9.191  11.468  0.00  0.00    +0.003 A 
ATOM     32  C   UNL     1      -1.332  -9.801  12.023  0.00  0.00    +0.000 A 
ATOM     33  C   UNL     1      -1.861 -10.429  11.943  0.00  0.00    +0.003 A 
ATOM     34  C   UNL     1      -2.386 -10.447  11.306  0.00  0.00    +0.037 A 
ENDBRANCH  28  29
ENDBRANCH  27  28
ENDBRANCH  23  24
ENDBRANCH   4   3
TORSDOF 6
ENDMDL
MODEL 9
REMARK VINA RESULT:      -7.1     14.731     17.989
REMARK  Name = 
REMARK  6 active torsions:
REMARK  status: ('A' for Active; 'I' for Inactive)
REMARK    1  A    between atoms: N_3  and  C_4
REMARK    2  A    between atoms: C_8  and  N_12
REMARK    3  A    between atoms: C_14  and  C_17
REMARK    4  A    between atoms: N_23  and  C_24
REMARK    5  A    between atoms: C_27  and  O_28
REMARK    6  A    between atoms: O_28  and  C_29
REMARK                            x       y       z     vdW  Elec       q    Type
REMARK                         _______ _______ _______ _____ _____    ______ ____
ROOT
ATOM      4  C   UNL     1      12.120  -7.275  32.501  0.00  0.00    +0.156 C 
ATOM      5  C   UNL     1      11.551  -6.767  32.816  0.00  0.00    +0.166 C 
ATOM      6  O   UNL     1      10.822  -7.151  32.783  0.00  0.00    -0.350 OA
ATOM      7  C   UNL     1      10.940  -7.895  32.448  0.00  0.00    +0.169 C 
ATOM      8  C   UNL     1      10.563  -8.593  32.220  0.00  0.00    +0.166 C 
ATOM      9  C   UNL     1      11.132  -9.100  31.905  0.00  0.00    +0.169 C 
ATOM     10  O   UNL     1      11.861  -8.716  31.938  0.00  0.00    -0.350 OA
ATOM     11  C   UNL     1      11.743  -7.971  32.274  0.00  0.00    +0.167 C 
ENDROOT
BRANCH   8  12
ATOM     12  N   UNL     1       9.757  -8.754  32.294  0.00  0.00    -0.227 N 
ATOM     13  C   UNL     1       9.157  -8.469  31.804  0.00  0.00    +0.118 A 
ATOM     14  C   UNL     1       8.440  -8.768  32.079  0.00  0.00    +0.123 A 
ATOM     15  N   UNL     1       8.595  -9.238  32.738  0.00  0.00    -0.129 NA
ATOM     16  N   UNL     1       9.409  -9.230  32.871  0.00  0.00    -0.064 NA
BRANCH  14  17
ATOM     17  C   UNL     1       7.696  -8.622  31.751  0.00  0.00    +0.021 A 
ATOM     18  C   UNL     1       7.199  -8.059  32.092  0.00  0.00    +0.002 A 
ATOM     19  C   UNL     1       6.456  -7.913  31.764  0.00  0.00    +0.000 A 
ATOM     20  C   UNL     1       6.210  -8.330  31.096  0.00  0.00    +0.000 A 
ATOM     21  C   UNL     1       6.708  -8.893  30.756  0.00  0.00    +0.000 A 
ATOM     22  C   UNL     1       7.451  -9.039  31.083  0.00  0.00    +0.002 A 
ENDBRANCH  14  17
ENDBRANCH   8  12
BRANCH   4   3
ATOM      1  O   UNL     1      12.638  -5.715  32.350  0.00  0.00    -0.249 OA
ATOM      2  C   UNL     1      13.186  -6.333  32.351  0.00  0.00    +0.344 C 
ATOM      3  N   UNL     1      12.926  -7.113  32.427  0.00  0.00    -0.184 NA
ATOM     23  N   UNL     1      13.991  -6.172  32.277  0.00  0.00    -0.161 NA
BRANCH  23  24
ATOM     24  C   UNL     1      14.250  -5.392  32.201  0.00  0.00    +0.075 A 
ATOM     25  C   UNL     1      14.286  -5.039  31.457  0.00  0.00    +0.020 A 
ATOM     26  C   UNL     1      14.546  -4.260  31.381  0.00  0.00    +0.039 A 
ATOM     27  C   UNL     1      14.769  -3.833  32.050  0.00  0.00    +0.145 A 
ATOM     35  C   UNL     1      14.733  -4.186  32.796  0.00  0.00    +0.039 A 
ATOM     36  C   UNL     1      14.474  -4.965  32.870  0.00  0.00    +0.020 A 
BRANCH  27  28
ATOM     28  O   UNL     1      15.029  -3.054  31.975  0.00  0.00    -0.453 OA
BRANCH  28  29
ATOM     29  C   UNL     1      15.816  -2.897  31.785  0.00  0.00    +0.145 A 
ATOM     30  C   UNL     1      16.380  -2.833  32.384  0.00  0.00    +0.037 A 
ATOM     31  C   UNL     1      17.167  -2.676  32.193  0.00  0.00    +0.003 A 
ATOM     32  C   UNL     1      17.390  -2.584  31.404  0.00  0.00    +0.000 A 
ATOM     33  C   UNL     1      16.826  -2.648  30.805  0.00  0.00    +0.003 A 
ATOM     34  C   UNL     1      16.039  -2.805  30.996  0.00  0.00    +0.037 A 
ENDBRANCH  28  29
ENDBRANCH  27  28
ENDBRANCH  23  24
ENDBRANCH   4   3
TORSDOF 6
ENDMDL
MODEL 10
REMARK VINA RESULT:      -7.0     14.893     16.626
REMARK  Name = 
REMARK  6 active torsions:
REMARK  status: ('A' for Active; 'I' for Inactive)
REMARK    1  A    between atoms: N_3  and  C_4
REMARK    2  A    between atoms: C_8  and  N_12
REMARK    3  A    between atoms: C_14  and  C_17
REMARK    4  A    between atoms: N_23  and  C_24
REMARK    5  A    between atoms: C_27  and  O_28
REMARK    6  A    between atoms: O_28  and  C_29
REMARK                            x       y       z     vdW  Elec       q    Type
REMARK                         _______ _______ _______ _____ _____    ______ ____
ROOT
ATOM      4  C   UNL     1      12.469  -7.386  31.600  0.00  0.00    +0.156 C 
ATOM      5  C   UNL     1      12.119  -6.960  30.987  0.00  0.00    +0.166 C 
ATOM      6  O   UNL     1      12.715  -6.729  30.466  0.00  0.00    -0.350 OA
ATOM      7  C   UNL     1      13.432  -7.012  30.756  0.00  0.00    +0.169 C 
ATOM      8  C   UNL     1      14.244  -7.044  30.615  0.00  0.00    +0.166 C 
ATOM      9  C   UNL     1      14.594  -7.470  31.228  0.00  0.00    +0.169 C 
ATOM     10  O   UNL     1      13.999  -7.701  31.749  0.00  0.00    -0.350 OA
ATOM     11  C   UNL     1      13.280  -7.418  31.458  0.00  0.00    +0.167 C 
ENDROOT
BRANCH   8  12
ATOM     12  N   UNL     1      14.638  -6.709  29.971  0.00  0.00    -0.227 N 
ATOM     13  C   UNL     1      14.837  -7.094  29.269  0.00  0.00    +0.118 A 
ATOM     14  C   UNL     1      15.223  -6.553  28.782  0.00  0.00    +0.123 A 
ATOM     15  N   UNL     1      15.262  -5.833  29.181  0.00  0.00    -0.129 NA
ATOM     16  N   UNL     1      14.900  -5.929  29.916  0.00  0.00    -0.064 NA
BRANCH  14  17
ATOM     17  C   UNL     1      15.519  -6.705  28.026  0.00  0.00    +0.021 A 
ATOM     18  C   UNL     1      16.284  -6.471  27.828  0.00  0.00    +0.002 A 
ATOM     19  C   UNL     1      16.580  -6.623  27.073  0.00  0.00    +0.000 A 
ATOM     20  C   UNL     1      16.109  -7.009  26.516  0.00  0.00    +0.000 A 
ATOM     21  C   UNL     1      15.343  -7.243  26.715  0.00  0.00    +0.000 A 
ATOM     22  C   UNL     1      15.048  -7.091  27.469  0.00  0.00    +0.002 A 
ENDBRANCH  14  17
ENDBRANCH   8  12
BRANCH   4   3
ATOM      1  O   UNL     1      10.899  -7.871  31.446  0.00  0.00    -0.249 OA
ATOM      2  C   UNL     1      11.291  -7.964  32.167  0.00  0.00    +0.344 C 
ATOM      3  N   UNL     1      12.075  -7.722  32.244  0.00  0.00    -0.184 NA
ATOM     23  N   UNL     1      10.897  -8.300  32.809  0.00  0.00    -0.161 NA
BRANCH  23  24
ATOM     24  C   UNL     1      10.112  -8.542  32.733  0.00  0.00    +0.075 A 
ATOM     25  C   UNL     1       9.500  -8.006  32.866  0.00  0.00    +0.020 A 
ATOM     26  C   UNL     1       8.715  -8.249  32.789  0.00  0.00    +0.039 A 
ATOM     27  C   UNL     1       8.543  -9.028  32.579  0.00  0.00    +0.145 A 
ATOM     35  C   UNL     1       9.156  -9.564  32.446  0.00  0.00    +0.039 A 
ATOM     36  C   UNL     1       9.940  -9.321  32.523  0.00  0.00    +0.020 A 
BRANCH  27  28
ATOM     28  O   UNL     1       7.758  -9.271  32.503  0.00  0.00    -0.453 OA
BRANCH  28  29
ATOM     29  C   UNL     1       7.407  -9.301  31.757  0.00  0.00    +0.145 A 
ATOM     30  C   UNL     1       7.394 -10.010  31.336  0.00  0.00    +0.037 A 
ATOM     31  C   UNL     1       7.042 -10.041  30.590  0.00  0.00    +0.003 A 
ATOM     32  C   UNL     1       6.703  -9.362  30.266  0.00  0.00    +0.000 A 
ATOM     33  C   UNL     1       6.716  -8.652  30.688  0.00  0.00    +0.003 A 
ATOM     34  C   UNL     1       7.068  -8.623  31.434  0.00  0.00    +0.037 A 
ENDBRANCH  28  29
ENDBRANCH  27  28
ENDBRANCH  23  24
ENDBRANCH   4   3
TORSDOF 6
ENDMDL
