MODEL 1
REMARK VINA RESULT:     -11.0      0.000      0.000
REMARK  Name = 
REMARK  9 active torsions:
REMARK  status: ('A' for Active; 'I' for Inactive)
REMARK    1  A    between atoms: C_2  and  C_4
REMARK    2  A    between atoms: C_6  and  C_7
REMARK    3  A    between atoms: C_7  and  C_8
REMARK    4  A    between atoms: C_11  and  C_13
REMARK    5  A    between atoms: C_22  and  C_23
REMARK    6  A    between atoms: C_23  and  N_24
REMARK    7  A    between atoms: N_24  and  C_25
REMARK    8  A    between atoms: C_25  and  C_26
REMARK    9  A    between atoms: C_26  and  N_27
REMARK                            x       y       z     vdW  Elec       q    Type
REMARK                         _______ _______ _______ _____ _____    ______ ____
ROOT
ATOM      4  C   UNL     1      -3.616   1.475  24.033  0.00  0.00    +0.006 C 
ATOM      5  C   UNL     1      -3.718   2.236  24.336  0.00  0.00    +0.005 C 
ATOM      6  C   UNL     1      -4.343   2.395  24.850  0.00  0.00    +0.027 C 
ATOM     19  C   UNL     1      -4.867   1.793  25.060  0.00  0.00    -0.048 C 
ATOM     20  C   UNL     1      -5.493   1.952  25.574  0.00  0.00    +0.026 C 
ATOM     21  C   UNL     1      -4.766   1.033  24.758  0.00  0.00    -0.033 C 
ATOM     22  C   UNL     1      -4.139   0.874  24.244  0.00  0.00    +0.039 C 
ENDROOT
BRANCH   4   2
ATOM      1  C   UNL     1      -3.073   1.457  22.711  0.00  0.00    +0.000 C 
ATOM      2  C   UNL     1      -2.990   1.316  23.520  0.00  0.00    +0.000 C 
ATOM      3  C   UNL     1      -2.281   1.016  23.815  0.00  0.00    +0.000 C 
ENDBRANCH   4   2
BRANCH   6   7
ATOM      7  C   UNL     1      -4.446   3.155  25.153  0.00  0.00    +0.091 C 
BRANCH   7   8
ATOM      8  C   UNL     1      -3.797   3.577  25.438  0.00  0.00    +0.227 A 
ATOM      9  N   UNL     1      -3.666   3.792  26.224  0.00  0.00    -0.111 NA
ATOM     10  N   UNL     1      -2.953   4.206  26.259  0.00  0.00    -0.107 NA
ATOM     11  C   UNL     1      -2.644   4.247  25.496  0.00  0.00    +0.250 A 
ATOM     12  O   UNL     1      -3.166   3.858  24.988  0.00  0.00    -0.420 OA
BRANCH  11  13
ATOM     13  C   UNL     1      -1.937   4.612  25.278  0.00  0.00    +0.055 A 
ATOM     14  C   UNL     1      -1.921   5.423  25.127  0.00  0.00    +0.005 A 
ATOM     15  C   UNL     1      -1.214   5.788  24.909  0.00  0.00    +0.000 A 
ATOM     16  C   UNL     1      -0.523   5.342  24.843  0.00  0.00    +0.000 A 
ATOM     17  C   UNL     1      -0.539   4.531  24.994  0.00  0.00    +0.000 A 
ATOM     18  C   UNL     1      -1.246   4.167  25.212  0.00  0.00    +0.005 A 
ENDBRANCH  11  13
ENDBRANCH   7   8
ENDBRANCH   6   7
BRANCH  22  23
ATOM     23  C   UNL     1      -4.038   0.113  23.941  0.00  0.00    +0.093 C 
BRANCH  23  24
ATOM     24  N   UNL     1      -4.396  -0.530  24.315  0.00  0.00    -0.216 NA
BRANCH  24  25
ATOM     25  C   UNL     1      -4.362  -1.278  23.969  0.00  0.00    +0.112 C 
BRANCH  25  26
ATOM     26  C   UNL     1      -4.080  -1.921  24.404  0.00  0.00    +0.134 C 
BRANCH  26  27
ATOM     27  N   UNL     1      -3.369  -2.282  24.191  0.00  0.00    -0.204 NA
ATOM     28  C   UNL     1      -3.034  -2.853  24.684  0.00  0.00    +0.242 C 
ATOM     29  C   UNL     1      -2.323  -3.214  24.471  0.00  0.00    +0.096 C 
ATOM     30  O   UNL     1      -3.409  -3.063  25.388  0.00  0.00    -0.273 OA
ENDBRANCH  26  27
ENDBRANCH  25  26
ENDBRANCH  24  25
ENDBRANCH  23  24
ENDBRANCH  22  23
TORSDOF 9
ENDMDL
MODEL 2
REMARK VINA RESULT:     -10.9      3.098      5.458
REMARK  Name = 
REMARK  9 active torsions:
REMARK  status: ('A' for Active; 'I' for Inactive)
REMARK    1  A    between atoms: C_2  and  C_4
REMARK    2  A    between atoms: C_6  and  C_7
REMARK    3  A    between atoms: C_7  and  C_8
REMARK    4  A    between atoms: C_11  and  C_13
REMARK    5  A    between atoms: C_22  and  C_23
REMARK    6  A    between atoms: C_23  and  N_24
REMARK    7  A    between atoms: N_24  and  C_25
REMARK    8  A    between atoms: C_25  and  C_26
REMARK    9  A    between atoms: C_26  and  N_27
REMARK                            x       y       z     vdW  Elec       q    Type
REMARK                         _______ _______ _______ _____ _____    ______ ____
ROOT
ATOM      4  C   UNL     1      -1.181   1.666  24.941  0.00  0.00    +0.006 C 
ATOM      5  C   UNL     1      -2.003   1.611  24.893  0.00  0.00    +0.005 C 
ATOM      6  C   UNL     1      -2.377   1.642  24.159  0.00  0.00    +0.027 C 
ATOM     19  C   UNL     1      -1.929   1.729  23.471  0.00  0.00    -0.048 C 
ATOM     20  C   UNL     1      -2.303   1.760  22.736  0.00  0.00    +0.026 C 
ATOM     21  C   UNL     1      -1.107   1.784  23.518  0.00  0.00    -0.033 C 
ATOM     22  C   UNL     1      -0.733   1.752  24.253  0.00  0.00    +0.039 C 
ENDROOT
BRANCH   4   2
ATOM      1  C   UNL     1      -0.591   2.332  26.059  0.00  0.00    +0.000 C 
ATOM      2  C   UNL     1      -0.807   1.635  25.675  0.00  0.00    +0.000 C 
ATOM      3  C   UNL     1      -0.649   0.905  26.026  0.00  0.00    +0.000 C 
ENDBRANCH   4   2
BRANCH   6   7
ATOM      7  C   UNL     1      -3.199   1.587  24.111  0.00  0.00    +0.091 C 
BRANCH   7   8
ATOM      8  C   UNL     1      -3.582   0.902  24.362  0.00  0.00    +0.227 A 
ATOM      9  N   UNL     1      -4.241   0.868  24.858  0.00  0.00    -0.111 NA
ATOM     10  N   UNL     1      -4.440   0.074  24.964  0.00  0.00    -0.107 NA
ATOM     11  C   UNL     1      -3.905  -0.382  24.533  0.00  0.00    +0.250 A 
ATOM     12  O   UNL     1      -3.375   0.130  24.161  0.00  0.00    -0.420 OA
BRANCH  11  13
ATOM     13  C   UNL     1      -3.901  -1.206  24.483  0.00  0.00    +0.055 A 
ATOM     14  C   UNL     1      -4.272  -1.582  23.850  0.00  0.00    +0.005 A 
ATOM     15  C   UNL     1      -4.268  -2.406  23.800  0.00  0.00    +0.000 A 
ATOM     16  C   UNL     1      -3.892  -2.852  24.384  0.00  0.00    +0.000 A 
ATOM     17  C   UNL     1      -3.521  -2.476  25.017  0.00  0.00    +0.000 A 
ATOM     18  C   UNL     1      -3.526  -1.652  25.066  0.00  0.00    +0.005 A 
ENDBRANCH  11  13
ENDBRANCH   7   8
ENDBRANCH   6   7
BRANCH  22  23
ATOM     23  C   UNL     1       0.088   1.807  24.300  0.00  0.00    +0.093 C 
BRANCH  23  24
ATOM     24  N   UNL     1       0.556   1.523  23.682  0.00  0.00    -0.216 NA
BRANCH  24  25
ATOM     25  C   UNL     1       1.378   1.539  23.747  0.00  0.00    +0.112 C 
BRANCH  25  26
ATOM     26  C   UNL     1       1.840   1.055  23.262  0.00  0.00    +0.134 C 
BRANCH  26  27
ATOM     27  N   UNL     1       2.659   1.147  23.249  0.00  0.00    -0.204 NA
ATOM     28  C   UNL     1       3.120   0.669  22.758  0.00  0.00    +0.242 C 
ATOM     29  C   UNL     1       3.939   0.761  22.745  0.00  0.00    +0.096 C 
ATOM     30  O   UNL     1       2.760   0.100  22.281  0.00  0.00    -0.273 OA
ENDBRANCH  26  27
ENDBRANCH  25  26
ENDBRANCH  24  25
ENDBRANCH  23  24
ENDBRANCH  22  23
TORSDOF 9
ENDMDL
MODEL 3
REMARK VINA RESULT:     -10.7      3.224      5.046
REMARK  Name = 
REMARK  9 active torsions:
REMARK  status: ('A' for Active; 'I' for Inactive)
REMARK    1  A    between atoms: C_2  and  C_4
REMARK    2  A    between atoms: C_6  and  C_7
REMARK    3  A    between atoms: C_7  and  C_8
REMARK    4  A    between atoms: C_11  and  C_13
REMARK    5  A    between atoms: C_22  and  C_23
REMARK    6  A    between atoms: C_23  and  N_24
REMARK    7  A    between atoms: N_24  and  C_25
REMARK    8  A    between atoms: C_25  and  C_26
REMARK    9  A    between atoms: C_26  and  N_27
REMARK                            x       y       z     vdW  Elec       q    Type
REMARK                         _______ _______ _______ _____ _____    ______ ____
ROOT
ATOM      4  C   UNL     1      -0.904   0.693  24.501  0.00  0.00    +0.006 C 
ATOM      5  C   UNL     1      -1.593   0.439  24.878  0.00  0.00    +0.005 C 
ATOM      6  C   UNL     1      -1.784  -0.363  24.891  0.00  0.00    +0.027 C 
ATOM     19  C   UNL     1      -1.286  -0.912  24.528  0.00  0.00    -0.048 C 
ATOM     20  C   UNL     1      -1.477  -1.715  24.542  0.00  0.00    +0.026 C 
ATOM     21  C   UNL     1      -0.597  -0.659  24.152  0.00  0.00    -0.033 C 
ATOM     22  C   UNL     1      -0.406   0.145  24.138  0.00  0.00    +0.039 C 
ENDROOT
BRANCH   4   2
ATOM      1  C   UNL     1      -0.967   1.970  23.862  0.00  0.00    +0.000 C 
ATOM      2  C   UNL     1      -0.714   1.495  24.488  0.00  0.00    +0.000 C 
ATOM      3  C   UNL     1      -0.269   1.824  25.100  0.00  0.00    +0.000 C 
ENDBRANCH   4   2
BRANCH   6   7
ATOM      7  C   UNL     1      -2.473  -0.618  25.268  0.00  0.00    +0.091 C 
BRANCH   7   8
ATOM      8  C   UNL     1      -3.203  -0.304  25.050  0.00  0.00    +0.227 A 
ATOM      9  N   UNL     1      -3.754  -0.658  24.549  0.00  0.00    -0.111 NA
ATOM     10  N   UNL     1      -4.403  -0.152  24.484  0.00  0.00    -0.107 NA
ATOM     11  C   UNL     1      -4.252   0.515  24.945  0.00  0.00    +0.250 A 
ATOM     12  O   UNL     1      -3.511   0.421  25.295  0.00  0.00    -0.420 OA
BRANCH  11  13
ATOM     13  C   UNL     1      -4.756   1.162  25.040  0.00  0.00    +0.055 A 
ATOM     14  C   UNL     1      -5.393   1.116  25.562  0.00  0.00    +0.005 A 
ATOM     15  C   UNL     1      -5.896   1.763  25.656  0.00  0.00    +0.000 A 
ATOM     16  C   UNL     1      -5.762   2.456  25.229  0.00  0.00    +0.000 A 
ATOM     17  C   UNL     1      -5.124   2.502  24.707  0.00  0.00    +0.000 A 
ATOM     18  C   UNL     1      -4.621   1.854  24.613  0.00  0.00    +0.005 A 
ENDBRANCH  11  13
ENDBRANCH   7   8
ENDBRANCH   6   7
BRANCH  22  23
ATOM     23  C   UNL     1       0.282   0.398  23.762  0.00  0.00    +0.093 C 
BRANCH  23  24
ATOM     24  N   UNL     1       0.772  -0.150  23.385  0.00  0.00    -0.216 NA
BRANCH  24  25
ATOM     25  C   UNL     1       1.311   0.103  22.815  0.00  0.00    +0.112 C 
BRANCH  25  26
ATOM     26  C   UNL     1       2.110  -0.093  22.887  0.00  0.00    +0.134 C 
BRANCH  26  27
ATOM     27  N   UNL     1       2.688   0.438  22.635  0.00  0.00    -0.204 NA
ATOM     28  C   UNL     1       3.487   0.252  22.729  0.00  0.00    +0.242 C 
ATOM     29  C   UNL     1       4.066   0.784  22.477  0.00  0.00    +0.096 C 
ATOM     30  O   UNL     1       3.707  -0.464  23.075  0.00  0.00    -0.273 OA
ENDBRANCH  26  27
ENDBRANCH  25  26
ENDBRANCH  24  25
ENDBRANCH  23  24
ENDBRANCH  22  23
TORSDOF 9
ENDMDL
MODEL 4
REMARK VINA RESULT:     -10.6      3.020      4.558
REMARK  Name = 
REMARK  9 active torsions:
REMARK  status: ('A' for Active; 'I' for Inactive)
REMARK    1  A    between atoms: C_2  and  C_4
REMARK    2  A    between atoms: C_6  and  C_7
REMARK    3  A    between atoms: C_7  and  C_8
REMARK    4  A    between atoms: C_11  and  C_13
REMARK    5  A    between atoms: C_22  and  C_23
REMARK    6  A    between atoms: C_23  and  N_24
REMARK    7  A    between atoms: N_24  and  C_25
REMARK    8  A    between atoms: C_25  and  C_26
REMARK    9  A    between atoms: C_26  and  N_27
REMARK                            x       y       z     vdW  Elec       q    Type
REMARK                         _______ _______ _______ _____ _____    ______ ____
ROOT
ATOM      4  C   UNL     1      -1.278   0.936  24.801  0.00  0.00    +0.006 C 
ATOM      5  C   UNL     1      -1.720   1.568  25.094  0.00  0.00    +0.005 C 
ATOM      6  C   UNL     1      -1.474   2.343  24.957  0.00  0.00    +0.027 C 
ATOM     19  C   UNL     1      -0.785   2.487  24.527  0.00  0.00    -0.048 C 
ATOM     20  C   UNL     1      -0.539   3.263  24.390  0.00  0.00    +0.026 C 
ATOM     21  C   UNL     1      -0.342   1.856  24.234  0.00  0.00    -0.033 C 
ATOM     22  C   UNL     1      -0.589   1.080  24.371  0.00  0.00    +0.039 C 
ENDROOT
BRANCH   4   2
ATOM      1  C   UNL     1      -1.273  -0.239  25.613  0.00  0.00    +0.000 C 
ATOM      2  C   UNL     1      -1.524   0.161  24.937  0.00  0.00    +0.000 C 
ATOM      3  C   UNL     1      -2.022  -0.215  24.397  0.00  0.00    +0.000 C 
ENDBRANCH   4   2
BRANCH   6   7
ATOM      7  C   UNL     1      -1.917   2.974  25.250  0.00  0.00    +0.091 C 
BRANCH   7   8
ATOM      8  C   UNL     1      -2.712   3.051  25.048  0.00  0.00    +0.227 A 
ATOM      9  N   UNL     1      -3.019   3.548  24.465  0.00  0.00    -0.111 NA
ATOM     10  N   UNL     1      -3.838   3.448  24.449  0.00  0.00    -0.107 NA
ATOM     11  C   UNL     1      -4.037   2.888  25.022  0.00  0.00    +0.250 A 
ATOM     12  O   UNL     1      -3.341   2.643  25.391  0.00  0.00    -0.420 OA
BRANCH  11  13
ATOM     13  C   UNL     1      -4.799   2.621  25.194  0.00  0.00    +0.055 A 
ATOM     14  C   UNL     1      -5.214   2.942  25.830  0.00  0.00    +0.005 A 
ATOM     15  C   UNL     1      -5.976   2.675  26.002  0.00  0.00    +0.000 A 
ATOM     16  C   UNL     1      -6.321   2.087  25.538  0.00  0.00    +0.000 A 
ATOM     17  C   UNL     1      -5.905   1.765  24.902  0.00  0.00    +0.000 A 
ATOM     18  C   UNL     1      -5.144   2.033  24.730  0.00  0.00    +0.005 A 
ENDBRANCH  11  13
ENDBRANCH   7   8
ENDBRANCH   6   7
BRANCH  22  23
ATOM     23  C   UNL     1      -0.146   0.449  24.077  0.00  0.00    +0.093 C 
BRANCH  23  24
ATOM     24  N   UNL     1       0.471   0.591  23.546  0.00  0.00    -0.216 NA
BRANCH  24  25
ATOM     25  C   UNL     1       1.012  -0.008  23.376  0.00  0.00    +0.112 C 
BRANCH  25  26
ATOM     26  C   UNL     1       1.563   0.096  22.769  0.00  0.00    +0.134 C 
BRANCH  26  27
ATOM     27  N   UNL     1       2.340   0.308  22.950  0.00  0.00    -0.204 NA
ATOM     28  C   UNL     1       2.922   0.280  22.365  0.00  0.00    +0.242 C 
ATOM     29  C   UNL     1       3.698   0.492  22.546  0.00  0.00    +0.096 C 
ATOM     30  O   UNL     1       2.727   0.040  21.600  0.00  0.00    -0.273 OA
ENDBRANCH  26  27
ENDBRANCH  25  26
ENDBRANCH  24  25
ENDBRANCH  23  24
ENDBRANCH  22  23
TORSDOF 9
ENDMDL
MODEL 5
REMARK VINA RESULT:     -10.0      2.790      5.172
REMARK  Name = 
REMARK  9 active torsions:
REMARK  status: ('A' for Active; 'I' for Inactive)
REMARK    1  A    between atoms: C_2  and  C_4
REMARK    2  A    between atoms: C_6  and  C_7
REMARK    3  A    between atoms: C_7  and  C_8
REMARK    4  A    between atoms: C_11  and  C_13
REMARK    5  A    between atoms: C_22  and  C_23
REMARK    6  A    between atoms: C_23  and  N_24
REMARK    7  A    between atoms: N_24  and  C_25
REMARK    8  A    between atoms: C_25  and  C_26
REMARK    9  A    between atoms: C_26  and  N_27
REMARK                            x       y       z     vdW  Elec       q    Type
REMARK                         _______ _______ _______ _____ _____    ______ ____
ROOT
ATOM      4  C   UNL     1      -0.920   2.172  25.069  0.00  0.00    +0.006 C 
ATOM      5  C   UNL     1      -1.522   2.510  24.618  0.00  0.00    +0.005 C 
ATOM      6  C   UNL     1      -1.729   3.300  24.731  0.00  0.00    +0.027 C 
ATOM     19  C   UNL     1      -1.334   3.753  25.296  0.00  0.00    -0.048 C 
ATOM     20  C   UNL     1      -1.542   4.544  25.409  0.00  0.00    +0.026 C 
ATOM     21  C   UNL     1      -0.732   3.416  25.748  0.00  0.00    -0.033 C 
ATOM     22  C   UNL     1      -0.525   2.625  25.634  0.00  0.00    +0.039 C 
ENDROOT
BRANCH   4   2
ATOM      1  C   UNL     1      -0.141   1.181  24.397  0.00  0.00    +0.000 C 
ATOM      2  C   UNL     1      -0.713   1.382  24.956  0.00  0.00    +0.000 C 
ATOM      3  C   UNL     1      -1.078   0.792  25.402  0.00  0.00    +0.000 C 
ENDBRANCH   4   2
BRANCH   6   7
ATOM      7  C   UNL     1      -2.332   3.638  24.279  0.00  0.00    +0.091 C 
BRANCH   7   8
ATOM      8  C   UNL     1      -3.060   3.257  24.210  0.00  0.00    +0.227 A 
ATOM      9  N   UNL     1      -3.398   2.981  23.511  0.00  0.00    -0.111 NA
ATOM     10  N   UNL     1      -4.126   2.638  23.697  0.00  0.00    -0.107 NA
ATOM     11  C   UNL     1      -4.236   2.703  24.512  0.00  0.00    +0.250 A 
ATOM     12  O   UNL     1      -3.577   3.086  24.829  0.00  0.00    -0.420 OA
BRANCH  11  13
ATOM     13  C   UNL     1      -4.891   2.433  24.935  0.00  0.00    +0.055 A 
ATOM     14  C   UNL     1      -5.344   2.962  25.376  0.00  0.00    +0.005 A 
ATOM     15  C   UNL     1      -5.999   2.691  25.799  0.00  0.00    +0.000 A 
ATOM     16  C   UNL     1      -6.200   1.892  25.780  0.00  0.00    +0.000 A 
ATOM     17  C   UNL     1      -5.746   1.362  25.339  0.00  0.00    +0.000 A 
ATOM     18  C   UNL     1      -5.091   1.633  24.917  0.00  0.00    +0.005 A 
ENDBRANCH  11  13
ENDBRANCH   7   8
ENDBRANCH   6   7
BRANCH  22  23
ATOM     23  C   UNL     1       0.077   2.288  26.086  0.00  0.00    +0.093 C 
BRANCH  23  24
ATOM     24  N   UNL     1       0.406   2.710  26.715  0.00  0.00    -0.216 NA
BRANCH  24  25
ATOM     25  C   UNL     1       0.694   2.308  27.375  0.00  0.00    +0.112 C 
BRANCH  25  26
ATOM     26  C   UNL     1       1.238   2.675  27.876  0.00  0.00    +0.134 C 
BRANCH  26  27
ATOM     27  N   UNL     1       1.264   2.471  28.675  0.00  0.00    -0.204 NA
ATOM     28  C   UNL     1       1.962   2.574  29.104  0.00  0.00    +0.242 C 
ATOM     29  C   UNL     1       1.989   2.370  29.903  0.00  0.00    +0.096 C 
ATOM     30  O   UNL     1       2.632   2.882  28.734  0.00  0.00    -0.273 OA
ENDBRANCH  26  27
ENDBRANCH  25  26
ENDBRANCH  24  25
ENDBRANCH  23  24
ENDBRANCH  22  23
TORSDOF 9
ENDMDL
MODEL 6
REMARK VINA RESULT:      -9.9      1.092      5.467
REMARK  Name = 
REMARK  9 active torsions:
REMARK  status: ('A' for Active; 'I' for Inactive)
REMARK    1  A    between atoms: C_2  and  C_4
REMARK    2  A    between atoms: C_6  and  C_7
REMARK    3  A    between atoms: C_7  and  C_8
REMARK    4  A    between atoms: C_11  and  C_13
REMARK    5  A    between atoms: C_22  and  C_23
REMARK    6  A    between atoms: C_23  and  N_24
REMARK    7  A    between atoms: N_24  and  C_25
REMARK    8  A    between atoms: C_25  and  C_26
REMARK    9  A    between atoms: C_26  and  N_27
REMARK                            x       y       z     vdW  Elec       q    Type
REMARK                         _______ _______ _______ _____ _____    ______ ____
ROOT
ATOM      4  C   UNL     1      -3.595   1.947  23.951  0.00  0.00    +0.006 C 
ATOM      5  C   UNL     1      -3.936   1.210  24.094  0.00  0.00    +0.005 C 
ATOM      6  C   UNL     1      -4.543   1.136  24.647  0.00  0.00    +0.027 C 
ATOM     19  C   UNL     1      -4.809   1.800  25.058  0.00  0.00    -0.048 C 
ATOM     20  C   UNL     1      -5.416   1.727  25.612  0.00  0.00    +0.026 C 
ATOM     21  C   UNL     1      -4.468   2.538  24.916  0.00  0.00    -0.033 C 
ATOM     22  C   UNL     1      -3.861   2.611  24.362  0.00  0.00    +0.039 C 
ENDROOT
BRANCH   4   2
ATOM      1  C   UNL     1      -2.217   1.806  23.598  0.00  0.00    +0.000 C 
ATOM      2  C   UNL     1      -2.988   2.021  23.397  0.00  0.00    +0.000 C 
ATOM      3  C   UNL     1      -3.151   2.310  22.642  0.00  0.00    +0.000 C 
ENDBRANCH   4   2
BRANCH   6   7
ATOM      7  C   UNL     1      -4.884   0.399  24.790  0.00  0.00    +0.091 C 
BRANCH   7   8
ATOM      8  C   UNL     1      -4.413  -0.236  25.024  0.00  0.00    +0.227 A 
ATOM      9  N   UNL     1      -4.197  -0.421  25.798  0.00  0.00    -0.111 NA
ATOM     10  N   UNL     1      -3.726  -1.098  25.777  0.00  0.00    -0.107 NA
ATOM     11  C   UNL     1      -3.650  -1.330  24.989  0.00  0.00    +0.250 A 
ATOM     12  O   UNL     1      -4.075  -0.798  24.524  0.00  0.00    -0.420 OA
BRANCH  11  13
ATOM     13  C   UNL     1      -3.224  -1.982  24.715  0.00  0.00    +0.055 A 
ATOM     14  C   UNL     1      -3.621  -2.665  24.478  0.00  0.00    +0.005 A 
ATOM     15  C   UNL     1      -3.195  -3.316  24.204  0.00  0.00    +0.000 A 
ATOM     16  C   UNL     1      -2.372  -3.284  24.168  0.00  0.00    +0.000 A 
ATOM     17  C   UNL     1      -1.974  -2.601  24.406  0.00  0.00    +0.000 A 
ATOM     18  C   UNL     1      -2.401  -1.950  24.679  0.00  0.00    +0.005 A 
ENDBRANCH  11  13
ENDBRANCH   7   8
ENDBRANCH   6   7
BRANCH  22  23
ATOM     23  C   UNL     1      -3.520   3.349  24.220  0.00  0.00    +0.093 C 
BRANCH  23  24
ATOM     24  N   UNL     1      -3.438   3.891  24.837  0.00  0.00    -0.216 NA
BRANCH  24  25
ATOM     25  C   UNL     1      -2.998   4.580  24.725  0.00  0.00    +0.112 C 
BRANCH  25  26
ATOM     26  C   UNL     1      -2.320   4.714  25.176  0.00  0.00    +0.134 C 
BRANCH  26  27
ATOM     27  N   UNL     1      -1.731   5.218  24.894  0.00  0.00    -0.204 NA
ATOM     28  C   UNL     1      -0.936   5.035  25.020  0.00  0.00    +0.242 C 
ATOM     29  C   UNL     1      -0.348   5.539  24.738  0.00  0.00    +0.096 C 
ATOM     30  O   UNL     1      -0.730   4.347  25.426  0.00  0.00    -0.273 OA
ENDBRANCH  26  27
ENDBRANCH  25  26
ENDBRANCH  24  25
ENDBRANCH  23  24
ENDBRANCH  22  23
TORSDOF 9
ENDMDL
MODEL 7
REMARK VINA RESULT:      -9.8      2.154      4.919
REMARK  Name = 
REMARK  9 active torsions:
REMARK  status: ('A' for Active; 'I' for Inactive)
REMARK    1  A    between atoms: C_2  and  C_4
REMARK    2  A    between atoms: C_6  and  C_7
REMARK    3  A    between atoms: C_7  and  C_8
REMARK    4  A    between atoms: C_11  and  C_13
REMARK    5  A    between atoms: C_22  and  C_23
REMARK    6  A    between atoms: C_23  and  N_24
REMARK    7  A    between atoms: N_24  and  C_25
REMARK    8  A    between atoms: C_25  and  C_26
REMARK    9  A    between atoms: C_26  and  N_27
REMARK                            x       y       z     vdW  Elec       q    Type
REMARK                         _______ _______ _______ _____ _____    ______ ____
ROOT
ATOM      4  C   UNL     1      -2.026   3.253  24.741  0.00  0.00    +0.006 C 
ATOM      5  C   UNL     1      -1.502   2.781  24.313  0.00  0.00    +0.005 C 
ATOM      6  C   UNL     1      -1.772   2.340  23.671  0.00  0.00    +0.027 C 
ATOM     19  C   UNL     1      -2.568   2.371  23.455  0.00  0.00    -0.048 C 
ATOM     20  C   UNL     1      -2.839   1.930  22.812  0.00  0.00    +0.026 C 
ATOM     21  C   UNL     1      -3.093   2.843  23.882  0.00  0.00    -0.033 C 
ATOM     22  C   UNL     1      -2.822   3.284  24.525  0.00  0.00    +0.039 C 
ENDROOT
BRANCH   4   2
ATOM      1  C   UNL     1      -1.716   3.351  26.132  0.00  0.00    +0.000 C 
ATOM      2  C   UNL     1      -1.756   3.694  25.383  0.00  0.00    +0.000 C 
ATOM      3  C   UNL     1      -1.524   4.479  25.276  0.00  0.00    +0.000 C 
ENDBRANCH   4   2
BRANCH   6   7
ATOM      7  C   UNL     1      -1.248   1.868  23.244  0.00  0.00    +0.091 C 
BRANCH   7   8
ATOM      8  C   UNL     1      -0.886   1.221  23.605  0.00  0.00    +0.227 A 
ATOM      9  N   UNL     1      -0.074   1.114  23.707  0.00  0.00    -0.111 NA
ATOM     10  N   UNL     1       0.041   0.394  24.093  0.00  0.00    -0.107 NA
ATOM     11  C   UNL     1      -0.699   0.056  24.229  0.00  0.00    +0.250 A 
ATOM     12  O   UNL     1      -1.272   0.568  23.927  0.00  0.00    -0.420 OA
BRANCH  11  13
ATOM     13  C   UNL     1      -0.841  -0.666  24.602  0.00  0.00    +0.055 A 
ATOM     14  C   UNL     1      -0.933  -1.351  24.153  0.00  0.00    +0.005 A 
ATOM     15  C   UNL     1      -1.075  -2.074  24.525  0.00  0.00    +0.000 A 
ATOM     16  C   UNL     1      -1.125  -2.110  25.348  0.00  0.00    +0.000 A 
ATOM     17  C   UNL     1      -1.033  -1.424  25.798  0.00  0.00    +0.000 A 
ATOM     18  C   UNL     1      -0.891  -0.702  25.425  0.00  0.00    +0.005 A 
ENDBRANCH  11  13
ENDBRANCH   7   8
ENDBRANCH   6   7
BRANCH  22  23
ATOM     23  C   UNL     1      -3.347   3.756  24.951  0.00  0.00    +0.093 C 
BRANCH  23  24
ATOM     24  N   UNL     1      -4.160   3.690  24.820  0.00  0.00    -0.216 NA
BRANCH  24  25
ATOM     25  C   UNL     1      -4.684   3.726  25.457  0.00  0.00    +0.112 C 
BRANCH  25  26
ATOM     26  C   UNL     1      -5.403   3.322  25.422  0.00  0.00    +0.134 C 
BRANCH  26  27
ATOM     27  N   UNL     1      -5.668   2.895  26.076  0.00  0.00    -0.204 NA
ATOM     28  C   UNL     1      -6.159   2.240  25.969  0.00  0.00    +0.242 C 
ATOM     29  C   UNL     1      -6.424   1.814  26.623  0.00  0.00    +0.096 C 
ATOM     30  O   UNL     1      -6.385   2.013  25.209  0.00  0.00    -0.273 OA
ENDBRANCH  26  27
ENDBRANCH  25  26
ENDBRANCH  24  25
ENDBRANCH  23  24
ENDBRANCH  22  23
TORSDOF 9
ENDMDL
MODEL 8
REMARK VINA RESULT:      -9.7      1.884      5.695
REMARK  Name = 
REMARK  9 active torsions:
REMARK  status: ('A' for Active; 'I' for Inactive)
REMARK    1  A    between atoms: C_2  and  C_4
REMARK    2  A    between atoms: C_6  and  C_7
REMARK    3  A    between atoms: C_7  and  C_8
REMARK    4  A    between atoms: C_11  and  C_13
REMARK    5  A    between atoms: C_22  and  C_23
REMARK    6  A    between atoms: C_23  and  N_24
REMARK    7  A    between atoms: N_24  and  C_25
REMARK    8  A    between atoms: C_25  and  C_26
REMARK    9  A    between atoms: C_26  and  N_27
REMARK                            x       y       z     vdW  Elec       q    Type
REMARK                         _______ _______ _______ _____ _____    ______ ____
ROOT
ATOM      4  C   UNL     1      -0.591   2.131  25.339  0.00  0.00    +0.006 C 
ATOM      5  C   UNL     1      -0.364   1.414  24.999  0.00  0.00    +0.005 C 
ATOM      6  C   UNL     1      -0.651   1.200  24.257  0.00  0.00    +0.027 C 
ATOM     19  C   UNL     1      -1.167   1.702  23.854  0.00  0.00    -0.048 C 
ATOM     20  C   UNL     1      -1.455   1.488  23.110  0.00  0.00    +0.026 C 
ATOM     21  C   UNL     1      -1.394   2.419  24.192  0.00  0.00    -0.033 C 
ATOM     22  C   UNL     1      -1.106   2.634  24.936  0.00  0.00    +0.039 C 
ENDROOT
BRANCH   4   2
ATOM      1  C   UNL     1      -0.693   2.095  26.764  0.00  0.00    +0.000 C 
ATOM      2  C   UNL     1      -0.303   2.346  26.081  0.00  0.00    +0.000 C 
ATOM      3  C   UNL     1       0.375   2.812  26.142  0.00  0.00    +0.000 C 
ENDBRANCH   4   2
BRANCH   6   7
ATOM      7  C   UNL     1      -0.425   0.483  23.917  0.00  0.00    +0.091 C 
BRANCH   7   8
ATOM      8  C   UNL     1      -0.685  -0.229  24.242  0.00  0.00    +0.227 A 
ATOM      9  N   UNL     1      -0.210  -0.802  24.597  0.00  0.00    -0.111 NA
ATOM     10  N   UNL     1      -0.698  -1.421  24.844  0.00  0.00    -0.107 NA
ATOM     11  C   UNL     1      -1.474  -1.229  24.641  0.00  0.00    +0.250 A 
ATOM     12  O   UNL     1      -1.465  -0.492  24.269  0.00  0.00    -0.420 OA
BRANCH  11  13
ATOM     13  C   UNL     1      -2.141  -1.693  24.785  0.00  0.00    +0.055 A 
ATOM     14  C   UNL     1      -2.715  -1.436  25.318  0.00  0.00    +0.005 A 
ATOM     15  C   UNL     1      -3.382  -1.900  25.462  0.00  0.00    +0.000 A 
ATOM     16  C   UNL     1      -3.474  -2.621  25.072  0.00  0.00    +0.000 A 
ATOM     17  C   UNL     1      -2.900  -2.878  24.538  0.00  0.00    +0.000 A 
ATOM     18  C   UNL     1      -2.233  -2.414  24.395  0.00  0.00    +0.005 A 
ENDBRANCH  11  13
ENDBRANCH   7   8
ENDBRANCH   6   7
BRANCH  22  23
ATOM     23  C   UNL     1      -1.333   3.351  25.274  0.00  0.00    +0.093 C 
BRANCH  23  24
ATOM     24  N   UNL     1      -1.996   3.751  24.986  0.00  0.00    -0.216 NA
BRANCH  24  25
ATOM     25  C   UNL     1      -2.533   4.090  25.512  0.00  0.00    +0.112 C 
BRANCH  25  26
ATOM     26  C   UNL     1      -3.327   4.164  25.300  0.00  0.00    +0.134 C 
BRANCH  26  27
ATOM     27  N   UNL     1      -3.911   3.803  25.757  0.00  0.00    -0.204 NA
ATOM     28  C   UNL     1      -4.667   3.689  25.445  0.00  0.00    +0.242 C 
ATOM     29  C   UNL     1      -5.251   3.328  25.902  0.00  0.00    +0.096 C 
ATOM     30  O   UNL     1      -4.838   3.935  24.676  0.00  0.00    -0.273 OA
ENDBRANCH  26  27
ENDBRANCH  25  26
ENDBRANCH  24  25
ENDBRANCH  23  24
ENDBRANCH  22  23
TORSDOF 9
ENDMDL
