MODEL 1
REMARK VINA RESULT:     -12.6      0.000      0.000
REMARK  Name = 
REMARK  6 active torsions:
REMARK  status: ('A' for Active; 'I' for Inactive)
REMARK    1  A    between atoms: C_2  and  C_30
REMARK    2  A    between atoms: N_3  and  C_4
REMARK    3  A    between atoms: C_8  and  N_12
REMARK    4  A    between atoms: C_16  and  O_17
REMARK    5  A    between atoms: O_17  and  C_18
REMARK    6  A    between atoms: C_22  and  N_24
REMARK                            x       y       z     vdW  Elec       q    Type
REMARK                         _______ _______ _______ _____ _____    ______ ____
ROOT
ATOM     12  N   UNL     1      -0.101   1.862  25.321  0.00  0.00    -0.180 N 
ATOM     13  N   UNL     1       0.477   1.803  25.906  0.00  0.00    -0.040 NA
ATOM     14  N   UNL     1       0.715   2.567  26.108  0.00  0.00    -0.020 NA
ATOM     15  N   UNL     1       0.283   3.098  25.649  0.00  0.00    -0.071 NA
ATOM     16  C   UNL     1      -0.221   2.662  25.162  0.00  0.00    +0.343 A 
ENDROOT
BRANCH  12   8
ATOM      4  C   UNL     1      -1.759  -0.382  25.137  0.00  0.00    +0.155 C 
ATOM      5  C   UNL     1      -1.801  -0.181  25.936  0.00  0.00    +0.166 C 
ATOM      6  O   UNL     1      -1.326   0.483  26.056  0.00  0.00    -0.350 OA
ATOM      7  C   UNL     1      -0.992   0.693  25.333  0.00  0.00    +0.169 C 
ATOM      8  C   UNL     1      -0.492   1.232  24.959  0.00  0.00    +0.170 C 
ATOM      9  C   UNL     1      -0.450   1.031  24.160  0.00  0.00    +0.169 C 
ATOM     10  O   UNL     1      -0.924   0.367  24.040  0.00  0.00    -0.350 OA
ATOM     11  C   UNL     1      -1.259   0.158  24.764  0.00  0.00    +0.167 C 
BRANCH   4   3
ATOM      1  O   UNL     1      -3.334  -0.703  25.511  0.00  0.00    -0.268 OA
ATOM      2  C   UNL     1      -2.937  -1.173  24.962  0.00  0.00    +0.265 C 
ATOM      3  N   UNL     1      -2.149  -1.012  24.775  0.00  0.00    -0.198 NA
BRANCH   2  30
ATOM     30  C   UNL     1      -3.327  -1.803  24.599  0.00  0.00    +0.055 A 
ATOM     31  C   UNL     1      -3.108  -2.579  24.775  0.00  0.00    +0.005 A 
ATOM     32  C   UNL     1      -3.498  -3.209  24.413  0.00  0.00    +0.000 A 
ATOM     33  C   UNL     1      -4.107  -3.063  23.875  0.00  0.00    +0.000 A 
ATOM     34  C   UNL     1      -4.325  -2.287  23.699  0.00  0.00    +0.000 A 
ATOM     35  C   UNL     1      -3.935  -1.657  24.062  0.00  0.00    +0.005 A 
ENDBRANCH   2  30
ENDBRANCH   4   3
ENDBRANCH  12   8
BRANCH  16  17
ATOM     17  O   UNL     1      -0.753   2.974  24.612  0.00  0.00    -0.421 OA
BRANCH  17  18
ATOM     18  C   UNL     1      -1.248   3.599  24.825  0.00  0.00    +0.150 A 
ATOM     19  C   UNL     1      -0.938   4.357  24.918  0.00  0.00    +0.038 A 
ATOM     20  C   UNL     1      -1.432   4.982  25.130  0.00  0.00    +0.004 A 
ATOM     21  C   UNL     1      -2.238   4.848  25.251  0.00  0.00    +0.015 A 
ATOM     22  C   UNL     1      -2.548   4.089  25.158  0.00  0.00    +0.051 A 
ATOM     23  C   UNL     1      -2.053   3.464  24.945  0.00  0.00    +0.052 A 
BRANCH  22  24
ATOM     24  N   UNL     1      -3.353   3.955  25.278  0.00  0.00    -0.303 N 
ATOM     25  C   UNL     1      -3.861   3.890  24.631  0.00  0.00    +0.123 C 
ATOM     26  C   UNL     1      -4.666   3.756  24.751  0.00  0.00    +0.164 C 
ATOM     27  O   UNL     1      -4.963   3.686  25.517  0.00  0.00    -0.350 OA
ATOM     28  C   UNL     1      -4.455   3.750  26.164  0.00  0.00    +0.164 C 
ATOM     29  C   UNL     1      -3.650   3.884  26.044  0.00  0.00    +0.123 C 
ENDBRANCH  22  24
ENDBRANCH  17  18
ENDBRANCH  16  17
TORSDOF 6
ENDMDL
MODEL 2
REMARK VINA RESULT:     -11.6      1.444      3.343
REMARK  Name = 
REMARK  6 active torsions:
REMARK  status: ('A' for Active; 'I' for Inactive)
REMARK    1  A    between atoms: C_2  and  C_30
REMARK    2  A    between atoms: N_3  and  C_4
REMARK    3  A    between atoms: C_8  and  N_12
REMARK    4  A    between atoms: C_16  and  O_17
REMARK    5  A    between atoms: O_17  and  C_18
REMARK    6  A    between atoms: C_22  and  N_24
REMARK                            x       y       z     vdW  Elec       q    Type
REMARK                         _______ _______ _______ _____ _____    ______ ____
ROOT
ATOM     12  N   UNL     1      -4.288   3.225  24.462  0.00  0.00    -0.180 N 
ATOM     13  N   UNL     1      -4.706   3.620  23.870  0.00  0.00    -0.040 NA
ATOM     14  N   UNL     1      -4.457   4.406  23.863  0.00  0.00    -0.020 NA
ATOM     15  N   UNL     1      -3.885   4.497  24.449  0.00  0.00    -0.071 NA
ATOM     16  C   UNL     1      -3.780   3.768  24.820  0.00  0.00    +0.343 A 
ENDROOT
BRANCH  12   8
ATOM      4  C   UNL     1      -3.958   0.461  24.205  0.00  0.00    +0.155 C 
ATOM      5  C   UNL     1      -3.564   0.760  23.546  0.00  0.00    +0.166 C 
ATOM      6  O   UNL     1      -3.626   1.582  23.564  0.00  0.00    -0.350 OA
ATOM      7  C   UNL     1      -4.058   1.791  24.234  0.00  0.00    +0.169 C 
ATOM      8  C   UNL     1      -4.363   2.428  24.661  0.00  0.00    +0.170 C 
ATOM      9  C   UNL     1      -4.758   2.128  25.320  0.00  0.00    +0.169 C 
ATOM     10  O   UNL     1      -4.696   1.306  25.302  0.00  0.00    -0.350 OA
ATOM     11  C   UNL     1      -4.264   1.097  24.631  0.00  0.00    +0.167 C 
BRANCH   4   3
ATOM      1  O   UNL     1      -2.653  -0.545  24.101  0.00  0.00    -0.268 OA
ATOM      2  C   UNL     1      -3.382  -0.839  24.352  0.00  0.00    +0.265 C 
ATOM      3  N   UNL     1      -4.034  -0.337  24.404  0.00  0.00    -0.198 NA
BRANCH   2  30
ATOM     30  C   UNL     1      -3.458  -1.636  24.551  0.00  0.00    +0.055 A 
ATOM     31  C   UNL     1      -3.818  -2.160  24.025  0.00  0.00    +0.005 A 
ATOM     32  C   UNL     1      -3.894  -2.957  24.224  0.00  0.00    +0.000 A 
ATOM     33  C   UNL     1      -3.609  -3.230  24.949  0.00  0.00    +0.000 A 
ATOM     34  C   UNL     1      -3.249  -2.707  25.474  0.00  0.00    +0.000 A 
ATOM     35  C   UNL     1      -3.173  -1.909  25.275  0.00  0.00    +0.005 A 
ENDBRANCH   2  30
ENDBRANCH   4   3
ENDBRANCH  12   8
BRANCH  16  17
ATOM     17  O   UNL     1      -3.258   3.609  25.439  0.00  0.00    -0.421 OA
BRANCH  17  18
ATOM     18  C   UNL     1      -2.474   3.862  25.394  0.00  0.00    +0.150 A 
ATOM     19  C   UNL     1      -2.299   4.667  25.408  0.00  0.00    +0.038 A 
ATOM     20  C   UNL     1      -1.515   4.920  25.362  0.00  0.00    +0.004 A 
ATOM     21  C   UNL     1      -0.906   4.367  25.302  0.00  0.00    +0.015 A 
ATOM     22  C   UNL     1      -1.081   3.560  25.288  0.00  0.00    +0.051 A 
ATOM     23  C   UNL     1      -1.866   3.308  25.333  0.00  0.00    +0.052 A 
BRANCH  22  24
ATOM     24  N   UNL     1      -0.473   3.006  25.228  0.00  0.00    -0.303 N 
ATOM     25  C   UNL     1      -0.219   2.752  24.485  0.00  0.00    +0.123 C 
ATOM     26  C   UNL     1       0.390   2.199  24.424  0.00  0.00    +0.164 C 
ATOM     27  O   UNL     1       0.744   1.899  25.106  0.00  0.00    -0.350 OA
ATOM     28  C   UNL     1       0.490   2.153  25.849  0.00  0.00    +0.164 C 
ATOM     29  C   UNL     1      -0.119   2.707  25.909  0.00  0.00    +0.123 C 
ENDBRANCH  22  24
ENDBRANCH  17  18
ENDBRANCH  16  17
TORSDOF 6
ENDMDL
MODEL 3
REMARK VINA RESULT:     -10.4      1.813      4.372
REMARK  Name = 
REMARK  6 active torsions:
REMARK  status: ('A' for Active; 'I' for Inactive)
REMARK    1  A    between atoms: C_2  and  C_30
REMARK    2  A    between atoms: N_3  and  C_4
REMARK    3  A    between atoms: C_8  and  N_12
REMARK    4  A    between atoms: C_16  and  O_17
REMARK    5  A    between atoms: O_17  and  C_18
REMARK    6  A    between atoms: C_22  and  N_24
REMARK                            x       y       z     vdW  Elec       q    Type
REMARK                         _______ _______ _______ _____ _____    ______ ____
ROOT
ATOM     12  N   UNL     1      -2.380   3.262  25.197  0.00  0.00    -0.180 N 
ATOM     13  N   UNL     1      -2.325   3.734  25.872  0.00  0.00    -0.040 NA
ATOM     14  N   UNL     1      -3.085   3.828  26.179  0.00  0.00    -0.020 NA
ATOM     15  N   UNL     1      -3.609   3.414  25.695  0.00  0.00    -0.071 NA
ATOM     16  C   UNL     1      -3.173   3.065  25.088  0.00  0.00    +0.343 A 
ENDROOT
BRANCH  12   8
ATOM      4  C   UNL     1      -0.081   1.851  24.460  0.00  0.00    +0.155 C 
ATOM      5  C   UNL     1      -0.244   1.565  25.217  0.00  0.00    +0.166 C 
ATOM      6  O   UNL     1      -0.921   1.948  25.493  0.00  0.00    -0.350 OA
ATOM      7  C   UNL     1      -1.176   2.470  24.908  0.00  0.00    +0.169 C 
ATOM      8  C   UNL     1      -1.751   3.029  24.715  0.00  0.00    +0.170 C 
ATOM      9  C   UNL     1      -1.588   3.315  23.959  0.00  0.00    +0.169 C 
ATOM     10  O   UNL     1      -0.912   2.932  23.683  0.00  0.00    -0.350 OA
ATOM     11  C   UNL     1      -0.657   2.410  24.269  0.00  0.00    +0.167 C 
BRANCH   4   3
ATOM      1  O   UNL     1       0.148   0.253  24.118  0.00  0.00    -0.268 OA
ATOM      2  C   UNL     1       0.662   0.819  23.808  0.00  0.00    +0.265 C 
ATOM      3  N   UNL     1       0.547   1.618  23.979  0.00  0.00    -0.198 NA
BRANCH   2  30
ATOM     30  C   UNL     1       1.291   0.586  23.327  0.00  0.00    +0.055 A 
ATOM     31  C   UNL     1       2.044   0.897  23.453  0.00  0.00    +0.005 A 
ATOM     32  C   UNL     1       2.672   0.664  22.972  0.00  0.00    +0.000 A 
ATOM     33  C   UNL     1       2.547   0.120  22.365  0.00  0.00    +0.000 A 
ATOM     34  C   UNL     1       1.794  -0.191  22.239  0.00  0.00    +0.000 A 
ATOM     35  C   UNL     1       1.165   0.042  22.720  0.00  0.00    +0.005 A 
ENDBRANCH   2  30
ENDBRANCH   4   3
ENDBRANCH  12   8
BRANCH  16  17
ATOM     17  O   UNL     1      -3.477   2.600  24.478  0.00  0.00    -0.421 OA
BRANCH  17  18
ATOM     18  C   UNL     1      -4.053   2.031  24.641  0.00  0.00    +0.150 A 
ATOM     19  C   UNL     1      -4.830   2.262  24.792  0.00  0.00    +0.038 A 
ATOM     20  C   UNL     1      -5.406   1.695  24.954  0.00  0.00    +0.004 A 
ATOM     21  C   UNL     1      -5.204   0.894  24.966  0.00  0.00    +0.015 A 
ATOM     22  C   UNL     1      -4.426   0.663  24.815  0.00  0.00    +0.051 A 
ATOM     23  C   UNL     1      -3.851   1.232  24.652  0.00  0.00    +0.052 A 
BRANCH  22  24
ATOM     24  N   UNL     1      -4.224  -0.137  24.826  0.00  0.00    -0.303 N 
ATOM     25  C   UNL     1      -3.873  -0.464  25.498  0.00  0.00    +0.123 C 
ATOM     26  C   UNL     1      -3.671  -1.263  25.510  0.00  0.00    +0.164 C 
ATOM     27  O   UNL     1      -3.819  -1.736  24.851  0.00  0.00    -0.350 OA
ATOM     28  C   UNL     1      -4.170  -1.409  24.179  0.00  0.00    +0.164 C 
ATOM     29  C   UNL     1      -4.372  -0.609  24.167  0.00  0.00    +0.123 C 
ENDBRANCH  22  24
ENDBRANCH  17  18
ENDBRANCH  16  17
TORSDOF 6
ENDMDL
MODEL 4
REMARK VINA RESULT:     -10.3      2.496      4.520
REMARK  Name = 
REMARK  6 active torsions:
REMARK  status: ('A' for Active; 'I' for Inactive)
REMARK    1  A    between atoms: C_2  and  C_30
REMARK    2  A    between atoms: N_3  and  C_4
REMARK    3  A    between atoms: C_8  and  N_12
REMARK    4  A    between atoms: C_16  and  O_17
REMARK    5  A    between atoms: O_17  and  C_18
REMARK    6  A    between atoms: C_22  and  N_24
REMARK                            x       y       z     vdW  Elec       q    Type
REMARK                         _______ _______ _______ _____ _____    ______ ____
ROOT
ATOM     12  N   UNL     1      -1.645   0.079  24.312  0.00  0.00    -0.180 N 
ATOM     13  N   UNL     1      -1.972  -0.678  24.342  0.00  0.00    -0.040 NA
ATOM     14  N   UNL     1      -2.792  -0.604  24.300  0.00  0.00    -0.020 NA
ATOM     15  N   UNL     1      -2.972   0.198  24.244  0.00  0.00    -0.071 NA
ATOM     16  C   UNL     1      -2.264   0.621  24.251  0.00  0.00    +0.343 A 
ENDROOT
BRANCH  12   8
ATOM      4  C   UNL     1       1.006   0.184  23.430  0.00  0.00    +0.155 C 
ATOM      5  C   UNL     1       0.619  -0.212  22.819  0.00  0.00    +0.166 C 
ATOM      6  O   UNL     1      -0.178  -0.276  23.022  0.00  0.00    -0.350 OA
ATOM      7  C   UNL     1      -0.284   0.081  23.757  0.00  0.00    +0.169 C 
ATOM      8  C   UNL     1      -0.841   0.262  24.338  0.00  0.00    +0.170 C 
ATOM      9  C   UNL     1      -0.454   0.659  24.949  0.00  0.00    +0.169 C 
ATOM     10  O   UNL     1       0.343   0.722  24.746  0.00  0.00    -0.350 OA
ATOM     11  C   UNL     1       0.449   0.365  24.010  0.00  0.00    +0.167 C 
BRANCH   4   3
ATOM      1  O   UNL     1       2.000  -0.284  22.198  0.00  0.00    -0.268 OA
ATOM      2  C   UNL     1       2.307   0.133  22.840  0.00  0.00    +0.265 C 
ATOM      3  N   UNL     1       1.810   0.367  23.456  0.00  0.00    -0.198 NA
BRANCH   2  30
ATOM     30  C   UNL     1       3.111   0.316  22.866  0.00  0.00    +0.055 A 
ATOM     31  C   UNL     1       3.377   1.048  22.594  0.00  0.00    +0.005 A 
ATOM     32  C   UNL     1       4.180   1.231  22.620  0.00  0.00    +0.000 A 
ATOM     33  C   UNL     1       4.719   0.682  22.919  0.00  0.00    +0.000 A 
ATOM     34  C   UNL     1       4.454  -0.050  23.191  0.00  0.00    +0.000 A 
ATOM     35  C   UNL     1       3.649  -0.233  23.165  0.00  0.00    +0.005 A 
ENDBRANCH   2  30
ENDBRANCH   4   3
ENDBRANCH  12   8
BRANCH  16  17
ATOM     17  O   UNL     1      -2.188   1.441  24.206  0.00  0.00    -0.421 OA
BRANCH  17  18
ATOM     18  C   UNL     1      -2.830   1.903  23.969  0.00  0.00    +0.150 A 
ATOM     19  C   UNL     1      -2.918   2.110  23.176  0.00  0.00    +0.038 A 
ATOM     20  C   UNL     1      -3.559   2.572  22.939  0.00  0.00    +0.004 A 
ATOM     21  C   UNL     1      -4.113   2.825  23.496  0.00  0.00    +0.015 A 
ATOM     22  C   UNL     1      -4.024   2.618  24.290  0.00  0.00    +0.051 A 
ATOM     23  C   UNL     1      -3.383   2.156  24.526  0.00  0.00    +0.052 A 
BRANCH  22  24
ATOM     24  N   UNL     1      -4.577   2.871  24.847  0.00  0.00    -0.303 N 
ATOM     25  C   UNL     1      -5.230   2.398  25.025  0.00  0.00    +0.123 C 
ATOM     26  C   UNL     1      -5.783   2.651  25.582  0.00  0.00    +0.164 C 
ATOM     27  O   UNL     1      -5.684   3.377  25.961  0.00  0.00    -0.350 OA
ATOM     28  C   UNL     1      -5.032   3.850  25.783  0.00  0.00    +0.164 C 
ATOM     29  C   UNL     1      -4.479   3.597  25.226  0.00  0.00    +0.123 C 
ENDBRANCH  22  24
ENDBRANCH  17  18
ENDBRANCH  16  17
TORSDOF 6
ENDMDL
MODEL 5
REMARK VINA RESULT:     -10.2      1.601      5.019
REMARK  Name = 
REMARK  6 active torsions:
REMARK  status: ('A' for Active; 'I' for Inactive)
REMARK    1  A    between atoms: C_2  and  C_30
REMARK    2  A    between atoms: N_3  and  C_4
REMARK    3  A    between atoms: C_8  and  N_12
REMARK    4  A    between atoms: C_16  and  O_17
REMARK    5  A    between atoms: O_17  and  C_18
REMARK    6  A    between atoms: C_22  and  N_24
REMARK                            x       y       z     vdW  Elec       q    Type
REMARK                         _______ _______ _______ _____ _____    ______ ____
ROOT
ATOM     12  N   UNL     1      -0.494   0.787  24.251  0.00  0.00    -0.180 N 
ATOM     13  N   UNL     1       0.034   0.970  23.644  0.00  0.00    -0.040 NA
ATOM     14  N   UNL     1       0.482   0.297  23.483  0.00  0.00    -0.020 NA
ATOM     15  N   UNL     1       0.232  -0.302  23.991  0.00  0.00    -0.071 NA
ATOM     16  C   UNL     1      -0.371   0.000  24.465  0.00  0.00    +0.343 A 
ENDROOT
BRANCH  12   8
ATOM      4  C   UNL     1      -2.798   2.365  24.380  0.00  0.00    +0.155 C 
ATOM      5  C   UNL     1      -2.829   2.048  23.619  0.00  0.00    +0.166 C 
ATOM      6  O   UNL     1      -2.167   1.566  23.518  0.00  0.00    -0.350 OA
ATOM      7  C   UNL     1      -1.728   1.585  24.215  0.00  0.00    +0.169 C 
ATOM      8  C   UNL     1      -1.047   1.300  24.585  0.00  0.00    +0.170 C 
ATOM      9  C   UNL     1      -1.017   1.617  25.345  0.00  0.00    +0.169 C 
ATOM     10  O   UNL     1      -1.679   2.099  25.446  0.00  0.00    -0.350 OA
ATOM     11  C   UNL     1      -2.118   2.080  24.748  0.00  0.00    +0.167 C 
BRANCH   4   3
ATOM      1  O   UNL     1      -4.403   1.979  24.356  0.00  0.00    -0.268 OA
ATOM      2  C   UNL     1      -4.153   2.685  24.702  0.00  0.00    +0.265 C 
ATOM      3  N   UNL     1      -3.352   2.879  24.714  0.00  0.00    -0.198 NA
BRANCH   2  30
ATOM     30  C   UNL     1      -4.707   3.199  25.035  0.00  0.00    +0.055 A 
ATOM     31  C   UNL     1      -4.581   4.013  25.011  0.00  0.00    +0.005 A 
ATOM     32  C   UNL     1      -5.134   4.526  25.344  0.00  0.00    +0.000 A 
ATOM     33  C   UNL     1      -5.813   4.224  25.703  0.00  0.00    +0.000 A 
ATOM     34  C   UNL     1      -5.939   3.410  25.727  0.00  0.00    +0.000 A 
ATOM     35  C   UNL     1      -5.386   2.896  25.394  0.00  0.00    +0.005 A 
ENDBRANCH   2  30
ENDBRANCH   4   3
ENDBRANCH  12   8
BRANCH  16  17
ATOM     17  O   UNL     1      -0.780  -0.412  25.052  0.00  0.00    -0.421 OA
BRANCH  17  18
ATOM     18  C   UNL     1      -1.049  -1.179  24.906  0.00  0.00    +0.150 A 
ATOM     19  C   UNL     1      -0.529  -1.816  24.965  0.00  0.00    +0.038 A 
ATOM     20  C   UNL     1      -0.797  -2.582  24.820  0.00  0.00    +0.004 A 
ATOM     21  C   UNL     1      -1.586  -2.711  24.615  0.00  0.00    +0.015 A 
ATOM     22  C   UNL     1      -2.106  -2.074  24.555  0.00  0.00    +0.051 A 
ATOM     23  C   UNL     1      -1.837  -1.307  24.701  0.00  0.00    +0.052 A 
BRANCH  22  24
ATOM     24  N   UNL     1      -2.895  -2.202  24.350  0.00  0.00    -0.303 N 
ATOM     25  C   UNL     1      -3.220  -2.958  24.416  0.00  0.00    +0.123 C 
ATOM     26  C   UNL     1      -4.008  -3.086  24.211  0.00  0.00    +0.164 C 
ATOM     27  O   UNL     1      -4.472  -2.460  23.941  0.00  0.00    -0.350 OA
ATOM     28  C   UNL     1      -4.147  -1.704  23.875  0.00  0.00    +0.164 C 
ATOM     29  C   UNL     1      -3.358  -1.576  24.080  0.00  0.00    +0.123 C 
ENDBRANCH  22  24
ENDBRANCH  17  18
ENDBRANCH  16  17
TORSDOF 6
ENDMDL
MODEL 6
REMARK VINA RESULT:     -10.2      2.717      5.473
REMARK  Name = 
REMARK  6 active torsions:
REMARK  status: ('A' for Active; 'I' for Inactive)
REMARK    1  A    between atoms: C_2  and  C_30
REMARK    2  A    between atoms: N_3  and  C_4
REMARK    3  A    between atoms: C_8  and  N_12
REMARK    4  A    between atoms: C_16  and  O_17
REMARK    5  A    between atoms: O_17  and  C_18
REMARK    6  A    between atoms: C_22  and  N_24
REMARK                            x       y       z     vdW  Elec       q    Type
REMARK                         _______ _______ _______ _____ _____    ______ ____
ROOT
ATOM     12  N   UNL     1      -1.356   1.496  23.433  0.00  0.00    -0.180 N 
ATOM     13  N   UNL     1      -1.661   1.941  22.808  0.00  0.00    -0.040 NA
ATOM     14  N   UNL     1      -2.483   1.873  22.824  0.00  0.00    -0.020 NA
ATOM     15  N   UNL     1      -2.686   1.387  23.458  0.00  0.00    -0.071 NA
ATOM     16  C   UNL     1      -1.990   1.154  23.834  0.00  0.00    +0.343 A 
ENDROOT
BRANCH  12   8
ATOM      4  C   UNL     1       1.246   0.492  23.239  0.00  0.00    +0.155 C 
ATOM      5  C   UNL     1       0.843   0.090  22.642  0.00  0.00    +0.166 C 
ATOM      6  O   UNL     1       0.059   0.346  22.647  0.00  0.00    -0.350 OA
ATOM      7  C   UNL     1      -0.023   0.905  23.247  0.00  0.00    +0.169 C 
ATOM      8  C   UNL     1      -0.558   1.409  23.622  0.00  0.00    +0.170 C 
ATOM      9  C   UNL     1      -0.155   1.811  24.219  0.00  0.00    +0.169 C 
ATOM     10  O   UNL     1       0.629   1.555  24.214  0.00  0.00    -0.350 OA
ATOM     11  C   UNL     1       0.711   0.996  23.613  0.00  0.00    +0.167 C 
BRANCH   4   3
ATOM      1  O   UNL     1       2.339   0.121  22.059  0.00  0.00    -0.268 OA
ATOM      2  C   UNL     1       2.591   0.220  22.839  0.00  0.00    +0.265 C 
ATOM      3  N   UNL     1       2.044   0.405  23.428  0.00  0.00    -0.198 NA
BRANCH   2  30
ATOM     30  C   UNL     1       3.389   0.133  23.028  0.00  0.00    +0.055 A 
ATOM     31  C   UNL     1       3.914   0.755  22.897  0.00  0.00    +0.005 A 
ATOM     32  C   UNL     1       4.712   0.668  23.086  0.00  0.00    +0.000 A 
ATOM     33  C   UNL     1       4.985  -0.041  23.407  0.00  0.00    +0.000 A 
ATOM     34  C   UNL     1       4.460  -0.663  23.539  0.00  0.00    +0.000 A 
ATOM     35  C   UNL     1       3.662  -0.576  23.349  0.00  0.00    +0.005 A 
ENDBRANCH   2  30
ENDBRANCH   4   3
ENDBRANCH  12   8
BRANCH  16  17
ATOM     17  O   UNL     1      -1.937   0.664  24.497  0.00  0.00    -0.421 OA
BRANCH  17  18
ATOM     18  C   UNL     1      -2.609   0.274  24.776  0.00  0.00    +0.150 A 
ATOM     19  C   UNL     1      -3.131   0.664  25.281  0.00  0.00    +0.038 A 
ATOM     20  C   UNL     1      -3.802   0.275  25.561  0.00  0.00    +0.004 A 
ATOM     21  C   UNL     1      -3.951  -0.505  25.335  0.00  0.00    +0.015 A 
ATOM     22  C   UNL     1      -3.428  -0.895  24.829  0.00  0.00    +0.051 A 
ATOM     23  C   UNL     1      -2.757  -0.505  24.550  0.00  0.00    +0.052 A 
BRANCH  22  24
ATOM     24  N   UNL     1      -3.575  -1.674  24.603  0.00  0.00    -0.303 N 
ATOM     25  C   UNL     1      -4.115  -1.833  23.999  0.00  0.00    +0.123 C 
ATOM     26  C   UNL     1      -4.263  -2.612  23.773  0.00  0.00    +0.164 C 
ATOM     27  O   UNL     1      -3.872  -3.233  24.150  0.00  0.00    -0.350 OA
ATOM     28  C   UNL     1      -3.333  -3.074  24.754  0.00  0.00    +0.164 C 
ATOM     29  C   UNL     1      -3.185  -2.295  24.981  0.00  0.00    +0.123 C 
ENDBRANCH  22  24
ENDBRANCH  17  18
ENDBRANCH  16  17
TORSDOF 6
ENDMDL
MODEL 7
REMARK VINA RESULT:     -10.2      2.612      5.514
REMARK  Name = 
REMARK  6 active torsions:
REMARK  status: ('A' for Active; 'I' for Inactive)
REMARK    1  A    between atoms: C_2  and  C_30
REMARK    2  A    between atoms: N_3  and  C_4
REMARK    3  A    between atoms: C_8  and  N_12
REMARK    4  A    between atoms: C_16  and  O_17
REMARK    5  A    between atoms: O_17  and  C_18
REMARK    6  A    between atoms: C_22  and  N_24
REMARK                            x       y       z     vdW  Elec       q    Type
REMARK                         _______ _______ _______ _____ _____    ______ ____
ROOT
ATOM     12  N   UNL     1      -0.579  -0.450  24.696  0.00  0.00    -0.180 N 
ATOM     13  N   UNL     1      -0.661  -1.202  25.026  0.00  0.00    -0.040 NA
ATOM     14  N   UNL     1      -0.092  -1.693  24.686  0.00  0.00    -0.020 NA
ATOM     15  N   UNL     1       0.341  -1.245  24.146  0.00  0.00    -0.071 NA
ATOM     16  C   UNL     1       0.040  -0.477  24.152  0.00  0.00    +0.343 A 
ENDROOT
BRANCH  12   8
ATOM      4  C   UNL     1      -2.839   1.196  24.722  0.00  0.00    +0.155 C 
ATOM      5  C   UNL     1      -3.085   0.544  24.280  0.00  0.00    +0.166 C 
ATOM      6  O   UNL     1      -2.454   0.015  24.235  0.00  0.00    -0.350 OA
ATOM      7  C   UNL     1      -1.819   0.339  24.649  0.00  0.00    +0.169 C 
ATOM      8  C   UNL     1      -1.036   0.213  24.877  0.00  0.00    +0.170 C 
ATOM      9  C   UNL     1      -0.791   0.865  25.319  0.00  0.00    +0.169 C 
ATOM     10  O   UNL     1      -1.422   1.394  25.364  0.00  0.00    -0.350 OA
ATOM     11  C   UNL     1      -2.057   1.069  24.950  0.00  0.00    +0.167 C 
BRANCH   4   3
ATOM      1  O   UNL     1      -4.486   1.083  24.740  0.00  0.00    -0.268 OA
ATOM      2  C   UNL     1      -4.120   1.802  24.913  0.00  0.00    +0.265 C 
ATOM      3  N   UNL     1      -3.297   1.858  24.903  0.00  0.00    -0.198 NA
BRANCH   2  30
ATOM     30  C   UNL     1      -4.577   2.464  25.095  0.00  0.00    +0.055 A 
ATOM     31  C   UNL     1      -5.262   2.381  25.547  0.00  0.00    +0.005 A 
ATOM     32  C   UNL     1      -5.718   3.044  25.728  0.00  0.00    +0.000 A 
ATOM     33  C   UNL     1      -5.491   3.789  25.458  0.00  0.00    +0.000 A 
ATOM     34  C   UNL     1      -4.806   3.872  25.005  0.00  0.00    +0.000 A 
ATOM     35  C   UNL     1      -4.349   3.209  24.824  0.00  0.00    +0.005 A 
ENDBRANCH   2  30
ENDBRANCH   4   3
ENDBRANCH  12   8
BRANCH  16  17
ATOM     17  O   UNL     1       0.312   0.154  23.694  0.00  0.00    -0.421 OA
BRANCH  17  18
ATOM     18  C   UNL     1       0.874   0.023  23.103  0.00  0.00    +0.150 A 
ATOM     19  C   UNL     1       0.638  -0.266  22.368  0.00  0.00    +0.038 A 
ATOM     20  C   UNL     1       1.198  -0.397  21.777  0.00  0.00    +0.004 A 
ATOM     21  C   UNL     1       1.995  -0.238  21.922  0.00  0.00    +0.015 A 
ATOM     22  C   UNL     1       2.231   0.051  22.659  0.00  0.00    +0.051 A 
ATOM     23  C   UNL     1       1.670   0.181  23.249  0.00  0.00    +0.052 A 
BRANCH  22  24
ATOM     24  N   UNL     1       3.027   0.209  22.804  0.00  0.00    -0.303 N 
ATOM     25  C   UNL     1       3.335   0.957  22.641  0.00  0.00    +0.123 C 
ATOM     26  C   UNL     1       4.132   1.116  22.787  0.00  0.00    +0.164 C 
ATOM     27  O   UNL     1       4.620   0.527  23.095  0.00  0.00    -0.350 OA
ATOM     28  C   UNL     1       4.312  -0.222  23.258  0.00  0.00    +0.164 C 
ATOM     29  C   UNL     1       3.515  -0.380  23.112  0.00  0.00    +0.123 C 
ENDBRANCH  22  24
ENDBRANCH  17  18
ENDBRANCH  16  17
TORSDOF 6
ENDMDL
MODEL 8
REMARK VINA RESULT:      -9.9      2.016      4.168
REMARK  Name = 
REMARK  6 active torsions:
REMARK  status: ('A' for Active; 'I' for Inactive)
REMARK    1  A    between atoms: C_2  and  C_30
REMARK    2  A    between atoms: N_3  and  C_4
REMARK    3  A    between atoms: C_8  and  N_12
REMARK    4  A    between atoms: C_16  and  O_17
REMARK    5  A    between atoms: O_17  and  C_18
REMARK    6  A    between atoms: C_22  and  N_24
REMARK                            x       y       z     vdW  Elec       q    Type
REMARK                         _______ _______ _______ _____ _____    ______ ____
ROOT
ATOM     12  N   UNL     1      -2.789  -1.067  25.372  0.00  0.00    -0.180 N 
ATOM     13  N   UNL     1      -2.859  -1.449  26.101  0.00  0.00    -0.040 NA
ATOM     14  N   UNL     1      -3.581  -1.231  26.434  0.00  0.00    -0.020 NA
ATOM     15  N   UNL     1      -3.957  -0.715  25.913  0.00  0.00    -0.071 NA
ATOM     16  C   UNL     1      -3.468  -0.614  25.256  0.00  0.00    +0.343 A 
ENDROOT
BRANCH  12   8
ATOM      4  C   UNL     1      -0.280  -0.478  24.287  0.00  0.00    +0.155 C 
ATOM      5  C   UNL     1      -0.335   0.039  24.928  0.00  0.00    +0.166 C 
ATOM      6  O   UNL     1      -1.063  -0.088  25.294  0.00  0.00    -0.350 OA
ATOM      7  C   UNL     1      -1.458  -0.681  24.881  0.00  0.00    +0.169 C 
ATOM      8  C   UNL     1      -2.151  -1.127  24.852  0.00  0.00    +0.170 C 
ATOM      9  C   UNL     1      -2.096  -1.644  24.211  0.00  0.00    +0.169 C 
ATOM     10  O   UNL     1      -1.368  -1.518  23.844  0.00  0.00    -0.350 OA
ATOM     11  C   UNL     1      -0.973  -0.923  24.258  0.00  0.00    +0.167 C 
BRANCH   4   3
ATOM      1  O   UNL     1       0.427   0.886  23.685  0.00  0.00    -0.268 OA
ATOM      2  C   UNL     1       0.711   0.143  23.466  0.00  0.00    +0.265 C 
ATOM      3  N   UNL     1       0.358  -0.539  23.766  0.00  0.00    -0.198 NA
BRANCH   2  30
ATOM     30  C   UNL     1       1.348   0.082  22.945  0.00  0.00    +0.055 A 
ATOM     31  C   UNL     1       1.242  -0.255  22.200  0.00  0.00    +0.005 A 
ATOM     32  C   UNL     1       1.879  -0.316  21.680  0.00  0.00    +0.000 A 
ATOM     33  C   UNL     1       2.623  -0.039  21.904  0.00  0.00    +0.000 A 
ATOM     34  C   UNL     1       2.729   0.299  22.649  0.00  0.00    +0.000 A 
ATOM     35  C   UNL     1       2.092   0.359  23.170  0.00  0.00    +0.005 A 
ENDBRANCH   2  30
ENDBRANCH   4   3
ENDBRANCH  12   8
BRANCH  16  17
ATOM     17  O   UNL     1      -3.630  -0.141  24.599  0.00  0.00    -0.421 OA
BRANCH  17  18
ATOM     18  C   UNL     1      -4.151   0.495  24.666  0.00  0.00    +0.150 A 
ATOM     19  C   UNL     1      -4.964   0.361  24.686  0.00  0.00    +0.038 A 
ATOM     20  C   UNL     1      -5.486   0.996  24.753  0.00  0.00    +0.004 A 
ATOM     21  C   UNL     1      -5.193   1.767  24.801  0.00  0.00    +0.015 A 
ATOM     22  C   UNL     1      -4.379   1.901  24.781  0.00  0.00    +0.051 A 
ATOM     23  C   UNL     1      -3.858   1.264  24.714  0.00  0.00    +0.052 A 
BRANCH  22  24
ATOM     24  N   UNL     1      -4.086   2.670  24.829  0.00  0.00    -0.303 N 
ATOM     25  C   UNL     1      -3.918   3.091  24.139  0.00  0.00    +0.123 C 
ATOM     26  C   UNL     1      -3.625   3.860  24.186  0.00  0.00    +0.164 C 
ATOM     27  O   UNL     1      -3.500   4.209  24.923  0.00  0.00    -0.350 OA
ATOM     28  C   UNL     1      -3.668   3.789  25.613  0.00  0.00    +0.164 C 
ATOM     29  C   UNL     1      -3.961   3.019  25.565  0.00  0.00    +0.123 C 
ENDBRANCH  22  24
ENDBRANCH  17  18
ENDBRANCH  16  17
TORSDOF 6
ENDMDL
MODEL 9
REMARK VINA RESULT:      -9.7      1.426      4.890
REMARK  Name = 
REMARK  6 active torsions:
REMARK  status: ('A' for Active; 'I' for Inactive)
REMARK    1  A    between atoms: C_2  and  C_30
REMARK    2  A    between atoms: N_3  and  C_4
REMARK    3  A    between atoms: C_8  and  N_12
REMARK    4  A    between atoms: C_16  and  O_17
REMARK    5  A    between atoms: O_17  and  C_18
REMARK    6  A    between atoms: C_22  and  N_24
REMARK                            x       y       z     vdW  Elec       q    Type
REMARK                         _______ _______ _______ _____ _____    ______ ____
ROOT
ATOM     12  N   UNL     1      -0.724  -0.810  24.836  0.00  0.00    -0.180 N 
ATOM     13  N   UNL     1      -0.258  -1.246  25.360  0.00  0.00    -0.040 NA
ATOM     14  N   UNL     1      -0.546  -2.018  25.375  0.00  0.00    -0.020 NA
ATOM     15  N   UNL     1      -1.190  -2.061  24.862  0.00  0.00    -0.071 NA
ATOM     16  C   UNL     1      -1.300  -1.314  24.529  0.00  0.00    +0.343 A 
ENDROOT
BRANCH  12   8
ATOM      4  C   UNL     1      -0.716   1.952  25.270  0.00  0.00    +0.155 C 
ATOM      5  C   UNL     1      -0.947   1.646  26.000  0.00  0.00    +0.166 C 
ATOM      6  O   UNL     1      -0.969   0.824  25.937  0.00  0.00    -0.350 OA
ATOM      7  C   UNL     1      -0.752   0.621  25.168  0.00  0.00    +0.169 C 
ATOM      8  C   UNL     1      -0.631  -0.011  24.652  0.00  0.00    +0.170 C 
ATOM      9  C   UNL     1      -0.400   0.294  23.922  0.00  0.00    +0.169 C 
ATOM     10  O   UNL     1      -0.378   1.116  23.986  0.00  0.00    -0.350 OA
ATOM     11  C   UNL     1      -0.596   1.319  24.756  0.00  0.00    +0.167 C 
BRANCH   4   3
ATOM      1  O   UNL     1      -1.876   3.041  25.707  0.00  0.00    -0.268 OA
ATOM      2  C   UNL     1      -1.203   3.295  25.305  0.00  0.00    +0.265 C 
ATOM      3  N   UNL     1      -0.623   2.751  25.086  0.00  0.00    -0.198 NA
BRANCH   2  30
ATOM     30  C   UNL     1      -1.109   4.094  25.122  0.00  0.00    +0.055 A 
ATOM     31  C   UNL     1      -1.710   4.631  25.298  0.00  0.00    +0.005 A 
ATOM     32  C   UNL     1      -1.616   5.429  25.114  0.00  0.00    +0.000 A 
ATOM     33  C   UNL     1      -0.922   5.692  24.754  0.00  0.00    +0.000 A 
ATOM     34  C   UNL     1      -0.321   5.155  24.578  0.00  0.00    +0.000 A 
ATOM     35  C   UNL     1      -0.414   4.356  24.762  0.00  0.00    +0.005 A 
ENDBRANCH   2  30
ENDBRANCH   4   3
ENDBRANCH  12   8
BRANCH  16  17
ATOM     17  O   UNL     1      -1.884  -1.108  23.983  0.00  0.00    -0.421 OA
BRANCH  17  18
ATOM     18  C   UNL     1      -2.681  -1.178  24.185  0.00  0.00    +0.150 A 
ATOM     19  C   UNL     1      -3.039  -1.920  24.200  0.00  0.00    +0.038 A 
ATOM     20  C   UNL     1      -3.835  -1.991  24.402  0.00  0.00    +0.004 A 
ATOM     21  C   UNL     1      -4.274  -1.317  24.589  0.00  0.00    +0.015 A 
ATOM     22  C   UNL     1      -3.916  -0.574  24.574  0.00  0.00    +0.051 A 
ATOM     23  C   UNL     1      -3.119  -0.505  24.372  0.00  0.00    +0.052 A 
BRANCH  22  24
ATOM     24  N   UNL     1      -4.354   0.100  24.761  0.00  0.00    -0.303 N 
ATOM     25  C   UNL     1      -4.820   0.112  25.442  0.00  0.00    +0.123 C 
ATOM     26  C   UNL     1      -5.258   0.786  25.629  0.00  0.00    +0.164 C 
ATOM     27  O   UNL     1      -5.231   1.446  25.136  0.00  0.00    -0.350 OA
ATOM     28  C   UNL     1      -4.765   1.433  24.455  0.00  0.00    +0.164 C 
ATOM     29  C   UNL     1      -4.327   0.760  24.268  0.00  0.00    +0.123 C 
ENDBRANCH  22  24
ENDBRANCH  17  18
ENDBRANCH  16  17
TORSDOF 6
ENDMDL
MODEL 10
REMARK VINA RESULT:      -9.6      1.521      2.348
REMARK  Name = 
REMARK  6 active torsions:
REMARK  status: ('A' for Active; 'I' for Inactive)
REMARK    1  A    between atoms: C_2  and  C_30
REMARK    2  A    between atoms: N_3  and  C_4
REMARK    3  A    between atoms: C_8  and  N_12
REMARK    4  A    between atoms: C_16  and  O_17
REMARK    5  A    between atoms: O_17  and  C_18
REMARK    6  A    between atoms: C_22  and  N_24
REMARK                            x       y       z     vdW  Elec       q    Type
REMARK                         _______ _______ _______ _____ _____    ______ ____
ROOT
ATOM     12  N   UNL     1      -0.995   3.708  25.260  0.00  0.00    -0.180 N 
ATOM     13  N   UNL     1      -0.535   4.224  24.809  0.00  0.00    -0.040 NA
ATOM     14  N   UNL     1      -0.885   4.970  24.838  0.00  0.00    -0.020 NA
ATOM     15  N   UNL     1      -1.561   4.916  25.307  0.00  0.00    -0.071 NA
ATOM     16  C   UNL     1      -1.629   4.136  25.567  0.00  0.00    +0.343 A 
ENDROOT
BRANCH  12   8
ATOM      4  C   UNL     1      -0.854   0.988  24.630  0.00  0.00    +0.155 C 
ATOM      5  C   UNL     1      -1.140   1.328  23.936  0.00  0.00    +0.166 C 
ATOM      6  O   UNL     1      -1.205   2.141  24.059  0.00  0.00    -0.350 OA
ATOM      7  C   UNL     1      -0.959   2.303  24.828  0.00  0.00    +0.169 C 
ATOM      8  C   UNL     1      -0.847   2.905  25.381  0.00  0.00    +0.170 C 
ATOM      9  C   UNL     1      -0.560   2.565  26.076  0.00  0.00    +0.169 C 
ATOM     10  O   UNL     1      -0.495   1.752  25.953  0.00  0.00    -0.350 OA
ATOM     11  C   UNL     1      -0.742   1.590  25.182  0.00  0.00    +0.167 C 
BRANCH   4   3
ATOM      1  O   UNL     1      -2.032  -0.126  24.321  0.00  0.00    -0.268 OA
ATOM      2  C   UNL     1      -1.295  -0.372  24.597  0.00  0.00    +0.265 C 
ATOM      3  N   UNL     1      -0.706   0.185  24.752  0.00  0.00    -0.198 NA
BRANCH   2  30
ATOM     30  C   UNL     1      -1.146  -1.174  24.719  0.00  0.00    +0.055 A 
ATOM     31  C   UNL     1      -0.428  -1.416  25.045  0.00  0.00    +0.005 A 
ATOM     32  C   UNL     1      -0.280  -2.218  25.166  0.00  0.00    +0.000 A 
ATOM     33  C   UNL     1      -0.850  -2.779  24.961  0.00  0.00    +0.000 A 
ATOM     34  C   UNL     1      -1.568  -2.537  24.635  0.00  0.00    +0.000 A 
ATOM     35  C   UNL     1      -1.716  -1.734  24.513  0.00  0.00    +0.005 A 
ENDBRANCH   2  30
ENDBRANCH   4   3
ENDBRANCH  12   8
BRANCH  16  17
ATOM     17  O   UNL     1      -2.227   3.836  26.051  0.00  0.00    -0.421 OA
BRANCH  17  18
ATOM     18  C   UNL     1      -3.018   3.988  25.871  0.00  0.00    +0.150 A 
ATOM     19  C   UNL     1      -3.298   4.764  25.862  0.00  0.00    +0.038 A 
ATOM     20  C   UNL     1      -4.088   4.915  25.683  0.00  0.00    +0.004 A 
ATOM     21  C   UNL     1      -4.600   4.291  25.511  0.00  0.00    +0.015 A 
ATOM     22  C   UNL     1      -4.320   3.514  25.520  0.00  0.00    +0.051 A 
ATOM     23  C   UNL     1      -3.529   3.363  25.700  0.00  0.00    +0.052 A 
BRANCH  22  24
ATOM     24  N   UNL     1      -4.830   2.889  25.349  0.00  0.00    -0.303 N 
ATOM     25  C   UNL     1      -4.688   2.408  24.694  0.00  0.00    +0.123 C 
ATOM     26  C   UNL     1      -5.198   1.783  24.523  0.00  0.00    +0.164 C 
ATOM     27  O   UNL     1      -5.851   1.639  25.006  0.00  0.00    -0.350 OA
ATOM     28  C   UNL     1      -5.993   2.121  25.661  0.00  0.00    +0.164 C 
ATOM     29  C   UNL     1      -5.483   2.745  25.832  0.00  0.00    +0.123 C 
ENDBRANCH  22  24
ENDBRANCH  17  18
ENDBRANCH  16  17
TORSDOF 6
ENDMDL
