MODEL 1
REMARK VINA RESULT:     -10.6      0.000      0.000
REMARK  Name = 
REMARK  6 active torsions:
REMARK  status: ('A' for Active; 'I' for Inactive)
REMARK    1  A    between atoms: O_2  and  C_3
REMARK    2  A    between atoms: C_6  and  C_9
REMARK    3  A    between atoms: C_12  and  C_14
REMARK    4  A    between atoms: N_18  and  C_19
REMARK    5  A    between atoms: C_19  and  C_20
REMARK    6  A    between atoms: C_23  and  N_26
REMARK                            x       y       z     vdW  Elec       q    Type
REMARK                         _______ _______ _______ _____ _____    ______ ____
ROOT
ATOM     14  C   UNL     1      -4.830   1.772  24.965  0.00  0.00    +0.138 C 
ATOM     15  C   UNL     1      -5.550   1.886  25.352  0.00  0.00    +0.027 C 
ATOM     16  C   UNL     1      -5.859   1.145  25.540  0.00  0.00    +0.019 C 
ATOM     17  C   UNL     1      -5.329   0.572  25.270  0.00  0.00    +0.073 C 
ATOM     18  N   UNL     1      -4.693   0.960  24.915  0.00  0.00    -0.263 NA
ENDROOT
BRANCH  14  12
ATOM      9  C   UNL     1      -3.332   3.242  24.575  0.00  0.00    +0.205 A 
ATOM     10  N   UNL     1      -3.809   3.319  23.906  0.00  0.00    -0.056 NA
ATOM     11  O   UNL     1      -4.428   2.778  23.971  0.00  0.00    -0.336 OA
ATOM     12  C   UNL     1      -4.334   2.366  24.680  0.00  0.00    +0.251 A 
ATOM     13  N   UNL     1      -3.656   2.654  25.053  0.00  0.00    -0.190 NA
BRANCH   9   6
ATOM      3  C   UNL     1      -1.287   4.548  25.062  0.00  0.00    +0.225 A 
ATOM      4  N   UNL     1      -1.240   3.863  24.605  0.00  0.00    -0.210 NA
ATOM      5  C   UNL     1      -1.922   3.428  24.443  0.00  0.00    +0.105 A 
ATOM      6  C   UNL     1      -2.650   3.678  24.737  0.00  0.00    +0.058 A 
ATOM      7  C   UNL     1      -2.698   4.363  25.195  0.00  0.00    +0.010 A 
ATOM      8  C   UNL     1      -2.016   4.798  25.357  0.00  0.00    +0.058 A 
BRANCH   3   2
ATOM      1  C   UNL     1      -0.256   5.439  24.630  0.00  0.00    +0.254 C 
ATOM      2  O   UNL     1      -0.605   4.984  25.224  0.00  0.00    -0.456 OA
ENDBRANCH   3   2
ENDBRANCH   9   6
ENDBRANCH  14  12
BRANCH  18  19
ATOM     19  C   UNL     1      -4.036   0.600  24.570  0.00  0.00    +0.099 C 
BRANCH  19  20
ATOM     20  C   UNL     1      -3.952  -0.220  24.602  0.00  0.00    -0.006 A 
ATOM     21  C   UNL     1      -3.608  -0.574  25.262  0.00  0.00    -0.001 A 
ATOM     22  C   UNL     1      -3.523  -1.395  25.294  0.00  0.00    +0.024 A 
ATOM     23  C   UNL     1      -3.783  -1.860  24.664  0.00  0.00    +0.143 A 
ATOM     24  C   UNL     1      -4.128  -1.506  24.004  0.00  0.00    +0.024 A 
ATOM     25  C   UNL     1      -4.212  -0.686  23.972  0.00  0.00    -0.001 A 
BRANCH  23  26
ATOM     26  N   UNL     1      -3.699  -2.681  24.696  0.00  0.00    +0.058 N 
ATOM     27  O   UNL     1      -3.988  -3.149  24.081  0.00  0.00    -0.126 OA
ATOM     28  O   UNL     1      -3.325  -3.031  25.342  0.00  0.00    -0.126 OA
ENDBRANCH  23  26
ENDBRANCH  19  20
ENDBRANCH  18  19
TORSDOF 6
ENDMDL
MODEL 2
REMARK VINA RESULT:     -10.1      1.061      5.361
REMARK  Name = 
REMARK  6 active torsions:
REMARK  status: ('A' for Active; 'I' for Inactive)
REMARK    1  A    between atoms: O_2  and  C_3
REMARK    2  A    between atoms: C_6  and  C_9
REMARK    3  A    between atoms: C_12  and  C_14
REMARK    4  A    between atoms: N_18  and  C_19
REMARK    5  A    between atoms: C_19  and  C_20
REMARK    6  A    between atoms: C_23  and  N_26
REMARK                            x       y       z     vdW  Elec       q    Type
REMARK                         _______ _______ _______ _____ _____    ______ ____
ROOT
ATOM     14  C   UNL     1      -4.557   1.977  24.801  0.00  0.00    +0.138 C 
ATOM     15  C   UNL     1      -5.208   2.277  24.392  0.00  0.00    +0.027 C 
ATOM     16  C   UNL     1      -5.090   3.086  24.282  0.00  0.00    +0.019 C 
ATOM     17  C   UNL     1      -4.365   3.286  24.623  0.00  0.00    +0.073 C 
ATOM     18  N   UNL     1      -4.036   2.600  24.944  0.00  0.00    -0.263 NA
ENDROOT
BRANCH  14  12
ATOM      9  C   UNL     1      -4.032  -0.078  25.047  0.00  0.00    +0.205 A 
ATOM     10  N   UNL     1      -4.523   0.041  25.701  0.00  0.00    -0.056 NA
ATOM     11  O   UNL     1      -4.779   0.825  25.688  0.00  0.00    -0.336 OA
ATOM     12  C   UNL     1      -4.447   1.191  25.027  0.00  0.00    +0.251 A 
ATOM     13  N   UNL     1      -3.986   0.633  24.631  0.00  0.00    -0.190 NA
BRANCH   9   6
ATOM      3  C   UNL     1      -2.900  -2.194  24.444  0.00  0.00    +0.225 A 
ATOM      4  N   UNL     1      -2.505  -1.629  24.895  0.00  0.00    -0.210 NA
ATOM      5  C   UNL     1      -2.882  -0.923  25.097  0.00  0.00    +0.105 A 
ATOM      6  C   UNL     1      -3.655  -0.783  24.846  0.00  0.00    +0.058 A 
ATOM      7  C   UNL     1      -4.051  -1.348  24.394  0.00  0.00    +0.010 A 
ATOM      8  C   UNL     1      -3.674  -2.054  24.193  0.00  0.00    +0.058 A 
BRANCH   3   2
ATOM      1  C   UNL     1      -1.699  -2.930  24.204  0.00  0.00    +0.254 C 
ATOM      2  O   UNL     1      -2.523  -2.900  24.243  0.00  0.00    -0.456 OA
ENDBRANCH   3   2
ENDBRANCH   9   6
ENDBRANCH  14  12
BRANCH  18  19
ATOM     19  C   UNL     1      -3.314   2.548  25.337  0.00  0.00    +0.099 C 
BRANCH  19  20
ATOM     20  C   UNL     1      -2.762   3.157  25.271  0.00  0.00    -0.006 A 
ATOM     21  C   UNL     1      -2.186   3.129  24.681  0.00  0.00    -0.001 A 
ATOM     22  C   UNL     1      -1.634   3.739  24.614  0.00  0.00    +0.024 A 
ATOM     23  C   UNL     1      -1.659   4.377  25.138  0.00  0.00    +0.143 A 
ATOM     24  C   UNL     1      -2.235   4.404  25.727  0.00  0.00    +0.024 A 
ATOM     25  C   UNL     1      -2.787   3.795  25.794  0.00  0.00    -0.001 A 
BRANCH  23  26
ATOM     26  N   UNL     1      -1.107   4.987  25.071  0.00  0.00    +0.058 N 
ATOM     27  O   UNL     1      -0.314   4.811  24.921  0.00  0.00    -0.126 OA
ATOM     28  O   UNL     1      -1.348   5.771  25.154  0.00  0.00    -0.126 OA
ENDBRANCH  23  26
ENDBRANCH  19  20
ENDBRANCH  18  19
TORSDOF 6
ENDMDL
MODEL 3
REMARK VINA RESULT:      -9.8      2.132      6.176
REMARK  Name = 
REMARK  6 active torsions:
REMARK  status: ('A' for Active; 'I' for Inactive)
REMARK    1  A    between atoms: O_2  and  C_3
REMARK    2  A    between atoms: C_6  and  C_9
REMARK    3  A    between atoms: C_12  and  C_14
REMARK    4  A    between atoms: N_18  and  C_19
REMARK    5  A    between atoms: C_19  and  C_20
REMARK    6  A    between atoms: C_23  and  N_26
REMARK                            x       y       z     vdW  Elec       q    Type
REMARK                         _______ _______ _______ _____ _____    ______ ____
ROOT
ATOM     14  C   UNL     1      -0.264   0.671  24.516  0.00  0.00    +0.138 C 
ATOM     15  C   UNL     1       0.339   0.621  23.955  0.00  0.00    +0.027 C 
ATOM     16  C   UNL     1       0.620   1.383  23.813  0.00  0.00    +0.019 C 
ATOM     17  C   UNL     1       0.191   1.905  24.287  0.00  0.00    +0.073 C 
ATOM     18  N   UNL     1      -0.356   1.465  24.721  0.00  0.00    -0.263 NA
ENDROOT
BRANCH  14  12
ATOM      9  C   UNL     1      -1.595  -0.944  24.938  0.00  0.00    +0.205 A 
ATOM     10  N   UNL     1      -1.140  -0.928  25.627  0.00  0.00    -0.056 NA
ATOM     11  O   UNL     1      -0.586  -0.320  25.552  0.00  0.00    -0.336 OA
ATOM     12  C   UNL     1      -0.698   0.038  24.818  0.00  0.00    +0.251 A 
ATOM     13  N   UNL     1      -1.322  -0.347  24.439  0.00  0.00    -0.190 NA
BRANCH   9   6
ATOM      3  C   UNL     1      -3.452  -2.508  24.458  0.00  0.00    +0.225 A 
ATOM      4  N   UNL     1      -2.672  -2.737  24.318  0.00  0.00    -0.210 NA
ATOM      5  C   UNL     1      -2.053  -2.216  24.478  0.00  0.00    +0.105 A 
ATOM      6  C   UNL     1      -2.214  -1.465  24.778  0.00  0.00    +0.058 A 
ATOM      7  C   UNL     1      -2.993  -1.235  24.919  0.00  0.00    +0.010 A 
ATOM      8  C   UNL     1      -3.612  -1.756  24.759  0.00  0.00    +0.058 A 
BRANCH   3   2
ATOM      1  C   UNL     1      -4.570  -2.891  23.656  0.00  0.00    +0.254 C 
ATOM      2  O   UNL     1      -4.070  -3.030  24.298  0.00  0.00    -0.456 OA
ENDBRANCH   3   2
ENDBRANCH   9   6
ENDBRANCH  14  12
BRANCH  18  19
ATOM     19  C   UNL     1      -0.898   1.765  25.264  0.00  0.00    +0.099 C 
BRANCH  19  20
ATOM     20  C   UNL     1      -1.076   2.571  25.268  0.00  0.00    -0.006 A 
ATOM     21  C   UNL     1      -0.603   3.096  25.693  0.00  0.00    -0.001 A 
ATOM     22  C   UNL     1      -0.780   3.902  25.697  0.00  0.00    +0.024 A 
ATOM     23  C   UNL     1      -1.431   4.182  25.275  0.00  0.00    +0.143 A 
ATOM     24  C   UNL     1      -1.904   3.657  24.849  0.00  0.00    +0.024 A 
ATOM     25  C   UNL     1      -1.727   2.852  24.846  0.00  0.00    -0.001 A 
BRANCH  23  26
ATOM     26  N   UNL     1      -1.609   4.988  25.278  0.00  0.00    +0.058 N 
ATOM     27  O   UNL     1      -1.088   5.527  24.932  0.00  0.00    -0.126 OA
ATOM     28  O   UNL     1      -2.307   5.254  25.628  0.00  0.00    -0.126 OA
ENDBRANCH  23  26
ENDBRANCH  19  20
ENDBRANCH  18  19
TORSDOF 6
ENDMDL
MODEL 4
REMARK VINA RESULT:      -9.8      2.103      2.980
REMARK  Name = 
REMARK  6 active torsions:
REMARK  status: ('A' for Active; 'I' for Inactive)
REMARK    1  A    between atoms: O_2  and  C_3
REMARK    2  A    between atoms: C_6  and  C_9
REMARK    3  A    between atoms: C_12  and  C_14
REMARK    4  A    between atoms: N_18  and  C_19
REMARK    5  A    between atoms: C_19  and  C_20
REMARK    6  A    between atoms: C_23  and  N_26
REMARK                            x       y       z     vdW  Elec       q    Type
REMARK                         _______ _______ _______ _____ _____    ______ ____
ROOT
ATOM     14  C   UNL     1      -0.497   0.366  24.645  0.00  0.00    +0.138 C 
ATOM     15  C   UNL     1       0.124   0.212  24.124  0.00  0.00    +0.027 C 
ATOM     16  C   UNL     1       0.007  -0.539  23.803  0.00  0.00    +0.019 C 
ATOM     17  C   UNL     1      -0.687  -0.849  24.126  0.00  0.00    +0.073 C 
ATOM     18  N   UNL     1      -0.998  -0.289  24.646  0.00  0.00    -0.263 NA
ENDROOT
BRANCH  14  12
ATOM      9  C   UNL     1      -0.896   2.310  25.432  0.00  0.00    +0.205 A 
ATOM     10  N   UNL     1      -0.613   1.922  26.103  0.00  0.00    -0.056 NA
ATOM     11  O   UNL     1      -0.430   1.146  25.890  0.00  0.00    -0.336 OA
ATOM     12  C   UNL     1      -0.598   1.055  25.088  0.00  0.00    +0.251 A 
ATOM     13  N   UNL     1      -0.887   1.775  24.805  0.00  0.00    -0.190 NA
BRANCH   9   6
ATOM      3  C   UNL     1      -1.640   4.668  25.322  0.00  0.00    +0.225 A 
ATOM      4  N   UNL     1      -2.113   4.103  25.692  0.00  0.00    -0.210 NA
ATOM      5  C   UNL     1      -1.865   3.317  25.729  0.00  0.00    +0.105 A 
ATOM      6  C   UNL     1      -1.144   3.096  25.395  0.00  0.00    +0.058 A 
ATOM      7  C   UNL     1      -0.671   3.661  25.024  0.00  0.00    +0.010 A 
ATOM      8  C   UNL     1      -0.919   4.447  24.987  0.00  0.00    +0.058 A 
BRANCH   3   2
ATOM      1  C   UNL     1      -1.429   6.013  24.888  0.00  0.00    +0.254 C 
ATOM      2  O   UNL     1      -1.889   5.454  25.285  0.00  0.00    -0.456 OA
ENDBRANCH   3   2
ENDBRANCH   9   6
ENDBRANCH  14  12
BRANCH  18  19
ATOM     19  C   UNL     1      -1.689  -0.370  25.089  0.00  0.00    +0.099 C 
BRANCH  19  20
ATOM     20  C   UNL     1      -2.268  -0.910  24.856  0.00  0.00    -0.006 A 
ATOM     21  C   UNL     1      -2.207  -1.702  25.078  0.00  0.00    -0.001 A 
ATOM     22  C   UNL     1      -2.786  -2.242  24.845  0.00  0.00    +0.024 A 
ATOM     23  C   UNL     1      -3.426  -1.989  24.389  0.00  0.00    +0.143 A 
ATOM     24  C   UNL     1      -3.486  -1.197  24.168  0.00  0.00    +0.024 A 
ATOM     25  C   UNL     1      -2.908  -0.657  24.401  0.00  0.00    -0.001 A 
BRANCH  23  26
ATOM     26  N   UNL     1      -4.005  -2.529  24.156  0.00  0.00    +0.058 N 
ATOM     27  O   UNL     1      -3.940  -3.323  24.372  0.00  0.00    -0.126 OA
ATOM     28  O   UNL     1      -4.648  -2.274  23.707  0.00  0.00    -0.126 OA
ENDBRANCH  23  26
ENDBRANCH  19  20
ENDBRANCH  18  19
TORSDOF 6
ENDMDL
MODEL 5
REMARK VINA RESULT:      -9.7      3.101      5.030
REMARK  Name = 
REMARK  6 active torsions:
REMARK  status: ('A' for Active; 'I' for Inactive)
REMARK    1  A    between atoms: O_2  and  C_3
REMARK    2  A    between atoms: C_6  and  C_9
REMARK    3  A    between atoms: C_12  and  C_14
REMARK    4  A    between atoms: N_18  and  C_19
REMARK    5  A    between atoms: C_19  and  C_20
REMARK    6  A    between atoms: C_23  and  N_26
REMARK                            x       y       z     vdW  Elec       q    Type
REMARK                         _______ _______ _______ _____ _____    ______ ____
ROOT
ATOM     14  C   UNL     1      -1.011   3.938  25.146  0.00  0.00    +0.138 C 
ATOM     15  C   UNL     1      -0.761   4.695  24.930  0.00  0.00    +0.027 C 
ATOM     16  C   UNL     1      -1.397   5.211  25.030  0.00  0.00    +0.019 C 
ATOM     17  C   UNL     1      -2.039   4.774  25.309  0.00  0.00    +0.073 C 
ATOM     18  N   UNL     1      -1.800   3.987  25.380  0.00  0.00    -0.263 NA
ENDROOT
BRANCH  14  12
ATOM      9  C   UNL     1       0.052   2.139  24.711  0.00  0.00    +0.205 A 
ATOM     10  N   UNL     1       0.261   2.261  25.501  0.00  0.00    -0.056 NA
ATOM     11  O   UNL     1      -0.112   2.950  25.759  0.00  0.00    -0.336 OA
ATOM     12  C   UNL     1      -0.551   3.254  25.131  0.00  0.00    +0.251 A 
ATOM     13  N   UNL     1      -0.449   2.753  24.483  0.00  0.00    -0.190 NA
BRANCH   9   6
ATOM      3  C   UNL     1       0.801   0.262  23.282  0.00  0.00    +0.225 A 
ATOM      4  N   UNL     1       1.299   0.906  23.412  0.00  0.00    -0.210 NA
ATOM      5  C   UNL     1       1.050   1.532  23.889  0.00  0.00    +0.105 A 
ATOM      6  C   UNL     1       0.302   1.513  24.235  0.00  0.00    +0.058 A 
ATOM      7  C   UNL     1      -0.198   0.870  24.105  0.00  0.00    +0.010 A 
ATOM      8  C   UNL     1       0.052   0.244  23.628  0.00  0.00    +0.058 A 
BRANCH   3   2
ATOM      1  C   UNL     1       1.711  -0.273  22.319  0.00  0.00    +0.254 C 
ATOM      2  O   UNL     1       1.050  -0.363  22.805  0.00  0.00    -0.456 OA
ENDBRANCH   3   2
ENDBRANCH   9   6
ENDBRANCH  14  12
BRANCH  18  19
ATOM     19  C   UNL     1      -2.269   3.361  25.640  0.00  0.00    +0.099 C 
BRANCH  19  20
ATOM     20  C   UNL     1      -3.090   3.418  25.607  0.00  0.00    -0.006 A 
ATOM     21  C   UNL     1      -3.495   3.168  24.933  0.00  0.00    -0.001 A 
ATOM     22  C   UNL     1      -4.318   3.226  24.900  0.00  0.00    +0.024 A 
ATOM     23  C   UNL     1      -4.735   3.534  25.541  0.00  0.00    +0.143 A 
ATOM     24  C   UNL     1      -4.331   3.783  26.215  0.00  0.00    +0.024 A 
ATOM     25  C   UNL     1      -3.509   3.726  26.249  0.00  0.00    -0.001 A 
BRANCH  23  26
ATOM     26  N   UNL     1      -5.558   3.591  25.508  0.00  0.00    +0.058 N 
ATOM     27  O   UNL     1      -6.013   2.920  25.352  0.00  0.00    -0.126 OA
ATOM     28  O   UNL     1      -5.925   4.320  25.631  0.00  0.00    -0.126 OA
ENDBRANCH  23  26
ENDBRANCH  19  20
ENDBRANCH  18  19
TORSDOF 6
ENDMDL
MODEL 6
REMARK VINA RESULT:      -9.3      2.309      5.061
REMARK  Name = 
REMARK  6 active torsions:
REMARK  status: ('A' for Active; 'I' for Inactive)
REMARK    1  A    between atoms: O_2  and  C_3
REMARK    2  A    between atoms: C_6  and  C_9
REMARK    3  A    between atoms: C_12  and  C_14
REMARK    4  A    between atoms: N_18  and  C_19
REMARK    5  A    between atoms: C_19  and  C_20
REMARK    6  A    between atoms: C_23  and  N_26
REMARK                            x       y       z     vdW  Elec       q    Type
REMARK                         _______ _______ _______ _____ _____    ______ ____
ROOT
ATOM     14  C   UNL     1      -1.261   3.234  24.818  0.00  0.00    +0.138 C 
ATOM     15  C   UNL     1      -0.791   3.813  25.171  0.00  0.00    +0.027 C 
ATOM     16  C   UNL     1      -1.273   4.457  25.353  0.00  0.00    +0.019 C 
ATOM     17  C   UNL     1      -2.041   4.277  25.112  0.00  0.00    +0.073 C 
ATOM     18  N   UNL     1      -2.034   3.521  24.781  0.00  0.00    -0.263 NA
ENDROOT
BRANCH  14  12
ATOM      9  C   UNL     1      -0.759   1.188  24.475  0.00  0.00    +0.205 A 
ATOM     10  N   UNL     1      -0.455   1.542  23.795  0.00  0.00    -0.056 NA
ATOM     11  O   UNL     1      -0.607   2.352  23.840  0.00  0.00    -0.336 OA
ATOM     12  C   UNL     1      -1.004   2.498  24.549  0.00  0.00    +0.251 A 
ATOM     13  N   UNL     1      -1.098   1.778  24.941  0.00  0.00    -0.190 NA
BRANCH   9   6
ATOM      3  C   UNL     1      -0.670  -1.225  25.022  0.00  0.00    +0.225 A 
ATOM      4  N   UNL     1      -0.282  -0.938  24.353  0.00  0.00    -0.210 NA
ATOM      5  C   UNL     1      -0.312  -0.134  24.171  0.00  0.00    +0.105 A 
ATOM      6  C   UNL     1      -0.730   0.384  24.658  0.00  0.00    +0.058 A 
ATOM      7  C   UNL     1      -1.118   0.098  25.327  0.00  0.00    +0.010 A 
ATOM      8  C   UNL     1      -1.088  -0.706  25.510  0.00  0.00    +0.058 A 
BRANCH   3   2
ATOM      1  C   UNL     1      -1.262  -2.524  24.984  0.00  0.00    +0.254 C 
ATOM      2  O   UNL     1      -0.640  -2.029  25.204  0.00  0.00    -0.456 OA
ENDBRANCH   3   2
ENDBRANCH   9   6
ENDBRANCH  14  12
BRANCH  18  19
ATOM     19  C   UNL     1      -2.685   3.122  24.468  0.00  0.00    +0.099 C 
BRANCH  19  20
ATOM     20  C   UNL     1      -3.438   3.257  24.775  0.00  0.00    -0.006 A 
ATOM     21  C   UNL     1      -3.937   3.807  24.417  0.00  0.00    -0.001 A 
ATOM     22  C   UNL     1      -4.691   3.942  24.725  0.00  0.00    +0.024 A 
ATOM     23  C   UNL     1      -4.945   3.527  25.391  0.00  0.00    +0.143 A 
ATOM     24  C   UNL     1      -4.445   2.977  25.749  0.00  0.00    +0.024 A 
ATOM     25  C   UNL     1      -3.692   2.842  25.442  0.00  0.00    -0.001 A 
BRANCH  23  26
ATOM     26  N   UNL     1      -5.699   3.662  25.699  0.00  0.00    +0.058 N 
ATOM     27  O   UNL     1      -6.045   4.408  25.630  0.00  0.00    -0.126 OA
ATOM     28  O   UNL     1      -6.106   3.050  26.074  0.00  0.00    -0.126 OA
ENDBRANCH  23  26
ENDBRANCH  19  20
ENDBRANCH  18  19
TORSDOF 6
ENDMDL
MODEL 7
REMARK VINA RESULT:      -9.2      2.865      4.372
REMARK  Name = 
REMARK  6 active torsions:
REMARK  status: ('A' for Active; 'I' for Inactive)
REMARK    1  A    between atoms: O_2  and  C_3
REMARK    2  A    between atoms: C_6  and  C_9
REMARK    3  A    between atoms: C_12  and  C_14
REMARK    4  A    between atoms: N_18  and  C_19
REMARK    5  A    between atoms: C_19  and  C_20
REMARK    6  A    between atoms: C_23  and  N_26
REMARK                            x       y       z     vdW  Elec       q    Type
REMARK                         _______ _______ _______ _____ _____    ______ ____
ROOT
ATOM     14  C   UNL     1      -2.856  -1.111  24.539  0.00  0.00    +0.138 C 
ATOM     15  C   UNL     1      -3.191  -1.818  24.275  0.00  0.00    +0.027 C 
ATOM     16  C   UNL     1      -4.011  -1.728  24.277  0.00  0.00    +0.019 C 
ATOM     17  C   UNL     1      -4.184  -0.966  24.542  0.00  0.00    +0.073 C 
ATOM     18  N   UNL     1      -3.470  -0.585  24.704  0.00  0.00    -0.263 NA
ENDROOT
BRANCH  14  12
ATOM      9  C   UNL     1      -0.800  -0.565  24.371  0.00  0.00    +0.205 A 
ATOM     10  N   UNL     1      -0.818  -0.882  25.133  0.00  0.00    -0.056 NA
ATOM     11  O   UNL     1      -1.592  -1.126  25.288  0.00  0.00    -0.336 OA
ATOM     12  C   UNL     1      -2.050  -0.959  24.623  0.00  0.00    +0.251 A 
ATOM     13  N   UNL     1      -1.561  -0.612  24.056  0.00  0.00    -0.190 NA
BRANCH   9   6
ATOM      3  C   UNL     1       1.191   0.366  23.232  0.00  0.00    +0.225 A 
ATOM      4  N   UNL     1       0.989  -0.427  23.129  0.00  0.00    -0.210 NA
ATOM      5  C   UNL     1       0.325  -0.737  23.508  0.00  0.00    +0.105 A 
ATOM      6  C   UNL     1      -0.136  -0.254  23.991  0.00  0.00    +0.058 A 
ATOM      7  C   UNL     1       0.064   0.539  24.095  0.00  0.00    +0.010 A 
ATOM      8  C   UNL     1       0.728   0.849  23.716  0.00  0.00    +0.058 A 
BRANCH   3   2
ATOM      1  C   UNL     1       2.508   0.194  22.706  0.00  0.00    +0.254 C 
ATOM      2  O   UNL     1       1.854   0.676  22.852  0.00  0.00    -0.456 OA
ENDBRANCH   3   2
ENDBRANCH   9   6
ENDBRANCH  14  12
BRANCH  18  19
ATOM     19  C   UNL     1      -3.385   0.187  24.982  0.00  0.00    +0.099 C 
BRANCH  19  20
ATOM     20  C   UNL     1      -4.033   0.696  24.991  0.00  0.00    -0.006 A 
ATOM     21  C   UNL     1      -4.109   1.278  24.412  0.00  0.00    -0.001 A 
ATOM     22  C   UNL     1      -4.758   1.788  24.421  0.00  0.00    +0.024 A 
ATOM     23  C   UNL     1      -5.331   1.715  25.010  0.00  0.00    +0.143 A 
ATOM     24  C   UNL     1      -5.255   1.133  25.589  0.00  0.00    +0.024 A 
ATOM     25  C   UNL     1      -4.607   0.623  25.580  0.00  0.00    -0.001 A 
BRANCH  23  26
ATOM     26  N   UNL     1      -5.980   2.225  25.019  0.00  0.00    +0.058 N 
ATOM     27  O   UNL     1      -5.904   2.984  25.333  0.00  0.00    -0.126 OA
ATOM     28  O   UNL     1      -6.705   1.974  24.714  0.00  0.00    -0.126 OA
ENDBRANCH  23  26
ENDBRANCH  19  20
ENDBRANCH  18  19
TORSDOF 6
ENDMDL
