MODEL 1
REMARK VINA RESULT:     -13.2      0.000      0.000
REMARK  Name = 
REMARK  4 active torsions:
REMARK  status: ('A' for Active; 'I' for Inactive)
REMARK    1  A    between atoms: N_2  and  C_4
REMARK    2  A    between atoms: C_4  and  C_5
REMARK    3  A    between atoms: N_7  and  C_8
REMARK    4  A    between atoms: C_18  and  C_20
REMARK                            x       y       z     vdW  Elec       q    Type
REMARK                         _______ _______ _______ _____ _____    ______ ____
ROOT
ATOM      8  C   UNL     1      -2.953   2.177  24.231  0.00  0.00    +0.129 A 
ATOM      9  C   UNL     1      -3.207   2.958  24.301  0.00  0.00    +0.023 A 
ATOM     10  C   UNL     1      -3.961   3.123  24.594  0.00  0.00    +0.014 A 
ATOM     11  C   UNL     1      -4.460   2.505  24.817  0.00  0.00    +0.041 A 
ATOM     12  C   UNL     1      -5.300   2.354  25.156  0.00  0.00    +0.058 C 
ATOM     13  C   UNL     1      -5.876   2.692  25.372  0.00  0.00    +0.011 C 
ATOM     14  C   UNL     1      -5.622   1.922  25.301  0.00  0.00    +0.043 C 
ATOM     15  C   UNL     1      -5.500   0.941  25.291  0.00  0.00    +0.096 C 
ATOM     16  N   UNL     1      -4.724   0.900  24.984  0.00  0.00    -0.276 N 
ATOM     17  C   UNL     1      -5.198   1.404  25.153  0.00  0.00    +0.099 C 
ATOM     18  C   UNL     1      -4.019   0.564  24.717  0.00  0.00    +0.251 C 
ATOM     19  O   UNL     1      -3.404   1.050  24.454  0.00  0.00    -0.270 OA
ATOM     26  C   UNL     1      -4.742   2.070  24.946  0.00  0.00    +0.110 C 
ATOM     27  N   UNL     1      -4.206   1.723  24.746  0.00  0.00    -0.298 N 
ATOM     28  C   UNL     1      -3.452   1.559  24.453  0.00  0.00    +0.276 A 
ATOM     29  O   UNL     1      -2.987   0.896  24.294  0.00  0.00    -0.266 OA
ENDROOT
BRANCH  18  20
ATOM     20  C   UNL     1      -3.928  -0.255  24.713  0.00  0.00    +0.073 A 
ATOM     21  C   UNL     1      -3.626  -0.641  25.377  0.00  0.00    +0.103 A 
ATOM     22  N   UNL     1      -3.535  -1.461  25.372  0.00  0.00    -0.242 NA
ATOM     23  C   UNL     1      -3.746  -1.895  24.703  0.00  0.00    +0.099 A 
ATOM     24  C   UNL     1      -4.047  -1.511  24.039  0.00  0.00    +0.021 A 
ATOM     25  C   UNL     1      -4.138  -0.690  24.044  0.00  0.00    +0.008 A 
ENDBRANCH  18  20
BRANCH   8   7
ATOM      5  C   UNL     1      -1.546   2.428  24.225  0.00  0.00    +0.262 C 
ATOM      6  O   UNL     1      -0.792   2.264  23.931  0.00  0.00    -0.271 OA
ATOM      7  N   UNL     1      -2.200   2.013  23.938  0.00  0.00    -0.173 NA
BRANCH   5   4
ATOM      4  C   UNL     1      -1.647   3.006  24.805  0.00  0.00    +0.161 C 
BRANCH   4   2
ATOM      1  C   UNL     1      -0.705   4.078  24.885  0.00  0.00    +0.090 C 
ATOM      2  N   UNL     1      -0.987   3.352  25.159  0.00  0.00    -0.263 NA
ATOM      3  C   UNL     1      -0.609   2.974  25.788  0.00  0.00    +0.090 C 
ENDBRANCH   4   2
ENDBRANCH   5   4
ENDBRANCH   8   7
TORSDOF 4
ENDMDL
MODEL 2
REMARK VINA RESULT:     -12.2      1.161      3.399
REMARK  Name = 
REMARK  4 active torsions:
REMARK  status: ('A' for Active; 'I' for Inactive)
REMARK    1  A    between atoms: N_2  and  C_4
REMARK    2  A    between atoms: C_4  and  C_5
REMARK    3  A    between atoms: N_7  and  C_8
REMARK    4  A    between atoms: C_18  and  C_20
REMARK                            x       y       z     vdW  Elec       q    Type
REMARK                         _______ _______ _______ _____ _____    ______ ____
ROOT
ATOM      8  C   UNL     1      -3.252   0.881  24.390  0.00  0.00    +0.129 A 
ATOM      9  C   UNL     1      -3.871   0.337  24.344  0.00  0.00    +0.023 A 
ATOM     10  C   UNL     1      -4.631   0.555  24.578  0.00  0.00    +0.014 A 
ATOM     11  C   UNL     1      -4.773   1.317  24.858  0.00  0.00    +0.041 A 
ATOM     12  C   UNL     1      -5.455   1.845  25.177  0.00  0.00    +0.058 C 
ATOM     13  C   UNL     1      -6.142   1.830  25.319  0.00  0.00    +0.011 C 
ATOM     14  C   UNL     1      -5.530   2.365  25.363  0.00  0.00    +0.043 C 
ATOM     15  C   UNL     1      -4.932   3.141  25.490  0.00  0.00    +0.096 C 
ATOM     16  N   UNL     1      -4.212   2.808  25.227  0.00  0.00    -0.276 N 
ATOM     17  C   UNL     1      -4.890   2.604  25.305  0.00  0.00    +0.099 C 
ATOM     18  C   UNL     1      -3.410   2.759  25.039  0.00  0.00    +0.251 C 
ATOM     19  O   UNL     1      -3.098   2.055  24.742  0.00  0.00    -0.270 OA
ATOM     26  C   UNL     1      -4.811   1.821  25.032  0.00  0.00    +0.110 C 
ATOM     27  N   UNL     1      -4.155   1.862  24.905  0.00  0.00    -0.298 N 
ATOM     28  C   UNL     1      -3.395   1.644  24.671  0.00  0.00    +0.276 A 
ATOM     29  O   UNL     1      -2.646   1.987  24.623  0.00  0.00    -0.266 OA
ENDROOT
BRANCH  18  20
ATOM     20  C   UNL     1      -2.920   3.413  25.149  0.00  0.00    +0.073 A 
ATOM     21  C   UNL     1      -2.830   3.967  24.545  0.00  0.00    +0.103 A 
ATOM     22  N   UNL     1      -2.340   4.622  24.655  0.00  0.00    -0.242 NA
ATOM     23  C   UNL     1      -1.939   4.722  25.369  0.00  0.00    +0.099 A 
ATOM     24  C   UNL     1      -2.028   4.168  25.973  0.00  0.00    +0.021 A 
ATOM     25  C   UNL     1      -2.519   3.513  25.863  0.00  0.00    +0.008 A 
ENDBRANCH  18  20
BRANCH   8   7
ATOM      5  C   UNL     1      -2.178  -0.060  24.399  0.00  0.00    +0.262 C 
ATOM      6  O   UNL     1      -1.417  -0.279  24.164  0.00  0.00    -0.271 OA
ATOM      7  N   UNL     1      -2.493   0.662  24.156  0.00  0.00    -0.173 NA
BRANCH   5   4
ATOM      4  C   UNL     1      -2.623  -0.565  24.877  0.00  0.00    +0.161 C 
BRANCH   4   2
ATOM      1  C   UNL     1      -2.365  -1.970  24.837  0.00  0.00    +0.090 C 
ATOM      2  N   UNL     1      -2.274  -1.237  25.205  0.00  0.00    -0.263 NA
ATOM      3  C   UNL     1      -1.833  -1.176  25.900  0.00  0.00    +0.090 C 
ENDBRANCH   4   2
ENDBRANCH   5   4
ENDBRANCH   8   7
TORSDOF 4
ENDMDL
MODEL 3
REMARK VINA RESULT:     -12.1      1.542      3.311
REMARK  Name = 
REMARK  4 active torsions:
REMARK  status: ('A' for Active; 'I' for Inactive)
REMARK    1  A    between atoms: N_2  and  C_4
REMARK    2  A    between atoms: C_4  and  C_5
REMARK    3  A    between atoms: N_7  and  C_8
REMARK    4  A    between atoms: C_18  and  C_20
REMARK                            x       y       z     vdW  Elec       q    Type
REMARK                         _______ _______ _______ _____ _____    ______ ____
ROOT
ATOM      8  C   UNL     1      -1.947  -0.298  25.073  0.00  0.00    +0.129 A 
ATOM      9  C   UNL     1      -1.644  -1.059  24.975  0.00  0.00    +0.023 A 
ATOM     10  C   UNL     1      -2.131  -1.664  24.696  0.00  0.00    +0.014 A 
ATOM     11  C   UNL     1      -2.921  -1.507  24.515  0.00  0.00    +0.041 A 
ATOM     12  C   UNL     1      -3.678  -1.925  24.206  0.00  0.00    +0.058 C 
ATOM     13  C   UNL     1      -3.914  -2.550  23.992  0.00  0.00    +0.011 C 
ATOM     14  C   UNL     1      -4.209  -1.797  24.090  0.00  0.00    +0.043 C 
ATOM     15  C   UNL     1      -4.742  -0.967  24.140  0.00  0.00    +0.096 C 
ATOM     16  N   UNL     1      -4.159  -0.443  24.427  0.00  0.00    -0.276 N 
ATOM     17  C   UNL     1      -4.208  -1.131  24.249  0.00  0.00    +0.099 C 
ATOM     18  C   UNL     1      -3.820   0.263  24.689  0.00  0.00    +0.251 C 
ATOM     19  O   UNL     1      -3.025   0.280  24.913  0.00  0.00    -0.270 OA
ATOM     26  C   UNL     1      -3.422  -1.352  24.414  0.00  0.00    +0.110 C 
ATOM     27  N   UNL     1      -3.223  -0.746  24.613  0.00  0.00    -0.298 N 
ATOM     28  C   UNL     1      -2.736  -0.141  24.892  0.00  0.00    +0.276 A 
ATOM     29  O   UNL     1      -2.796   0.663  25.067  0.00  0.00    -0.266 OA
ENDROOT
BRANCH  18  20
ATOM     20  C   UNL     1      -4.275   0.949  24.727  0.00  0.00    +0.073 A 
ATOM     21  C   UNL     1      -4.194   1.530  24.147  0.00  0.00    +0.103 A 
ATOM     22  N   UNL     1      -4.650   2.218  24.185  0.00  0.00    -0.242 NA
ATOM     23  C   UNL     1      -5.185   2.323  24.803  0.00  0.00    +0.099 A 
ATOM     24  C   UNL     1      -5.266   1.743  25.383  0.00  0.00    +0.021 A 
ATOM     25  C   UNL     1      -4.810   1.056  25.345  0.00  0.00    +0.008 A 
ENDBRANCH  18  20
BRANCH   8   7
ATOM      5  C   UNL     1      -0.744   0.466  24.975  0.00  0.00    +0.262 C 
ATOM      6  O   UNL     1      -0.256   1.071  25.254  0.00  0.00    -0.271 OA
ATOM      7  N   UNL     1      -1.459   0.306  25.352  0.00  0.00    -0.173 NA
BRANCH   5   4
ATOM      4  C   UNL     1      -0.515   0.023  24.318  0.00  0.00    +0.161 C 
BRANCH   4   2
ATOM      1  C   UNL     1       0.694  -0.268  23.614  0.00  0.00    +0.090 C 
ATOM      2  N   UNL     1       0.118   0.273  23.851  0.00  0.00    -0.263 NA
ATOM      3  C   UNL     1       0.176   1.063  23.623  0.00  0.00    +0.090 C 
ENDBRANCH   4   2
ENDBRANCH   5   4
ENDBRANCH   8   7
TORSDOF 4
ENDMDL
MODEL 4
REMARK VINA RESULT:     -12.0      1.340      3.804
REMARK  Name = 
REMARK  4 active torsions:
REMARK  status: ('A' for Active; 'I' for Inactive)
REMARK    1  A    between atoms: N_2  and  C_4
REMARK    2  A    between atoms: C_4  and  C_5
REMARK    3  A    between atoms: N_7  and  C_8
REMARK    4  A    between atoms: C_18  and  C_20
REMARK                            x       y       z     vdW  Elec       q    Type
REMARK                         _______ _______ _______ _____ _____    ______ ____
ROOT
ATOM      8  C   UNL     1      -3.737   0.935  24.384  0.00  0.00    +0.129 A 
ATOM      9  C   UNL     1      -4.338   0.371  24.420  0.00  0.00    +0.023 A 
ATOM     10  C   UNL     1      -4.170  -0.394  24.682  0.00  0.00    +0.014 A 
ATOM     11  C   UNL     1      -3.402  -0.593  24.907  0.00  0.00    +0.041 A 
ATOM     12  C   UNL     1      -2.913  -1.304  25.223  0.00  0.00    +0.058 C 
ATOM     13  C   UNL     1      -2.978  -1.978  25.408  0.00  0.00    +0.011 C 
ATOM     14  C   UNL     1      -2.388  -1.418  25.371  0.00  0.00    +0.043 C 
ATOM     15  C   UNL     1      -1.552  -0.890  25.397  0.00  0.00    +0.096 C 
ATOM     16  N   UNL     1      -1.840  -0.158  25.119  0.00  0.00    -0.276 N 
ATOM     17  C   UNL     1      -2.098  -0.808  25.254  0.00  0.00    +0.099 C 
ATOM     18  C   UNL     1      -1.833   0.635  24.887  0.00  0.00    +0.251 C 
ATOM     19  O   UNL     1      -2.529   0.996  24.629  0.00  0.00    -0.270 OA
ATOM     26  C   UNL     1      -2.890  -0.669  25.041  0.00  0.00    +0.110 C 
ATOM     27  N   UNL     1      -2.802  -0.028  24.871  0.00  0.00    -0.298 N 
ATOM     28  C   UNL     1      -2.969   0.736  24.610  0.00  0.00    +0.276 A 
ATOM     29  O   UNL     1      -2.565   1.445  24.488  0.00  0.00    -0.266 OA
ENDROOT
BRANCH  18  20
ATOM     20  C   UNL     1      -1.130   1.065  24.913  0.00  0.00    +0.073 A 
ATOM     21  C   UNL     1      -0.621   1.065  24.264  0.00  0.00    +0.103 A 
ATOM     22  N   UNL     1       0.083   1.495  24.290  0.00  0.00    -0.242 NA
ATOM     23  C   UNL     1       0.276   1.927  24.966  0.00  0.00    +0.099 A 
ATOM     24  C   UNL     1      -0.231   1.927  25.615  0.00  0.00    +0.021 A 
ATOM     25  C   UNL     1      -0.935   1.497  25.589  0.00  0.00    +0.008 A 
ENDBRANCH  18  20
BRANCH   8   7
ATOM      5  C   UNL     1      -4.564   2.100  24.415  0.00  0.00    +0.262 C 
ATOM      6  O   UNL     1      -4.732   2.865  24.153  0.00  0.00    -0.271 OA
ATOM      7  N   UNL     1      -3.906   1.699  24.122  0.00  0.00    -0.173 NA
BRANCH   5   4
ATOM      4  C   UNL     1      -5.055   1.737  24.971  0.00  0.00    +0.161 C 
BRANCH   4   2
ATOM      1  C   UNL     1      -6.447   2.057  25.018  0.00  0.00    +0.090 C 
ATOM      2  N   UNL     1      -5.681   2.159  25.306  0.00  0.00    -0.263 NA
ATOM      3  C   UNL     1      -5.540   2.682  25.928  0.00  0.00    +0.090 C 
ENDBRANCH   4   2
ENDBRANCH   5   4
ENDBRANCH   8   7
TORSDOF 4
ENDMDL
MODEL 5
REMARK VINA RESULT:     -11.7      1.608      3.791
REMARK  Name = 
REMARK  4 active torsions:
REMARK  status: ('A' for Active; 'I' for Inactive)
REMARK    1  A    between atoms: N_2  and  C_4
REMARK    2  A    between atoms: C_4  and  C_5
REMARK    3  A    between atoms: N_7  and  C_8
REMARK    4  A    between atoms: C_18  and  C_20
REMARK                            x       y       z     vdW  Elec       q    Type
REMARK                         _______ _______ _______ _____ _____    ______ ____
ROOT
ATOM      8  C   UNL     1      -3.097   0.147  24.848  0.00  0.00    +0.129 A 
ATOM      9  C   UNL     1      -2.461  -0.037  24.356  0.00  0.00    +0.023 A 
ATOM     10  C   UNL     1      -2.252   0.474  23.743  0.00  0.00    +0.014 A 
ATOM     11  C   UNL     1      -2.679   1.169  23.622  0.00  0.00    +0.041 A 
ATOM     12  C   UNL     1      -2.706   1.904  23.070  0.00  0.00    +0.058 C 
ATOM     13  C   UNL     1      -2.381   2.189  22.518  0.00  0.00    +0.011 C 
ATOM     14  C   UNL     1      -3.008   2.368  23.006  0.00  0.00    +0.043 C 
ATOM     15  C   UNL     1      -3.784   2.754  23.480  0.00  0.00    +0.096 C 
ATOM     16  N   UNL     1      -3.900   2.164  24.061  0.00  0.00    -0.276 N 
ATOM     17  C   UNL     1      -3.456   2.289  23.518  0.00  0.00    +0.099 C 
ATOM     18  C   UNL     1      -4.237   1.775  24.707  0.00  0.00    +0.251 C 
ATOM     19  O   UNL     1      -3.925   1.055  24.963  0.00  0.00    -0.270 OA
ATOM     26  C   UNL     1      -2.987   1.605  23.588  0.00  0.00    +0.110 C 
ATOM     27  N   UNL     1      -3.315   1.354  24.115  0.00  0.00    -0.298 N 
ATOM     28  C   UNL     1      -3.524   0.843  24.728  0.00  0.00    +0.276 A 
ATOM     29  O   UNL     1      -4.089   0.803  25.326  0.00  0.00    -0.266 OA
ENDROOT
BRANCH  18  20
ATOM     20  C   UNL     1      -4.884   2.106  25.095  0.00  0.00    +0.073 A 
ATOM     21  C   UNL     1      -4.770   2.692  25.664  0.00  0.00    +0.103 A 
ATOM     22  N   UNL     1      -5.418   3.023  26.053  0.00  0.00    -0.242 NA
ATOM     23  C   UNL     1      -6.181   2.768  25.872  0.00  0.00    +0.099 A 
ATOM     24  C   UNL     1      -6.297   2.182  25.304  0.00  0.00    +0.021 A 
ATOM     25  C   UNL     1      -5.648   1.851  24.915  0.00  0.00    +0.008 A 
ENDBRANCH  18  20
BRANCH   8   7
ATOM      5  C   UNL     1      -3.345  -1.177  25.324  0.00  0.00    +0.262 C 
ATOM      6  O   UNL     1      -3.554  -1.688  25.938  0.00  0.00    -0.271 OA
ATOM      7  N   UNL     1      -3.305  -0.364  25.461  0.00  0.00    -0.173 NA
BRANCH   5   4
ATOM      4  C   UNL     1      -3.178  -1.478  24.575  0.00  0.00    +0.161 C 
BRANCH   4   2
ATOM      1  C   UNL     1      -4.028  -2.526  24.104  0.00  0.00    +0.090 C 
ATOM      2  N   UNL     1      -3.305  -2.278  24.414  0.00  0.00    -0.263 NA
ATOM      3  C   UNL     1      -2.709  -2.829  24.563  0.00  0.00    +0.090 C 
ENDBRANCH   4   2
ENDBRANCH   5   4
ENDBRANCH   8   7
TORSDOF 4
ENDMDL
MODEL 6
REMARK VINA RESULT:     -11.7      1.362      3.074
REMARK  Name = 
REMARK  4 active torsions:
REMARK  status: ('A' for Active; 'I' for Inactive)
REMARK    1  A    between atoms: N_2  and  C_4
REMARK    2  A    between atoms: C_4  and  C_5
REMARK    3  A    between atoms: N_7  and  C_8
REMARK    4  A    between atoms: C_18  and  C_20
REMARK                            x       y       z     vdW  Elec       q    Type
REMARK                         _______ _______ _______ _____ _____    ______ ____
ROOT
ATOM      8  C   UNL     1      -3.592   1.478  24.571  0.00  0.00    +0.129 A 
ATOM      9  C   UNL     1      -3.198   2.202  24.611  0.00  0.00    +0.023 A 
ATOM     10  C   UNL     1      -2.402   2.227  24.825  0.00  0.00    +0.014 A 
ATOM     11  C   UNL     1      -2.000   1.528  24.998  0.00  0.00    +0.041 A 
ATOM     12  C   UNL     1      -1.169   1.227  25.251  0.00  0.00    +0.058 C 
ATOM     13  C   UNL     1      -0.524   1.456  25.405  0.00  0.00    +0.011 C 
ATOM     14  C   UNL     1      -0.916   0.743  25.365  0.00  0.00    +0.043 C 
ATOM     15  C   UNL     1      -1.209  -0.201  25.372  0.00  0.00    +0.096 C 
ATOM     16  N   UNL     1      -2.007  -0.101  25.146  0.00  0.00    -0.276 N 
ATOM     17  C   UNL     1      -1.437   0.310  25.263  0.00  0.00    +0.099 C 
ATOM     18  C   UNL     1      -2.784  -0.303  24.954  0.00  0.00    +0.251 C 
ATOM     19  O   UNL     1      -3.327   0.286  24.753  0.00  0.00    -0.270 OA
ATOM     26  C   UNL     1      -1.787   1.048  25.100  0.00  0.00    +0.110 C 
ATOM     27  N   UNL     1      -2.394   0.804  24.958  0.00  0.00    -0.298 N 
ATOM     28  C   UNL     1      -3.190   0.779  24.745  0.00  0.00    +0.276 A 
ATOM     29  O   UNL     1      -3.778   0.211  24.637  0.00  0.00    -0.266 OA
ENDROOT
BRANCH  18  20
ATOM     20  C   UNL     1      -3.018  -1.094  24.964  0.00  0.00    +0.073 A 
ATOM     21  C   UNL     1      -3.303  -1.432  25.660  0.00  0.00    +0.103 A 
ATOM     22  N   UNL     1      -3.537  -2.224  25.669  0.00  0.00    -0.242 NA
ATOM     23  C   UNL     1      -3.487  -2.676  24.981  0.00  0.00    +0.099 A 
ATOM     24  C   UNL     1      -3.202  -2.339  24.285  0.00  0.00    +0.021 A 
ATOM     25  C   UNL     1      -2.968  -1.547  24.276  0.00  0.00    +0.008 A 
ENDBRANCH  18  20
BRANCH   8   7
ATOM      5  C   UNL     1      -4.921   1.992  24.686  0.00  0.00    +0.262 C 
ATOM      6  O   UNL     1      -5.718   1.967  24.471  0.00  0.00    -0.271 OA
ATOM      7  N   UNL     1      -4.388   1.453  24.358  0.00  0.00    -0.173 NA
BRANCH   5   4
ATOM      4  C   UNL     1      -4.656   2.554  25.228  0.00  0.00    +0.161 C 
BRANCH   4   2
ATOM      1  C   UNL     1      -5.693   2.696  26.201  0.00  0.00    +0.090 C 
ATOM      2  N   UNL     1      -5.201   3.028  25.629  0.00  0.00    -0.263 NA
ATOM      3  C   UNL     1      -5.253   3.833  25.457  0.00  0.00    +0.090 C 
ENDBRANCH   4   2
ENDBRANCH   5   4
ENDBRANCH   8   7
TORSDOF 4
ENDMDL
MODEL 7
REMARK VINA RESULT:     -11.6      1.926      3.629
REMARK  Name = 
REMARK  4 active torsions:
REMARK  status: ('A' for Active; 'I' for Inactive)
REMARK    1  A    between atoms: N_2  and  C_4
REMARK    2  A    between atoms: C_4  and  C_5
REMARK    3  A    between atoms: N_7  and  C_8
REMARK    4  A    between atoms: C_18  and  C_20
REMARK                            x       y       z     vdW  Elec       q    Type
REMARK                         _______ _______ _______ _____ _____    ______ ____
ROOT
ATOM      8  C   UNL     1      -1.334   1.862  25.377  0.00  0.00    +0.129 A 
ATOM      9  C   UNL     1      -0.547   2.111  25.373  0.00  0.00    +0.023 A 
ATOM     10  C   UNL     1      -0.368   2.912  25.292  0.00  0.00    +0.014 A 
ATOM     11  C   UNL     1      -0.975   3.464  25.215  0.00  0.00    +0.041 A 
ATOM     12  C   UNL     1      -1.110   4.368  25.114  0.00  0.00    +0.058 C 
ATOM     13  C   UNL     1      -0.760   4.974  25.058  0.00  0.00    +0.011 C 
ATOM     14  C   UNL     1      -1.535   4.725  25.063  0.00  0.00    +0.043 C 
ATOM     15  C   UNL     1      -2.518   4.623  25.045  0.00  0.00    +0.096 C 
ATOM     16  N   UNL     1      -2.575   3.794  25.133  0.00  0.00    -0.276 N 
ATOM     17  C   UNL     1      -2.061   4.286  25.095  0.00  0.00    +0.099 C 
ATOM     18  C   UNL     1      -2.924   3.050  25.203  0.00  0.00    +0.251 C 
ATOM     19  O   UNL     1      -2.452   2.379  25.289  0.00  0.00    -0.270 OA
ATOM     26  C   UNL     1      -1.405   3.779  25.168  0.00  0.00    +0.110 C 
ATOM     27  N   UNL     1      -1.762   3.216  25.219  0.00  0.00    -0.298 N 
ATOM     28  C   UNL     1      -1.941   2.414  25.300  0.00  0.00    +0.276 A 
ATOM     29  O   UNL     1      -2.613   1.937  25.332  0.00  0.00    -0.266 OA
ENDROOT
BRANCH  18  20
ATOM     20  C   UNL     1      -3.745   2.977  25.188  0.00  0.00    +0.073 A 
ATOM     21  C   UNL     1      -4.187   3.130  25.867  0.00  0.00    +0.103 A 
ATOM     22  N   UNL     1      -5.009   3.057  25.851  0.00  0.00    -0.242 NA
ATOM     23  C   UNL     1      -5.389   2.831  25.155  0.00  0.00    +0.099 A 
ATOM     24  C   UNL     1      -4.948   2.678  24.475  0.00  0.00    +0.021 A 
ATOM     25  C   UNL     1      -4.126   2.751  24.491  0.00  0.00    +0.008 A 
ENDBRANCH  18  20
BRANCH   8   7
ATOM      5  C   UNL     1      -1.091   0.498  25.027  0.00  0.00    +0.262 C 
ATOM      6  O   UNL     1      -1.270  -0.304  25.108  0.00  0.00    -0.271 OA
ATOM      7  N   UNL     1      -1.512   1.061  25.458  0.00  0.00    -0.173 NA
BRANCH   5   4
ATOM      4  C   UNL     1      -0.491   0.737  24.513  0.00  0.00    +0.161 C 
BRANCH   4   2
ATOM      1  C   UNL     1      -0.096   0.373  23.188  0.00  0.00    +0.090 C 
ATOM      2  N   UNL     1      -0.154   0.193  23.991  0.00  0.00    -0.263 NA
ATOM      3  C   UNL     1       0.124  -0.531  24.273  0.00  0.00    +0.090 C 
ENDBRANCH   4   2
ENDBRANCH   5   4
ENDBRANCH   8   7
TORSDOF 4
ENDMDL
MODEL 8
REMARK VINA RESULT:     -11.3      1.561      3.485
REMARK  Name = 
REMARK  4 active torsions:
REMARK  status: ('A' for Active; 'I' for Inactive)
REMARK    1  A    between atoms: N_2  and  C_4
REMARK    2  A    between atoms: C_4  and  C_5
REMARK    3  A    between atoms: N_7  and  C_8
REMARK    4  A    between atoms: C_18  and  C_20
REMARK                            x       y       z     vdW  Elec       q    Type
REMARK                         _______ _______ _______ _____ _____    ______ ____
ROOT
ATOM      8  C   UNL     1      -3.179   2.304  24.662  0.00  0.00    +0.129 A 
ATOM      9  C   UNL     1      -3.242   3.126  24.709  0.00  0.00    +0.023 A 
ATOM     10  C   UNL     1      -2.589   3.577  24.935  0.00  0.00    +0.014 A 
ATOM     11  C   UNL     1      -1.874   3.207  25.113  0.00  0.00    +0.041 A 
ATOM     12  C   UNL     1      -1.016   3.402  25.378  0.00  0.00    +0.058 C 
ATOM     13  C   UNL     1      -0.600   3.944  25.542  0.00  0.00    +0.011 C 
ATOM     14  C   UNL     1      -0.542   3.132  25.494  0.00  0.00    +0.043 C 
ATOM     15  C   UNL     1      -0.276   2.181  25.496  0.00  0.00    +0.096 C 
ATOM     16  N   UNL     1      -0.998   1.834  25.259  0.00  0.00    -0.276 N 
ATOM     17  C   UNL     1      -0.744   2.487  25.384  0.00  0.00    +0.099 C 
ATOM     18  C   UNL     1      -1.538   1.244  25.055  0.00  0.00    +0.251 C 
ATOM     19  O   UNL     1      -2.311   1.446  24.846  0.00  0.00    -0.270 OA
ATOM     26  C   UNL     1      -1.436   2.919  25.218  0.00  0.00    +0.110 C 
ATOM     27  N   UNL     1      -1.811   2.386  25.066  0.00  0.00    -0.298 N 
ATOM     28  C   UNL     1      -2.464   1.934  24.841  0.00  0.00    +0.276 A 
ATOM     29  O   UNL     1      -2.648   1.139  24.724  0.00  0.00    -0.266 OA
ENDROOT
BRANCH  18  20
ATOM     20  C   UNL     1      -1.306   0.453  25.059  0.00  0.00    +0.073 A 
ATOM     21  C   UNL     1      -0.951   0.123  24.392  0.00  0.00    +0.103 A 
ATOM     22  N   UNL     1      -0.719  -0.670  24.397  0.00  0.00    -0.242 NA
ATOM     23  C   UNL     1      -0.841  -1.131  25.070  0.00  0.00    +0.099 A 
ATOM     24  C   UNL     1      -1.196  -0.802  25.737  0.00  0.00    +0.021 A 
ATOM     25  C   UNL     1      -1.429  -0.009  25.732  0.00  0.00    +0.008 A 
ENDBRANCH  18  20
BRANCH   8   7
ATOM      5  C   UNL     1      -4.579   2.030  24.739  0.00  0.00    +0.262 C 
ATOM      6  O   UNL     1      -5.233   1.579  24.512  0.00  0.00    -0.271 OA
ATOM      7  N   UNL     1      -3.832   1.854  24.437  0.00  0.00    -0.173 NA
BRANCH   5   4
ATOM      4  C   UNL     1      -4.674   2.657  25.267  0.00  0.00    +0.161 C 
BRANCH   4   2
ATOM      1  C   UNL     1      -5.785   3.520  25.519  0.00  0.00    +0.090 C 
ATOM      2  N   UNL     1      -5.408   2.792  25.619  0.00  0.00    -0.263 NA
ATOM      3  C   UNL     1      -5.764   2.201  26.070  0.00  0.00    +0.090 C 
ENDBRANCH   4   2
ENDBRANCH   5   4
ENDBRANCH   8   7
TORSDOF 4
ENDMDL
