MODEL 1
REMARK VINA RESULT:     -11.5      0.000      0.000
REMARK  Name = 
REMARK  5 active torsions:
REMARK  status: ('A' for Active; 'I' for Inactive)
REMARK    1  A    between atoms: C_3  and  C_4
REMARK    2  A    between atoms: C_4  and  N_5
REMARK    3  A    between atoms: C_15  and  C_16
REMARK    4  A    between atoms: C_16  and  C_17
REMARK    5  A    between atoms: N_22  and  C_25
REMARK                            x       y       z     vdW  Elec       q    Type
REMARK                         _______ _______ _______ _____ _____    ______ ____
ROOT
ATOM      1  O   UNL     1      -5.460   4.183  26.099  0.00  0.00    -0.218 OA
ATOM      2  C   UNL     1      -5.091   3.494  25.835  0.00  0.00    +0.213 C 
ATOM      3  C   UNL     1      -4.290   3.411  25.657  0.00  0.00    +0.170 C 
ATOM     14  O   UNL     1      -4.162   2.632  25.414  0.00  0.00    -0.351 OA
ATOM     15  C   UNL     1      -4.885   2.235  25.443  0.00  0.00    +0.157 C 
ATOM     31  C   UNL     1      -5.459   2.767  25.703  0.00  0.00    +0.212 C 
ATOM     32  O   UNL     1      -6.259   2.602  25.812  0.00  0.00    -0.218 OA
ENDROOT
BRANCH   3   4
ATOM      4  C   UNL     1      -3.717   4.002  25.712  0.00  0.00    +0.149 C 
BRANCH   4   5
ATOM      5  N   UNL     1      -2.964   3.878  25.397  0.00  0.00    -0.186 NA
ATOM      6  C   UNL     1      -2.410   4.488  25.400  0.00  0.00    +0.323 C 
ATOM      7  O   UNL     1      -2.608   5.224  25.716  0.00  0.00    -0.251 OA
ATOM      8  N   UNL     1      -1.657   4.364  25.085  0.00  0.00    -0.258 N 
ATOM      9  C   UNL     1      -1.459   3.628  24.769  0.00  0.00    +0.127 C 
ATOM     10  C   UNL     1      -0.707   3.503  24.455  0.00  0.00    +0.164 C 
ATOM     11  O   UNL     1      -0.152   4.114  24.457  0.00  0.00    -0.350 OA
ATOM     12  C   UNL     1      -0.350   4.850  24.773  0.00  0.00    +0.164 C 
ATOM     13  C   UNL     1      -1.103   4.974  25.088  0.00  0.00    +0.127 C 
ENDBRANCH   4   5
ENDBRANCH   3   4
BRANCH  15  16
ATOM     16  C   UNL     1      -5.011   1.444  25.246  0.00  0.00    +0.117 C 
BRANCH  16  17
ATOM     17  C   UNL     1      -4.692   1.136  24.549  0.00  0.00    +0.228 C 
ATOM     18  O   UNL     1      -4.738   1.570  23.848  0.00  0.00    -0.275 OA
ATOM     19  N   UNL     1      -4.329   0.396  24.554  0.00  0.00    -0.276 N 
ATOM     20  C   UNL     1      -4.010   0.089  23.857  0.00  0.00    +0.115 C 
ATOM     21  C   UNL     1      -3.647  -0.651  23.861  0.00  0.00    +0.112 C 
ATOM     22  N   UNL     1      -3.601  -1.084  24.562  0.00  0.00    -0.304 N 
ATOM     23  C   UNL     1      -3.919  -0.777  25.258  0.00  0.00    +0.112 C 
ATOM     24  C   UNL     1      -4.283  -0.037  25.254  0.00  0.00    +0.115 C 
BRANCH  22  25
ATOM     25  C   UNL     1      -3.237  -1.825  24.567  0.00  0.00    +0.048 A 
ATOM     26  C   UNL     1      -2.416  -1.880  24.641  0.00  0.00    +0.015 A 
ATOM     27  C   UNL     1      -2.052  -2.621  24.645  0.00  0.00    +0.001 A 
ATOM     28  C   UNL     1      -2.508  -3.304  24.576  0.00  0.00    +0.000 A 
ATOM     29  C   UNL     1      -3.327  -3.249  24.503  0.00  0.00    +0.001 A 
ATOM     30  C   UNL     1      -3.692  -2.509  24.498  0.00  0.00    +0.015 A 
ENDBRANCH  22  25
ENDBRANCH  16  17
ENDBRANCH  15  16
TORSDOF 5
ENDMDL
MODEL 2
REMARK VINA RESULT:     -11.5      1.464      3.492
REMARK  Name = 
REMARK  5 active torsions:
REMARK  status: ('A' for Active; 'I' for Inactive)
REMARK    1  A    between atoms: C_3  and  C_4
REMARK    2  A    between atoms: C_4  and  N_5
REMARK    3  A    between atoms: C_15  and  C_16
REMARK    4  A    between atoms: C_16  and  C_17
REMARK    5  A    between atoms: N_22  and  C_25
REMARK                            x       y       z     vdW  Elec       q    Type
REMARK                         _______ _______ _______ _____ _____    ______ ____
ROOT
ATOM      1  O   UNL     1      -0.582   4.132  24.619  0.00  0.00    -0.218 OA
ATOM      2  C   UNL     1      -0.830   3.352  24.722  0.00  0.00    +0.213 C 
ATOM      3  C   UNL     1      -1.585   3.109  24.948  0.00  0.00    +0.170 C 
ATOM     14  O   UNL     1      -1.588   2.285  24.984  0.00  0.00    -0.351 OA
ATOM     15  C   UNL     1      -0.834   2.018  24.780  0.00  0.00    +0.157 C 
ATOM     31  C   UNL     1      -0.366   2.678  24.618  0.00  0.00    +0.212 C 
ATOM     32  O   UNL     1       0.427   2.666  24.393  0.00  0.00    -0.218 OA
ENDROOT
BRANCH   3   4
ATOM      4  C   UNL     1      -2.226   3.604  25.110  0.00  0.00    +0.149 C 
BRANCH   4   5
ATOM      5  N   UNL     1      -2.996   3.311  25.062  0.00  0.00    -0.186 NA
ATOM      6  C   UNL     1      -3.615   3.717  25.425  0.00  0.00    +0.323 C 
ATOM      7  O   UNL     1      -3.464   4.416  25.836  0.00  0.00    -0.251 OA
ATOM      8  N   UNL     1      -4.385   3.425  25.378  0.00  0.00    -0.258 N 
ATOM      9  C   UNL     1      -4.535   2.726  24.967  0.00  0.00    +0.127 C 
ATOM     10  C   UNL     1      -5.305   2.432  24.918  0.00  0.00    +0.164 C 
ATOM     11  O   UNL     1      -5.924   2.839  25.282  0.00  0.00    -0.350 OA
ATOM     12  C   UNL     1      -5.774   3.538  25.693  0.00  0.00    +0.164 C 
ATOM     13  C   UNL     1      -5.004   3.831  25.741  0.00  0.00    +0.127 C 
ENDBRANCH   4   5
ENDBRANCH   3   4
BRANCH  15  16
ATOM     16  C   UNL     1      -0.592   1.231  24.744  0.00  0.00    +0.117 C 
BRANCH  16  17
ATOM     17  C   UNL     1      -0.836   0.697  25.325  0.00  0.00    +0.228 C 
ATOM     18  O   UNL     1      -0.561   0.775  26.099  0.00  0.00    -0.275 OA
ATOM     19  N   UNL     1      -1.355   0.086  25.130  0.00  0.00    -0.276 N 
ATOM     20  C   UNL     1      -1.600  -0.447  25.710  0.00  0.00    +0.115 C 
ATOM     21  C   UNL     1      -2.119  -1.058  25.516  0.00  0.00    +0.112 C 
ATOM     22  N   UNL     1      -2.393  -1.136  24.741  0.00  0.00    -0.304 N 
ATOM     23  C   UNL     1      -2.149  -0.602  24.162  0.00  0.00    +0.112 C 
ATOM     24  C   UNL     1      -1.630   0.009  24.356  0.00  0.00    +0.115 C 
BRANCH  22  25
ATOM     25  C   UNL     1      -2.912  -1.747  24.547  0.00  0.00    +0.048 A 
ATOM     26  C   UNL     1      -3.651  -1.572  24.223  0.00  0.00    +0.015 A 
ATOM     27  C   UNL     1      -4.171  -2.183  24.028  0.00  0.00    +0.001 A 
ATOM     28  C   UNL     1      -3.951  -2.967  24.158  0.00  0.00    +0.000 A 
ATOM     29  C   UNL     1      -3.213  -3.142  24.481  0.00  0.00    +0.001 A 
ATOM     30  C   UNL     1      -2.694  -2.531  24.676  0.00  0.00    +0.015 A 
ENDBRANCH  22  25
ENDBRANCH  16  17
ENDBRANCH  15  16
TORSDOF 5
ENDMDL
MODEL 3
REMARK VINA RESULT:     -10.7      2.377      5.897
REMARK  Name = 
REMARK  5 active torsions:
REMARK  status: ('A' for Active; 'I' for Inactive)
REMARK    1  A    between atoms: C_3  and  C_4
REMARK    2  A    between atoms: C_4  and  N_5
REMARK    3  A    between atoms: C_15  and  C_16
REMARK    4  A    between atoms: C_16  and  C_17
REMARK    5  A    between atoms: N_22  and  C_25
REMARK                            x       y       z     vdW  Elec       q    Type
REMARK                         _______ _______ _______ _____ _____    ______ ____
ROOT
ATOM      1  O   UNL     1       0.832  -0.325  23.936  0.00  0.00    -0.218 OA
ATOM      2  C   UNL     1       0.135   0.110  24.015  0.00  0.00    +0.213 C 
ATOM      3  C   UNL     1      -0.611  -0.196  24.186  0.00  0.00    +0.170 C 
ATOM     14  O   UNL     1      -1.145   0.432  24.215  0.00  0.00    -0.351 OA
ATOM     15  C   UNL     1      -0.728   1.128  24.061  0.00  0.00    +0.157 C 
ATOM     31  C   UNL     1       0.063   0.929  23.938  0.00  0.00    +0.212 C 
ATOM     32  O   UNL     1       0.674   1.455  23.767  0.00  0.00    -0.218 OA
ENDROOT
BRANCH   3   4
ATOM      4  C   UNL     1      -0.792  -0.992  24.308  0.00  0.00    +0.149 C 
BRANCH   4   5
ATOM      5  N   UNL     1      -1.574  -1.250  24.259  0.00  0.00    -0.186 NA
ATOM      6  C   UNL     1      -1.770  -2.019  24.482  0.00  0.00    +0.323 C 
ATOM      7  O   UNL     1      -1.184  -2.532  24.753  0.00  0.00    -0.251 OA
ATOM      8  N   UNL     1      -2.553  -2.277  24.433  0.00  0.00    -0.258 N 
ATOM      9  C   UNL     1      -3.139  -1.764  24.161  0.00  0.00    +0.127 C 
ATOM     10  C   UNL     1      -3.921  -2.021  24.112  0.00  0.00    +0.164 C 
ATOM     11  O   UNL     1      -4.117  -2.791  24.335  0.00  0.00    -0.350 OA
ATOM     12  C   UNL     1      -3.531  -3.304  24.607  0.00  0.00    +0.164 C 
ATOM     13  C   UNL     1      -2.748  -3.046  24.656  0.00  0.00    +0.127 C 
ENDBRANCH   4   5
ENDBRANCH   3   4
BRANCH  15  16
ATOM     16  C   UNL     1      -1.047   1.888  24.035  0.00  0.00    +0.117 C 
BRANCH  16  17
ATOM     17  C   UNL     1      -1.716   2.039  23.576  0.00  0.00    +0.228 C 
ATOM     18  O   UNL     1      -1.684   1.949  22.756  0.00  0.00    -0.275 OA
ATOM     19  N   UNL     1      -2.417   2.281  23.937  0.00  0.00    -0.276 N 
ATOM     20  C   UNL     1      -3.086   2.432  23.479  0.00  0.00    +0.115 C 
ATOM     21  C   UNL     1      -3.787   2.674  23.840  0.00  0.00    +0.112 C 
ATOM     22  N   UNL     1      -3.820   2.765  24.660  0.00  0.00    -0.304 N 
ATOM     23  C   UNL     1      -3.150   2.613  25.118  0.00  0.00    +0.112 C 
ATOM     24  C   UNL     1      -2.449   2.372  24.756  0.00  0.00    +0.115 C 
BRANCH  22  25
ATOM     25  C   UNL     1      -4.520   3.007  25.021  0.00  0.00    +0.048 A 
ATOM     26  C   UNL     1      -5.112   2.454  25.184  0.00  0.00    +0.015 A 
ATOM     27  C   UNL     1      -5.814   2.696  25.546  0.00  0.00    +0.001 A 
ATOM     28  C   UNL     1      -5.923   3.489  25.744  0.00  0.00    +0.000 A 
ATOM     29  C   UNL     1      -5.332   4.041  25.581  0.00  0.00    +0.001 A 
ATOM     30  C   UNL     1      -4.631   3.799  25.219  0.00  0.00    +0.015 A 
ENDBRANCH  22  25
ENDBRANCH  16  17
ENDBRANCH  15  16
TORSDOF 5
ENDMDL
