MODEL 1
REMARK VINA RESULT:     -10.4      0.000      0.000
REMARK  Name = 
REMARK  6 active torsions:
REMARK  status: ('A' for Active; 'I' for Inactive)
REMARK    1  A    between atoms: C_2  and  C_4
REMARK    2  A    between atoms: C_7  and  N_8
REMARK    3  A    between atoms: N_14  and  S_27
REMARK    4  A    between atoms: C_15  and  C_17
REMARK    5  A    between atoms: N_19  and  C_20
REMARK    6  A    between atoms: S_27  and  C_30
REMARK                            x       y       z     vdW  Elec       q    Type
REMARK                         _______ _______ _______ _____ _____    ______ ____
ROOT
ATOM      8  N   UNL     1       0.041   0.662  23.534  0.00  0.00    -0.162 NA
ATOM      9  C   UNL     1      -0.243   1.400  23.765  0.00  0.00    +0.328 C 
ATOM     10  O   UNL     1       0.267   2.048  23.796  0.00  0.00    -0.250 OA
ATOM     11  N   UNL     1      -1.039   1.492  23.966  0.00  0.00    -0.259 N 
ATOM     12  C   UNL     1      -1.323   2.231  24.197  0.00  0.00    +0.114 C 
ATOM     13  C   UNL     1      -2.118   2.322  24.398  0.00  0.00    +0.118 C 
ATOM     14  N   UNL     1      -2.628   1.674  24.367  0.00  0.00    -0.145 NA
ATOM     15  C   UNL     1      -2.344   0.936  24.136  0.00  0.00    +0.177 C 
ATOM     16  C   UNL     1      -1.549   0.844  23.936  0.00  0.00    +0.122 C 
ENDROOT
BRANCH   8   7
ATOM      4  C   UNL     1       2.426   0.388  22.932  0.00  0.00    +0.035 A 
ATOM      5  C   UNL     1       2.209   0.912  23.531  0.00  0.00    +0.004 A 
ATOM      6  C   UNL     1       1.414   1.003  23.732  0.00  0.00    +0.017 A 
ATOM      7  C   UNL     1       0.836   0.571  23.334  0.00  0.00    +0.075 A 
ATOM     37  C   UNL     1       1.052   0.047  22.735  0.00  0.00    +0.017 A 
ATOM     38  C   UNL     1       1.847  -0.045  22.534  0.00  0.00    +0.004 A 
BRANCH   4   2
ATOM      1  C   UNL     1       3.656   0.943  22.460  0.00  0.00    +0.077 C 
ATOM      2  C   UNL     1       3.221   0.297  22.732  0.00  0.00    +0.173 C 
ATOM      3  O   UNL     1       3.583  -0.441  22.802  0.00  0.00    -0.291 OA
ENDBRANCH   4   2
ENDBRANCH   8   7
BRANCH  15  17
ATOM     17  C   UNL     1      -2.853   0.289  24.106  0.00  0.00    +0.260 C 
ATOM     18  O   UNL     1      -3.528   0.315  23.631  0.00  0.00    -0.272 OA
ATOM     19  N   UNL     1      -2.689  -0.388  24.551  0.00  0.00    -0.197 NA
BRANCH  19  20
ATOM     20  C   UNL     1      -3.199  -1.035  24.520  0.00  0.00    +0.173 C 
ATOM     21  C   UNL     1      -3.633  -1.186  23.834  0.00  0.00    +0.033 C 
ATOM     22  C   UNL     1      -4.144  -1.834  23.803  0.00  0.00    +0.026 C 
ATOM     23  C   UNL     1      -4.220  -2.330  24.457  0.00  0.00    +0.115 C 
ATOM     24  N   UNL     1      -3.787  -2.180  25.143  0.00  0.00    -0.204 NA
ATOM     25  C   UNL     1      -3.277  -1.533  25.174  0.00  0.00    +0.261 C 
ATOM     26  O   UNL     1      -2.843  -1.382  25.861  0.00  0.00    -0.271 OA
ENDBRANCH  19  20
ENDBRANCH  15  17
BRANCH  14  27
ATOM     27  S   UNL     1      -3.424   1.766  24.568  0.00  0.00    +0.064 S 
ATOM     28  O   UNL     1      -3.235   1.663  25.365  0.00  0.00    -0.153 OA
ATOM     29  O   UNL     1      -3.613   1.868  23.772  0.00  0.00    -0.153 OA
BRANCH  27  30
ATOM     30  C   UNL     1      -4.218   1.857  24.769  0.00  0.00    +0.122 A 
ATOM     31  C   UNL     1      -4.758   2.126  24.205  0.00  0.00    +0.022 A 
ATOM     32  C   UNL     1      -5.553   2.218  24.406  0.00  0.00    +0.031 A 
ATOM     33  C   UNL     1      -5.809   2.040  25.171  0.00  0.00    +0.140 A 
ATOM     34  F   UNL     1      -6.603   2.131  25.371  0.00  0.00    -0.204 F 
ATOM     35  C   UNL     1      -5.269   1.770  25.733  0.00  0.00    +0.031 A 
ATOM     36  C   UNL     1      -4.474   1.679  25.532  0.00  0.00    +0.022 A 
ENDBRANCH  27  30
ENDBRANCH  14  27
TORSDOF 6
ENDMDL
MODEL 2
REMARK VINA RESULT:      -8.5      1.457      2.961
REMARK  Name = 
REMARK  6 active torsions:
REMARK  status: ('A' for Active; 'I' for Inactive)
REMARK    1  A    between atoms: C_2  and  C_4
REMARK    2  A    between atoms: C_7  and  N_8
REMARK    3  A    between atoms: N_14  and  S_27
REMARK    4  A    between atoms: C_15  and  C_17
REMARK    5  A    between atoms: N_19  and  C_20
REMARK    6  A    between atoms: S_27  and  C_30
REMARK                            x       y       z     vdW  Elec       q    Type
REMARK                         _______ _______ _______ _____ _____    ______ ____
ROOT
ATOM      8  N   UNL     1       1.006   0.850  23.403  0.00  0.00    -0.162 NA
ATOM      9  C   UNL     1       0.503   0.200  23.464  0.00  0.00    +0.328 C 
ATOM     10  O   UNL     1       0.784  -0.558  23.295  0.00  0.00    -0.250 OA
ATOM     11  N   UNL     1      -0.283   0.306  23.695  0.00  0.00    -0.259 N 
ATOM     12  C   UNL     1      -0.786  -0.346  23.756  0.00  0.00    +0.114 C 
ATOM     13  C   UNL     1      -1.571  -0.239  23.987  0.00  0.00    +0.118 C 
ATOM     14  N   UNL     1      -1.852   0.518  24.156  0.00  0.00    -0.145 NA
ATOM     15  C   UNL     1      -1.349   1.168  24.095  0.00  0.00    +0.177 C 
ATOM     16  C   UNL     1      -0.564   1.062  23.865  0.00  0.00    +0.122 C 
ENDROOT
BRANCH   8   7
ATOM      4  C   UNL     1       3.361   0.532  22.711  0.00  0.00    +0.035 A 
ATOM      5  C   UNL     1       2.771   0.042  22.406  0.00  0.00    +0.004 A 
ATOM      6  C   UNL     1       1.986   0.148  22.637  0.00  0.00    +0.017 A 
ATOM      7  C   UNL     1       1.791   0.744  23.173  0.00  0.00    +0.075 A 
ATOM     37  C   UNL     1       2.380   1.233  23.478  0.00  0.00    +0.017 A 
ATOM     38  C   UNL     1       3.165   1.127  23.247  0.00  0.00    +0.004 A 
BRANCH   4   2
ATOM      1  C   UNL     1       4.712   0.198  23.035  0.00  0.00    +0.077 C 
ATOM      2  C   UNL     1       4.146   0.426  22.481  0.00  0.00    +0.173 C 
ATOM      3  O   UNL     1       4.365   0.547  21.695  0.00  0.00    -0.291 OA
ENDBRANCH   4   2
ENDBRANCH   8   7
BRANCH  15  17
ATOM     17  C   UNL     1      -1.630   1.924  24.264  0.00  0.00    +0.260 C 
ATOM     18  O   UNL     1      -2.241   2.249  23.814  0.00  0.00    -0.272 OA
ATOM     19  N   UNL     1      -1.300   2.358  24.885  0.00  0.00    -0.197 NA
BRANCH  19  20
ATOM     20  C   UNL     1      -1.582   3.115  25.054  0.00  0.00    +0.173 C 
ATOM     21  C   UNL     1      -1.885   3.586  24.449  0.00  0.00    +0.033 C 
ATOM     22  C   UNL     1      -2.167   4.344  24.617  0.00  0.00    +0.026 C 
ATOM     23  C   UNL     1      -2.146   4.629  25.391  0.00  0.00    +0.115 C 
ATOM     24  N   UNL     1      -1.842   4.157  25.996  0.00  0.00    -0.204 NA
ATOM     25  C   UNL     1      -1.561   3.401  25.828  0.00  0.00    +0.261 C 
ATOM     26  O   UNL     1      -1.257   2.929  26.434  0.00  0.00    -0.271 OA
ENDBRANCH  19  20
ENDBRANCH  15  17
BRANCH  14  27
ATOM     27  S   UNL     1      -2.638   0.624  24.387  0.00  0.00    +0.064 S 
ATOM     28  O   UNL     1      -2.433   0.443  25.166  0.00  0.00    -0.153 OA
ATOM     29  O   UNL     1      -2.842   0.804  23.609  0.00  0.00    -0.153 OA
BRANCH  27  30
ATOM     30  C   UNL     1      -3.422   0.730  24.618  0.00  0.00    +0.122 A 
ATOM     31  C   UNL     1      -3.670   0.482  25.365  0.00  0.00    +0.022 A 
ATOM     32  C   UNL     1      -4.455   0.588  25.596  0.00  0.00    +0.031 A 
ATOM     33  C   UNL     1      -4.993   0.942  25.079  0.00  0.00    +0.140 A 
ATOM     34  F   UNL     1      -5.777   1.048  25.310  0.00  0.00    -0.204 F 
ATOM     35  C   UNL     1      -4.745   1.190  24.333  0.00  0.00    +0.031 A 
ATOM     36  C   UNL     1      -3.960   1.084  24.102  0.00  0.00    +0.022 A 
ENDBRANCH  27  30
ENDBRANCH  14  27
TORSDOF 6
ENDMDL
MODEL 3
REMARK VINA RESULT:      -8.0      2.654      4.956
REMARK  Name = 
REMARK  6 active torsions:
REMARK  status: ('A' for Active; 'I' for Inactive)
REMARK    1  A    between atoms: C_2  and  C_4
REMARK    2  A    between atoms: C_7  and  N_8
REMARK    3  A    between atoms: N_14  and  S_27
REMARK    4  A    between atoms: C_15  and  C_17
REMARK    5  A    between atoms: N_19  and  C_20
REMARK    6  A    between atoms: S_27  and  C_30
REMARK                            x       y       z     vdW  Elec       q    Type
REMARK                         _______ _______ _______ _____ _____    ______ ____
ROOT
ATOM      8  N   UNL     1      -3.071  -0.342  24.571  0.00  0.00    -0.162 NA
ATOM      9  C   UNL     1      -2.281  -0.114  24.636  0.00  0.00    +0.328 C 
ATOM     10  O   UNL     1      -1.687  -0.686  24.661  0.00  0.00    -0.250 OA
ATOM     11  N   UNL     1      -2.085   0.687  24.677  0.00  0.00    -0.259 N 
ATOM     12  C   UNL     1      -1.294   0.915  24.742  0.00  0.00    +0.114 C 
ATOM     13  C   UNL     1      -1.098   1.715  24.783  0.00  0.00    +0.118 C 
ATOM     14  N   UNL     1      -1.692   2.287  24.758  0.00  0.00    -0.145 NA
ATOM     15  C   UNL     1      -2.482   2.059  24.693  0.00  0.00    +0.177 C 
ATOM     16  C   UNL     1      -2.678   1.259  24.652  0.00  0.00    +0.122 C 
ENDROOT
BRANCH   8   7
ATOM      4  C   UNL     1      -3.660  -2.743  24.449  0.00  0.00    +0.035 A 
ATOM      5  C   UNL     1      -3.314  -2.436  25.132  0.00  0.00    +0.004 A 
ATOM      6  C   UNL     1      -3.117  -1.636  25.173  0.00  0.00    +0.017 A 
ATOM      7  C   UNL     1      -3.267  -1.142  24.530  0.00  0.00    +0.075 A 
ATOM     37  C   UNL     1      -3.613  -1.447  23.847  0.00  0.00    +0.017 A 
ATOM     38  C   UNL     1      -3.809  -2.248  23.806  0.00  0.00    +0.004 A 
BRANCH   4   2
ATOM      1  C   UNL     1      -4.252  -3.838  23.748  0.00  0.00    +0.077 C 
ATOM      2  C   UNL     1      -3.856  -3.543  24.408  0.00  0.00    +0.173 C 
ATOM      3  O   UNL     1      -3.656  -4.049  25.028  0.00  0.00    -0.291 OA
ENDBRANCH   4   2
ENDBRANCH   8   7
BRANCH  15  17
ATOM     17  C   UNL     1      -3.076   2.631  24.668  0.00  0.00    +0.260 C 
ATOM     18  O   UNL     1      -3.056   3.222  24.093  0.00  0.00    -0.272 OA
ATOM     19  N   UNL     1      -3.690   2.612  25.220  0.00  0.00    -0.197 NA
BRANCH  19  20
ATOM     20  C   UNL     1      -4.284   3.184  25.195  0.00  0.00    +0.173 C 
ATOM     21  C   UNL     1      -4.475   3.549  24.479  0.00  0.00    +0.033 C 
ATOM     22  C   UNL     1      -5.069   4.121  24.453  0.00  0.00    +0.026 C 
ATOM     23  C   UNL     1      -5.471   4.329  25.143  0.00  0.00    +0.115 C 
ATOM     24  N   UNL     1      -5.280   3.964  25.858  0.00  0.00    -0.204 NA
ATOM     25  C   UNL     1      -4.687   3.393  25.884  0.00  0.00    +0.261 C 
ATOM     26  O   UNL     1      -4.496   3.028  26.600  0.00  0.00    -0.271 OA
ENDBRANCH  19  20
ENDBRANCH  15  17
BRANCH  14  27
ATOM     27  S   UNL     1      -1.496   3.088  24.799  0.00  0.00    +0.064 S 
ATOM     28  O   UNL     1      -1.510   3.050  25.623  0.00  0.00    -0.153 OA
ATOM     29  O   UNL     1      -1.482   3.127  23.975  0.00  0.00    -0.153 OA
BRANCH  27  30
ATOM     30  C   UNL     1      -1.300   3.887  24.839  0.00  0.00    +0.122 A 
ATOM     31  C   UNL     1      -1.480   4.323  25.517  0.00  0.00    +0.022 A 
ATOM     32  C   UNL     1      -1.284   5.123  25.558  0.00  0.00    +0.031 A 
ATOM     33  C   UNL     1      -0.907   5.489  24.921  0.00  0.00    +0.140 A 
ATOM     34  F   UNL     1      -0.711   6.288  24.961  0.00  0.00    -0.204 F 
ATOM     35  C   UNL     1      -0.728   5.054  24.243  0.00  0.00    +0.031 A 
ATOM     36  C   UNL     1      -0.924   4.253  24.203  0.00  0.00    +0.022 A 
ENDBRANCH  27  30
ENDBRANCH  14  27
TORSDOF 6
ENDMDL
MODEL 4
REMARK VINA RESULT:      -7.8      2.366      4.381
REMARK  Name = 
REMARK  6 active torsions:
REMARK  status: ('A' for Active; 'I' for Inactive)
REMARK    1  A    between atoms: C_2  and  C_4
REMARK    2  A    between atoms: C_7  and  N_8
REMARK    3  A    between atoms: N_14  and  S_27
REMARK    4  A    between atoms: C_15  and  C_17
REMARK    5  A    between atoms: N_19  and  C_20
REMARK    6  A    between atoms: S_27  and  C_30
REMARK                            x       y       z     vdW  Elec       q    Type
REMARK                         _______ _______ _______ _____ _____    ______ ____
ROOT
ATOM      8  N   UNL     1      -2.044   2.684  24.863  0.00  0.00    -0.162 NA
ATOM      9  C   UNL     1      -2.790   2.453  24.599  0.00  0.00    +0.328 C 
ATOM     10  O   UNL     1      -3.346   3.023  24.380  0.00  0.00    -0.250 OA
ATOM     11  N   UNL     1      -2.982   1.651  24.555  0.00  0.00    -0.259 N 
ATOM     12  C   UNL     1      -3.729   1.420  24.290  0.00  0.00    +0.114 C 
ATOM     13  C   UNL     1      -3.921   0.619  24.245  0.00  0.00    +0.118 C 
ATOM     14  N   UNL     1      -3.366   0.050  24.465  0.00  0.00    -0.145 NA
ATOM     15  C   UNL     1      -2.620   0.281  24.729  0.00  0.00    +0.177 C 
ATOM     16  C   UNL     1      -2.428   1.082  24.774  0.00  0.00    +0.122 C 
ENDROOT
BRANCH   8   7
ATOM      4  C   UNL     1      -1.469   5.087  24.998  0.00  0.00    +0.035 A 
ATOM      5  C   UNL     1      -1.087   4.601  24.452  0.00  0.00    +0.004 A 
ATOM      6  C   UNL     1      -1.278   3.800  24.407  0.00  0.00    +0.017 A 
ATOM      7  C   UNL     1      -1.852   3.485  24.908  0.00  0.00    +0.075 A 
ATOM     37  C   UNL     1      -2.235   3.970  25.454  0.00  0.00    +0.017 A 
ATOM     38  C   UNL     1      -2.043   4.772  25.499  0.00  0.00    +0.004 A 
BRANCH   4   2
ATOM      1  C   UNL     1      -1.873   6.452  25.132  0.00  0.00    +0.077 C 
ATOM      2  C   UNL     1      -1.277   5.889  25.043  0.00  0.00    +0.173 C 
ATOM      3  O   UNL     1      -0.489   6.128  24.998  0.00  0.00    -0.291 OA
ENDBRANCH   4   2
ENDBRANCH   8   7
BRANCH  15  17
ATOM     17  C   UNL     1      -2.065  -0.289  24.948  0.00  0.00    +0.260 C 
ATOM     18  O   UNL     1      -2.231  -0.811  25.565  0.00  0.00    -0.272 OA
ATOM     19  N   UNL     1      -1.343  -0.336  24.551  0.00  0.00    -0.197 NA
BRANCH  19  20
ATOM     20  C   UNL     1      -0.788  -0.906  24.771  0.00  0.00    +0.173 C 
ATOM     21  C   UNL     1      -0.797  -1.216  25.535  0.00  0.00    +0.033 C 
ATOM     22  C   UNL     1      -0.242  -1.786  25.756  0.00  0.00    +0.026 C 
ATOM     23  C   UNL     1       0.320  -2.046  25.212  0.00  0.00    +0.115 C 
ATOM     24  N   UNL     1       0.329  -1.737  24.447  0.00  0.00    -0.204 NA
ATOM     25  C   UNL     1      -0.225  -1.167  24.227  0.00  0.00    +0.261 C 
ATOM     26  O   UNL     1      -0.217  -0.857  23.461  0.00  0.00    -0.271 OA
ENDBRANCH  19  20
ENDBRANCH  15  17
BRANCH  14  27
ATOM     27  S   UNL     1      -3.558  -0.752  24.420  0.00  0.00    +0.064 S 
ATOM     28  O   UNL     1      -3.758  -0.749  25.221  0.00  0.00    -0.153 OA
ATOM     29  O   UNL     1      -3.358  -0.756  23.620  0.00  0.00    -0.153 OA
BRANCH  27  30
ATOM     30  C   UNL     1      -3.749  -1.553  24.375  0.00  0.00    +0.122 A 
ATOM     31  C   UNL     1      -3.749  -2.016  25.059  0.00  0.00    +0.022 A 
ATOM     32  C   UNL     1      -3.941  -2.817  25.014  0.00  0.00    +0.031 A 
ATOM     33  C   UNL     1      -4.133  -3.156  24.286  0.00  0.00    +0.140 A 
ATOM     34  F   UNL     1      -4.325  -3.956  24.241  0.00  0.00    -0.204 F 
ATOM     35  C   UNL     1      -4.133  -2.692  23.604  0.00  0.00    +0.031 A 
ATOM     36  C   UNL     1      -3.941  -1.891  23.648  0.00  0.00    +0.022 A 
ENDBRANCH  27  30
ENDBRANCH  14  27
TORSDOF 6
ENDMDL
MODEL 5
REMARK VINA RESULT:      -7.7      2.365      5.696
REMARK  Name = 
REMARK  6 active torsions:
REMARK  status: ('A' for Active; 'I' for Inactive)
REMARK    1  A    between atoms: C_2  and  C_4
REMARK    2  A    between atoms: C_7  and  N_8
REMARK    3  A    between atoms: N_14  and  S_27
REMARK    4  A    between atoms: C_15  and  C_17
REMARK    5  A    between atoms: N_19  and  C_20
REMARK    6  A    between atoms: S_27  and  C_30
REMARK                            x       y       z     vdW  Elec       q    Type
REMARK                         _______ _______ _______ _____ _____    ______ ____
ROOT
ATOM      8  N   UNL     1      -3.170   2.147  24.893  0.00  0.00    -0.162 NA
ATOM      9  C   UNL     1      -2.662   2.512  24.356  0.00  0.00    +0.328 C 
ATOM     10  O   UNL     1      -2.853   3.252  24.044  0.00  0.00    -0.250 OA
ATOM     11  N   UNL     1      -1.962   2.138  24.129  0.00  0.00    -0.259 N 
ATOM     12  C   UNL     1      -1.454   2.504  23.592  0.00  0.00    +0.114 C 
ATOM     13  C   UNL     1      -0.754   2.130  23.365  0.00  0.00    +0.118 C 
ATOM     14  N   UNL     1      -0.563   1.390  23.676  0.00  0.00    -0.145 NA
ATOM     15  C   UNL     1      -1.071   1.025  24.213  0.00  0.00    +0.177 C 
ATOM     16  C   UNL     1      -1.771   1.399  24.440  0.00  0.00    +0.122 C 
ENDROOT
BRANCH   8   7
ATOM      4  C   UNL     1      -5.269   3.269  25.572  0.00  0.00    +0.035 A 
ATOM      5  C   UNL     1      -4.544   3.544  25.853  0.00  0.00    +0.004 A 
ATOM      6  C   UNL     1      -3.844   3.170  25.627  0.00  0.00    +0.017 A 
ATOM      7  C   UNL     1      -3.870   2.521  25.119  0.00  0.00    +0.075 A 
ATOM     37  C   UNL     1      -4.594   2.245  24.838  0.00  0.00    +0.017 A 
ATOM     38  C   UNL     1      -5.293   2.619  25.064  0.00  0.00    +0.004 A 
BRANCH   4   2
ATOM      1  C   UNL     1      -6.113   4.421  25.569  0.00  0.00    +0.077 C 
ATOM      2  C   UNL     1      -5.968   3.643  25.798  0.00  0.00    +0.173 C 
ATOM      3  O   UNL     1      -6.524   3.238  26.255  0.00  0.00    -0.291 OA
ENDBRANCH   4   2
ENDBRANCH   8   7
BRANCH  15  17
ATOM     17  C   UNL     1      -0.880   0.286  24.524  0.00  0.00    +0.260 C 
ATOM     18  O   UNL     1      -0.167   0.178  24.926  0.00  0.00    -0.272 OA
ATOM     19  N   UNL     1      -1.402  -0.348  24.433  0.00  0.00    -0.197 NA
BRANCH  19  20
ATOM     20  C   UNL     1      -1.210  -1.088  24.744  0.00  0.00    +0.173 C 
ATOM     21  C   UNL     1      -0.658  -1.147  25.355  0.00  0.00    +0.033 C 
ATOM     22  C   UNL     1      -0.466  -1.887  25.667  0.00  0.00    +0.026 C 
ATOM     23  C   UNL     1      -0.825  -2.567  25.367  0.00  0.00    +0.115 C 
ATOM     24  N   UNL     1      -1.377  -2.507  24.757  0.00  0.00    -0.204 NA
ATOM     25  C   UNL     1      -1.569  -1.768  24.446  0.00  0.00    +0.261 C 
ATOM     26  O   UNL     1      -2.121  -1.709  23.834  0.00  0.00    -0.271 OA
ENDBRANCH  19  20
ENDBRANCH  15  17
BRANCH  14  27
ATOM     27  S   UNL     1       0.137   1.016  23.450  0.00  0.00    +0.064 S 
ATOM     28  O   UNL     1       0.536   1.387  24.069  0.00  0.00    -0.153 OA
ATOM     29  O   UNL     1      -0.262   0.645  22.830  0.00  0.00    -0.153 OA
BRANCH  27  30
ATOM     30  C   UNL     1       0.836   0.642  23.224  0.00  0.00    +0.122 A 
ATOM     31  C   UNL     1       0.819   0.043  22.656  0.00  0.00    +0.022 A 
ATOM     32  C   UNL     1       1.518  -0.331  22.430  0.00  0.00    +0.031 A 
ATOM     33  C   UNL     1       2.236  -0.106  22.770  0.00  0.00    +0.140 A 
ATOM     34  F   UNL     1       2.935  -0.480  22.544  0.00  0.00    -0.204 F 
ATOM     35  C   UNL     1       2.253   0.493  23.337  0.00  0.00    +0.031 A 
ATOM     36  C   UNL     1       1.553   0.867  23.563  0.00  0.00    +0.022 A 
ENDBRANCH  27  30
ENDBRANCH  14  27
TORSDOF 6
ENDMDL
MODEL 6
REMARK VINA RESULT:      -7.0      2.707      5.049
REMARK  Name = 
REMARK  6 active torsions:
REMARK  status: ('A' for Active; 'I' for Inactive)
REMARK    1  A    between atoms: C_2  and  C_4
REMARK    2  A    between atoms: C_7  and  N_8
REMARK    3  A    between atoms: N_14  and  S_27
REMARK    4  A    between atoms: C_15  and  C_17
REMARK    5  A    between atoms: N_19  and  C_20
REMARK    6  A    between atoms: S_27  and  C_30
REMARK                            x       y       z     vdW  Elec       q    Type
REMARK                         _______ _______ _______ _____ _____    ______ ____
ROOT
ATOM      8  N   UNL     1      -2.879  -0.121  24.693  0.00  0.00    -0.162 NA
ATOM      9  C   UNL     1      -3.188   0.478  24.219  0.00  0.00    +0.328 C 
ATOM     10  O   UNL     1      -3.740   0.299  23.633  0.00  0.00    -0.250 OA
ATOM     11  N   UNL     1      -2.945   1.260  24.331  0.00  0.00    -0.259 N 
ATOM     12  C   UNL     1      -3.255   1.860  23.856  0.00  0.00    +0.114 C 
ATOM     13  C   UNL     1      -3.012   2.640  23.968  0.00  0.00    +0.118 C 
ATOM     14  N   UNL     1      -2.460   2.820  24.555  0.00  0.00    -0.145 NA
ATOM     15  C   UNL     1      -2.151   2.220  25.029  0.00  0.00    +0.177 C 
ATOM     16  C   UNL     1      -2.394   1.440  24.917  0.00  0.00    +0.122 C 
ENDROOT
BRANCH   8   7
ATOM      4  C   UNL     1      -3.607  -2.463  24.358  0.00  0.00    +0.035 A 
ATOM      5  C   UNL     1      -2.813  -2.260  24.267  0.00  0.00    +0.004 A 
ATOM      6  C   UNL     1      -2.570  -1.480  24.379  0.00  0.00    +0.017 A 
ATOM      7  C   UNL     1      -3.122  -0.902  24.582  0.00  0.00    +0.075 A 
ATOM     37  C   UNL     1      -3.916  -1.103  24.673  0.00  0.00    +0.017 A 
ATOM     38  C   UNL     1      -4.159  -1.884  24.561  0.00  0.00    +0.004 A 
BRANCH   4   2
ATOM      1  C   UNL     1      -4.247  -3.457  23.556  0.00  0.00    +0.077 C 
ATOM      2  C   UNL     1      -3.850  -3.243  24.246  0.00  0.00    +0.173 C 
ATOM      3  O   UNL     1      -3.696  -3.810  24.825  0.00  0.00    -0.291 OA
ENDBRANCH   4   2
ENDBRANCH   8   7
BRANCH  15  17
ATOM     17  C   UNL     1      -1.599   2.401  25.614  0.00  0.00    +0.260 C 
ATOM     18  O   UNL     1      -1.800   2.917  26.226  0.00  0.00    -0.272 OA
ATOM     19  N   UNL     1      -0.845   2.064  25.589  0.00  0.00    -0.197 NA
BRANCH  19  20
ATOM     20  C   UNL     1      -0.294   2.245  26.175  0.00  0.00    +0.173 C 
ATOM     21  C   UNL     1      -0.540   2.342  26.957  0.00  0.00    +0.033 C 
ATOM     22  C   UNL     1       0.011   2.522  27.544  0.00  0.00    +0.026 C 
ATOM     23  C   UNL     1       0.809   2.606  27.349  0.00  0.00    +0.115 C 
ATOM     24  N   UNL     1       1.055   2.509  26.568  0.00  0.00    -0.204 NA
ATOM     25  C   UNL     1       0.504   2.328  25.981  0.00  0.00    +0.261 C 
ATOM     26  O   UNL     1       0.751   2.231  25.199  0.00  0.00    -0.271 OA
ENDBRANCH  19  20
ENDBRANCH  15  17
BRANCH  14  27
ATOM     27  S   UNL     1      -2.217   3.601  24.666  0.00  0.00    +0.064 S 
ATOM     28  O   UNL     1      -2.783   3.692  25.260  0.00  0.00    -0.153 OA
ATOM     29  O   UNL     1      -1.651   3.510  24.073  0.00  0.00    -0.153 OA
BRANCH  27  30
ATOM     30  C   UNL     1      -1.974   4.381  24.778  0.00  0.00    +0.122 A 
ATOM     31  C   UNL     1      -1.283   4.654  24.418  0.00  0.00    +0.022 A 
ATOM     32  C   UNL     1      -1.040   5.434  24.530  0.00  0.00    +0.031 A 
ATOM     33  C   UNL     1      -1.488   5.943  25.002  0.00  0.00    +0.140 A 
ATOM     34  F   UNL     1      -1.246   6.722  25.113  0.00  0.00    -0.204 F 
ATOM     35  C   UNL     1      -2.179   5.670  25.361  0.00  0.00    +0.031 A 
ATOM     36  C   UNL     1      -2.422   4.889  25.249  0.00  0.00    +0.022 A 
ENDBRANCH  27  30
ENDBRANCH  14  27
TORSDOF 6
ENDMDL
MODEL 7
REMARK VINA RESULT:      -6.5     14.736     17.040
REMARK  Name = 
REMARK  6 active torsions:
REMARK  status: ('A' for Active; 'I' for Inactive)
REMARK    1  A    between atoms: C_2  and  C_4
REMARK    2  A    between atoms: C_7  and  N_8
REMARK    3  A    between atoms: N_14  and  S_27
REMARK    4  A    between atoms: C_15  and  C_17
REMARK    5  A    between atoms: N_19  and  C_20
REMARK    6  A    between atoms: S_27  and  C_30
REMARK                            x       y       z     vdW  Elec       q    Type
REMARK                         _______ _______ _______ _____ _____    ______ ____
ROOT
ATOM      8  N   UNL     1      -7.061  -9.888  14.752  0.00  0.00    -0.162 NA
ATOM      9  C   UNL     1      -6.293 -10.157  14.621  0.00  0.00    +0.328 C 
ATOM     10  O   UNL     1      -5.848 -10.459  15.247  0.00  0.00    -0.250 OA
ATOM     11  N   UNL     1      -5.967 -10.122  13.863  0.00  0.00    -0.259 N 
ATOM     12  C   UNL     1      -5.198 -10.391  13.732  0.00  0.00    +0.114 C 
ATOM     13  C   UNL     1      -4.873 -10.356  12.974  0.00  0.00    +0.118 C 
ATOM     14  N   UNL     1      -5.318 -10.053  12.349  0.00  0.00    -0.145 NA
ATOM     15  C   UNL     1      -6.086  -9.785  12.480  0.00  0.00    +0.177 C 
ATOM     16  C   UNL     1      -6.411  -9.820  13.237  0.00  0.00    +0.122 C 
ENDROOT
BRANCH   8   7
ATOM      4  C   UNL     1      -8.036  -9.992  17.025  0.00  0.00    +0.035 A 
ATOM      5  C   UNL     1      -7.372  -9.524  16.881  0.00  0.00    +0.004 A 
ATOM      6  C   UNL     1      -7.047  -9.490  16.124  0.00  0.00    +0.017 A 
ATOM      7  C   UNL     1      -7.386  -9.923  15.510  0.00  0.00    +0.075 A 
ATOM     37  C   UNL     1      -8.050 -10.390  15.652  0.00  0.00    +0.017 A 
ATOM     38  C   UNL     1      -8.375 -10.425  16.410  0.00  0.00    +0.004 A 
BRANCH   4   2
ATOM      1  C   UNL     1      -9.175 -10.119  17.879  0.00  0.00    +0.077 C 
ATOM      2  C   UNL     1      -8.361 -10.026  17.782  0.00  0.00    +0.173 C 
ATOM      3  O   UNL     1      -7.873  -9.968  18.444  0.00  0.00    -0.291 OA
ENDBRANCH   4   2
ENDBRANCH   8   7
BRANCH  15  17
ATOM     17  C   UNL     1      -6.530  -9.483  11.854  0.00  0.00    +0.260 C 
ATOM     18  O   UNL     1      -6.278  -8.803  11.459  0.00  0.00    -0.272 OA
ATOM     19  N   UNL     1      -7.228  -9.859  11.623  0.00  0.00    -0.197 NA
BRANCH  19  20
ATOM     20  C   UNL     1      -7.671  -9.556  10.997  0.00  0.00    +0.173 C 
ATOM     21  C   UNL     1      -7.526  -8.792  10.721  0.00  0.00    +0.033 C 
ATOM     22  C   UNL     1      -7.970  -8.488  10.094  0.00  0.00    +0.026 C 
ATOM     23  C   UNL     1      -8.558  -8.949   9.745  0.00  0.00    +0.115 C 
ATOM     24  N   UNL     1      -8.703  -9.713  10.021  0.00  0.00    -0.204 NA
ATOM     25  C   UNL     1      -8.260 -10.016  10.646  0.00  0.00    +0.261 C 
ATOM     26  O   UNL     1      -8.406 -10.781  10.923  0.00  0.00    -0.271 OA
ENDBRANCH  19  20
ENDBRANCH  15  17
BRANCH  14  27
ATOM     27  S   UNL     1      -4.992 -10.019  11.590  0.00  0.00    +0.064 S 
ATOM     28  O   UNL     1      -4.714  -9.257  11.744  0.00  0.00    -0.153 OA
ATOM     29  O   UNL     1      -5.270 -10.780  11.436  0.00  0.00    -0.153 OA
BRANCH  27  30
ATOM     30  C   UNL     1      -4.668  -9.984  10.834  0.00  0.00    +0.122 A 
ATOM     31  C   UNL     1      -4.742 -10.629  10.323  0.00  0.00    +0.022 A 
ATOM     32  C   UNL     1      -4.416 -10.594   9.565  0.00  0.00    +0.031 A 
ATOM     33  C   UNL     1      -4.017  -9.915   9.318  0.00  0.00    +0.140 A 
ATOM     34  F   UNL     1      -3.693  -9.881   8.561  0.00  0.00    -0.204 F 
ATOM     35  C   UNL     1      -3.944  -9.272   9.828  0.00  0.00    +0.031 A 
ATOM     36  C   UNL     1      -4.269  -9.306  10.586  0.00  0.00    +0.022 A 
ENDBRANCH  27  30
ENDBRANCH  14  27
TORSDOF 6
ENDMDL
