MODEL 1
REMARK VINA RESULT:     -13.0      0.000      0.000
REMARK  Name = 
REMARK  6 active torsions:
REMARK  status: ('A' for Active; 'I' for Inactive)
REMARK    1  A    between atoms: O_2  and  C_3
REMARK    2  A    between atoms: C_3  and  C_5
REMARK    3  A    between atoms: C_18  and  N_29
REMARK    4  A    between atoms: C_20  and  C_22
REMARK    5  A    between atoms: N_29  and  C_30
REMARK    6  A    between atoms: C_30  and  C_31
REMARK                            x       y       z     vdW  Elec       q    Type
REMARK                         _______ _______ _______ _____ _____    ______ ____
ROOT
ATOM      5  C   UNL     1      -4.006   1.184  24.776  0.00  0.00    +0.162 C 
ATOM      6  C   UNL     1      -4.195   0.392  24.647  0.00  0.00    +0.055 C 
ATOM      7  C   UNL     1      -3.596  -0.172  24.592  0.00  0.00    -0.004 A 
ATOM      8  C   UNL     1      -2.806   0.056  24.667  0.00  0.00    +0.070 A 
ATOM      9  N   UNL     1      -2.338  -0.618  24.589  0.00  0.00    -0.249 NA
ATOM     10  C   UNL     1      -2.836  -1.264  24.466  0.00  0.00    +0.081 A 
ATOM     11  C   UNL     1      -3.615  -0.987  24.468  0.00  0.00    +0.015 A 
ATOM     12  C   UNL     1      -4.239  -1.515  24.357  0.00  0.00    +0.001 A 
ATOM     13  C   UNL     1      -4.086  -2.318  24.243  0.00  0.00    +0.000 A 
ATOM     14  C   UNL     1      -3.308  -2.594  24.241  0.00  0.00    +0.002 A 
ATOM     15  C   UNL     1      -2.683  -2.066  24.353  0.00  0.00    +0.019 A 
ATOM     16  C   UNL     1      -2.617   0.849  24.796  0.00  0.00    +0.100 C 
ATOM     17  C   UNL     1      -1.828   1.078  24.871  0.00  0.00    +0.040 C 
ATOM     18  C   UNL     1      -1.639   1.870  25.000  0.00  0.00    +0.076 C 
ATOM     19  C   UNL     1      -2.238   2.434  25.054  0.00  0.00    +0.038 C 
ATOM     20  C   UNL     1      -3.027   2.204  24.980  0.00  0.00    +0.082 C 
ATOM     21  N   UNL     1      -3.216   1.413  24.850  0.00  0.00    -0.258 NA
ENDROOT
BRANCH  20  22
ATOM     22  C   UNL     1      -3.627   2.769  25.034  0.00  0.00    -0.008 A 
ATOM     23  C   UNL     1      -3.893   3.156  24.356  0.00  0.00    -0.001 A 
ATOM     24  C   UNL     1      -4.492   3.720  24.412  0.00  0.00    +0.029 A 
ATOM     25  C   UNL     1      -4.825   3.898  25.146  0.00  0.00    +0.140 A 
ATOM     26  F   UNL     1      -5.424   4.463  25.201  0.00  0.00    -0.204 F 
ATOM     27  C   UNL     1      -4.559   3.512  25.824  0.00  0.00    +0.029 A 
ATOM     28  C   UNL     1      -3.959   2.947  25.768  0.00  0.00    -0.001 A 
ENDBRANCH  20  22
BRANCH   5   3
ATOM      3  C   UNL     1      -4.606   1.748  24.830  0.00  0.00    +0.332 C 
ATOM      4  O   UNL     1      -4.972   2.474  24.691  0.00  0.00    -0.249 OA
BRANCH   3   2
ATOM      1  C   UNL     1      -5.994   1.413  24.860  0.00  0.00    +0.256 C 
ATOM      2  O   UNL     1      -5.291   1.582  25.258  0.00  0.00    -0.443 OA
ENDBRANCH   3   2
ENDBRANCH   5   3
BRANCH  18  29
ATOM     29  N   UNL     1      -0.849   2.098  25.075  0.00  0.00    -0.217 NA
BRANCH  29  30
ATOM     30  C   UNL     1      -0.515   2.189  25.824  0.00  0.00    +0.124 C 
BRANCH  30  31
ATOM     31  C   UNL     1       0.286   2.371  25.899  0.00  0.00    +0.201 C 
ATOM     32  O   UNL     1       0.585   2.626  26.624  0.00  0.00    -0.219 OA
ENDBRANCH  30  31
ENDBRANCH  29  30
ENDBRANCH  18  29
TORSDOF 6
ENDMDL
MODEL 2
REMARK VINA RESULT:     -12.8      2.084      4.630
REMARK  Name = 
REMARK  6 active torsions:
REMARK  status: ('A' for Active; 'I' for Inactive)
REMARK    1  A    between atoms: O_2  and  C_3
REMARK    2  A    between atoms: C_3  and  C_5
REMARK    3  A    between atoms: C_18  and  N_29
REMARK    4  A    between atoms: C_20  and  C_22
REMARK    5  A    between atoms: N_29  and  C_30
REMARK    6  A    between atoms: C_30  and  C_31
REMARK                            x       y       z     vdW  Elec       q    Type
REMARK                         _______ _______ _______ _____ _____    ______ ____
ROOT
ATOM      5  C   UNL     1      -2.245  -0.098  24.648  0.00  0.00    +0.162 C 
ATOM      6  C   UNL     1      -1.535   0.317  24.595  0.00  0.00    +0.055 C 
ATOM      7  C   UNL     1      -1.538   1.142  24.594  0.00  0.00    -0.004 A 
ATOM      8  C   UNL     1      -2.251   1.552  24.646  0.00  0.00    +0.070 A 
ATOM      9  N   UNL     1      -2.083   2.359  24.632  0.00  0.00    -0.249 NA
ATOM     10  C   UNL     1      -1.265   2.449  24.572  0.00  0.00    +0.081 A 
ATOM     11  C   UNL     1      -0.928   1.696  24.548  0.00  0.00    +0.015 A 
ATOM     12  C   UNL     1      -0.109   1.612  24.488  0.00  0.00    +0.001 A 
ATOM     13  C   UNL     1       0.373   2.281  24.451  0.00  0.00    +0.000 A 
ATOM     14  C   UNL     1       0.035   3.035  24.475  0.00  0.00    +0.002 A 
ATOM     15  C   UNL     1      -0.784   3.118  24.535  0.00  0.00    +0.019 A 
ATOM     16  C   UNL     1      -2.963   1.137  24.699  0.00  0.00    +0.100 C 
ATOM     17  C   UNL     1      -3.677   1.547  24.751  0.00  0.00    +0.040 C 
ATOM     18  C   UNL     1      -4.387   1.132  24.804  0.00  0.00    +0.076 C 
ATOM     19  C   UNL     1      -4.384   0.307  24.805  0.00  0.00    +0.038 C 
ATOM     20  C   UNL     1      -3.670  -0.102  24.753  0.00  0.00    +0.082 C 
ATOM     21  N   UNL     1      -2.960   0.312  24.700  0.00  0.00    -0.258 NA
ENDROOT
BRANCH  20  22
ATOM     22  C   UNL     1      -3.668  -0.928  24.754  0.00  0.00    -0.008 A 
ATOM     23  C   UNL     1      -3.566  -1.339  25.461  0.00  0.00    -0.001 A 
ATOM     24  C   UNL     1      -3.565  -2.164  25.462  0.00  0.00    +0.029 A 
ATOM     25  C   UNL     1      -3.664  -2.578  24.754  0.00  0.00    +0.140 A 
ATOM     26  F   UNL     1      -3.662  -3.403  24.755  0.00  0.00    -0.204 F 
ATOM     27  C   UNL     1      -3.766  -2.166  24.047  0.00  0.00    +0.029 A 
ATOM     28  C   UNL     1      -3.768  -1.341  24.047  0.00  0.00    -0.001 A 
ENDBRANCH  20  22
BRANCH   5   3
ATOM      3  C   UNL     1      -2.242  -0.923  24.649  0.00  0.00    +0.332 C 
ATOM      4  O   UNL     1      -2.513  -1.678  24.455  0.00  0.00    -0.249 OA
BRANCH   3   2
ATOM      1  C   UNL     1      -1.009  -1.644  24.662  0.00  0.00    +0.256 C 
ATOM      2  O   UNL     1      -1.659  -1.333  25.064  0.00  0.00    -0.443 OA
ENDBRANCH   3   2
ENDBRANCH   5   3
BRANCH  18  29
ATOM     29  N   UNL     1      -5.102   1.542  24.856  0.00  0.00    -0.217 NA
BRANCH  29  30
ATOM     30  C   UNL     1      -5.324   1.895  25.568  0.00  0.00    +0.124 C 
BRANCH  30  31
ATOM     31  C   UNL     1      -5.984   2.390  25.595  0.00  0.00    +0.201 C 
ATOM     32  O   UNL     1      -6.142   2.830  26.275  0.00  0.00    -0.219 OA
ENDBRANCH  30  31
ENDBRANCH  29  30
ENDBRANCH  18  29
TORSDOF 6
ENDMDL
MODEL 3
REMARK VINA RESULT:     -12.6      2.061      4.042
REMARK  Name = 
REMARK  6 active torsions:
REMARK  status: ('A' for Active; 'I' for Inactive)
REMARK    1  A    between atoms: O_2  and  C_3
REMARK    2  A    between atoms: C_3  and  C_5
REMARK    3  A    between atoms: C_18  and  N_29
REMARK    4  A    between atoms: C_20  and  C_22
REMARK    5  A    between atoms: N_29  and  C_30
REMARK    6  A    between atoms: C_30  and  C_31
REMARK                            x       y       z     vdW  Elec       q    Type
REMARK                         _______ _______ _______ _____ _____    ______ ____
ROOT
ATOM      5  C   UNL     1      -2.788   1.559  24.760  0.00  0.00    +0.162 C 
ATOM      6  C   UNL     1      -2.804   2.369  24.911  0.00  0.00    +0.055 C 
ATOM      7  C   UNL     1      -2.105   2.807  24.885  0.00  0.00    -0.004 A 
ATOM      8  C   UNL     1      -1.391   2.435  24.707  0.00  0.00    +0.070 A 
ATOM      9  N   UNL     1      -0.796   3.006  24.721  0.00  0.00    -0.249 NA
ATOM     10  C   UNL     1      -1.141   3.731  24.908  0.00  0.00    +0.081 A 
ATOM     11  C   UNL     1      -1.951   3.608  25.009  0.00  0.00    +0.015 A 
ATOM     12  C   UNL     1      -2.443   4.242  25.201  0.00  0.00    +0.001 A 
ATOM     13  C   UNL     1      -2.126   4.999  25.291  0.00  0.00    +0.000 A 
ATOM     14  C   UNL     1      -1.315   5.121  25.190  0.00  0.00    +0.002 A 
ATOM     15  C   UNL     1      -0.823   4.487  24.998  0.00  0.00    +0.019 A 
ATOM     16  C   UNL     1      -1.375   1.624  24.556  0.00  0.00    +0.100 C 
ATOM     17  C   UNL     1      -0.662   1.251  24.378  0.00  0.00    +0.040 C 
ATOM     18  C   UNL     1      -0.646   0.441  24.227  0.00  0.00    +0.076 C 
ATOM     19  C   UNL     1      -1.345   0.003  24.253  0.00  0.00    +0.038 C 
ATOM     20  C   UNL     1      -2.058   0.376  24.431  0.00  0.00    +0.082 C 
ATOM     21  N   UNL     1      -2.074   1.186  24.582  0.00  0.00    -0.258 NA
ENDROOT
BRANCH  20  22
ATOM     22  C   UNL     1      -2.757  -0.063  24.457  0.00  0.00    -0.008 A 
ATOM     23  C   UNL     1      -3.221  -0.142  23.780  0.00  0.00    -0.001 A 
ATOM     24  C   UNL     1      -3.919  -0.581  23.807  0.00  0.00    +0.029 A 
ATOM     25  C   UNL     1      -4.153  -0.941  24.511  0.00  0.00    +0.140 A 
ATOM     26  F   UNL     1      -4.852  -1.380  24.538  0.00  0.00    -0.204 F 
ATOM     27  C   UNL     1      -3.689  -0.862  25.189  0.00  0.00    +0.029 A 
ATOM     28  C   UNL     1      -2.991  -0.423  25.162  0.00  0.00    -0.001 A 
ENDBRANCH  20  22
BRANCH   5   3
ATOM      3  C   UNL     1      -3.487   1.121  24.786  0.00  0.00    +0.332 C 
ATOM      4  O   UNL     1      -3.961   0.467  24.955  0.00  0.00    -0.249 OA
BRANCH   3   2
ATOM      1  C   UNL     1      -4.750   1.750  25.011  0.00  0.00    +0.256 C 
ATOM      2  O   UNL     1      -4.187   1.443  24.491  0.00  0.00    -0.443 OA
ENDBRANCH   3   2
ENDBRANCH   5   3
BRANCH  18  29
ATOM     29  N   UNL     1       0.068   0.068  24.049  0.00  0.00    -0.217 NA
BRANCH  29  30
ATOM     30  C   UNL     1       0.388   0.128  23.290  0.00  0.00    +0.124 C 
BRANCH  30  31
ATOM     31  C   UNL     1       1.133  -0.188  23.130  0.00  0.00    +0.201 C 
ATOM     32  O   UNL     1       1.452  -0.129  22.371  0.00  0.00    -0.219 OA
ENDBRANCH  30  31
ENDBRANCH  29  30
ENDBRANCH  18  29
TORSDOF 6
ENDMDL
MODEL 4
REMARK VINA RESULT:     -12.3      1.518      3.228
REMARK  Name = 
REMARK  6 active torsions:
REMARK  status: ('A' for Active; 'I' for Inactive)
REMARK    1  A    between atoms: O_2  and  C_3
REMARK    2  A    between atoms: C_3  and  C_5
REMARK    3  A    between atoms: C_18  and  N_29
REMARK    4  A    between atoms: C_20  and  C_22
REMARK    5  A    between atoms: N_29  and  C_30
REMARK    6  A    between atoms: C_30  and  C_31
REMARK                            x       y       z     vdW  Elec       q    Type
REMARK                         _______ _______ _______ _____ _____    ______ ____
ROOT
ATOM      5  C   UNL     1      -2.145   0.834  24.768  0.00  0.00    +0.162 C 
ATOM      6  C   UNL     1      -2.187   0.017  24.670  0.00  0.00    +0.055 C 
ATOM      7  C   UNL     1      -2.920  -0.349  24.570  0.00  0.00    -0.004 A 
ATOM      8  C   UNL     1      -3.611   0.102  24.568  0.00  0.00    +0.070 A 
ATOM      9  N   UNL     1      -4.249  -0.408  24.459  0.00  0.00    -0.249 NA
ATOM     10  C   UNL     1      -3.955  -1.176  24.393  0.00  0.00    +0.081 A 
ATOM     11  C   UNL     1      -3.132  -1.139  24.462  0.00  0.00    +0.015 A 
ATOM     12  C   UNL     1      -2.684  -1.830  24.417  0.00  0.00    +0.001 A 
ATOM     13  C   UNL     1      -3.057  -2.558  24.303  0.00  0.00    +0.000 A 
ATOM     14  C   UNL     1      -3.879  -2.594  24.234  0.00  0.00    +0.002 A 
ATOM     15  C   UNL     1      -4.328  -1.903  24.279  0.00  0.00    +0.019 A 
ATOM     16  C   UNL     1      -3.568   0.921  24.666  0.00  0.00    +0.100 C 
ATOM     17  C   UNL     1      -4.257   1.373  24.665  0.00  0.00    +0.040 C 
ATOM     18  C   UNL     1      -4.215   2.191  24.763  0.00  0.00    +0.076 C 
ATOM     19  C   UNL     1      -3.482   2.557  24.863  0.00  0.00    +0.038 C 
ATOM     20  C   UNL     1      -2.793   2.104  24.865  0.00  0.00    +0.082 C 
ATOM     21  N   UNL     1      -2.835   1.287  24.766  0.00  0.00    -0.258 NA
ENDROOT
BRANCH  20  22
ATOM     22  C   UNL     1      -2.060   2.471  24.965  0.00  0.00    -0.008 A 
ATOM     23  C   UNL     1      -1.640   2.740  24.309  0.00  0.00    -0.001 A 
ATOM     24  C   UNL     1      -0.908   3.107  24.410  0.00  0.00    +0.029 A 
ATOM     25  C   UNL     1      -0.596   3.203  25.168  0.00  0.00    +0.140 A 
ATOM     26  F   UNL     1       0.137   3.570  25.268  0.00  0.00    -0.204 F 
ATOM     27  C   UNL     1      -1.016   2.934  25.824  0.00  0.00    +0.029 A 
ATOM     28  C   UNL     1      -1.748   2.568  25.723  0.00  0.00    -0.001 A 
ENDBRANCH  20  22
BRANCH   5   3
ATOM      3  C   UNL     1      -1.412   1.200  24.868  0.00  0.00    +0.332 C 
ATOM      4  O   UNL     1      -0.872   1.727  25.203  0.00  0.00    -0.249 OA
BRANCH   3   2
ATOM      1  C   UNL     1      -0.214   0.441  24.699  0.00  0.00    +0.256 C 
ATOM      2  O   UNL     1      -0.770   0.974  24.402  0.00  0.00    -0.443 OA
ENDBRANCH   3   2
ENDBRANCH   5   3
BRANCH  18  29
ATOM     29  N   UNL     1      -4.905   2.643  24.761  0.00  0.00    -0.217 NA
BRANCH  29  30
ATOM     30  C   UNL     1      -5.151   3.023  25.451  0.00  0.00    +0.124 C 
BRANCH  30  31
ATOM     31  C   UNL     1      -5.878   3.413  25.470  0.00  0.00    +0.201 C 
ATOM     32  O   UNL     1      -5.942   4.148  25.841  0.00  0.00    -0.219 OA
ENDBRANCH  30  31
ENDBRANCH  29  30
ENDBRANCH  18  29
TORSDOF 6
ENDMDL
MODEL 5
REMARK VINA RESULT:     -11.5      2.002      2.625
REMARK  Name = 
REMARK  6 active torsions:
REMARK  status: ('A' for Active; 'I' for Inactive)
REMARK    1  A    between atoms: O_2  and  C_3
REMARK    2  A    between atoms: C_3  and  C_5
REMARK    3  A    between atoms: C_18  and  N_29
REMARK    4  A    between atoms: C_20  and  C_22
REMARK    5  A    between atoms: N_29  and  C_30
REMARK    6  A    between atoms: C_30  and  C_31
REMARK                            x       y       z     vdW  Elec       q    Type
REMARK                         _______ _______ _______ _____ _____    ______ ____
ROOT
ATOM      5  C   UNL     1      -2.234   1.792  24.747  0.00  0.00    +0.162 C 
ATOM      6  C   UNL     1      -2.900   1.307  24.756  0.00  0.00    +0.055 C 
ATOM      7  C   UNL     1      -2.834   0.511  24.552  0.00  0.00    -0.004 A 
ATOM      8  C   UNL     1      -2.100   0.199  24.339  0.00  0.00    +0.070 A 
ATOM      9  N   UNL     1      -2.204  -0.601  24.166  0.00  0.00    -0.249 NA
ATOM     10  C   UNL     1      -3.001  -0.785  24.271  0.00  0.00    +0.081 A 
ATOM     11  C   UNL     1      -3.390  -0.097  24.510  0.00  0.00    +0.015 A 
ATOM     12  C   UNL     1      -4.202  -0.113  24.659  0.00  0.00    +0.001 A 
ATOM     13  C   UNL     1      -4.624  -0.817  24.569  0.00  0.00    +0.000 A 
ATOM     14  C   UNL     1      -4.233  -1.505  24.330  0.00  0.00    +0.002 A 
ATOM     15  C   UNL     1      -3.422  -1.488  24.182  0.00  0.00    +0.019 A 
ATOM     16  C   UNL     1      -1.433   0.684  24.330  0.00  0.00    +0.100 C 
ATOM     17  C   UNL     1      -0.699   0.374  24.117  0.00  0.00    +0.040 C 
ATOM     18  C   UNL     1      -0.032   0.858  24.109  0.00  0.00    +0.076 C 
ATOM     19  C   UNL     1      -0.099   1.655  24.313  0.00  0.00    +0.038 C 
ATOM     20  C   UNL     1      -0.833   1.966  24.525  0.00  0.00    +0.082 C 
ATOM     21  N   UNL     1      -1.500   1.481  24.534  0.00  0.00    -0.258 NA
ENDROOT
BRANCH  20  22
ATOM     22  C   UNL     1      -0.899   2.763  24.729  0.00  0.00    -0.008 A 
ATOM     23  C   UNL     1      -1.046   3.327  24.147  0.00  0.00    -0.001 A 
ATOM     24  C   UNL     1      -1.112   4.124  24.352  0.00  0.00    +0.029 A 
ATOM     25  C   UNL     1      -1.030   4.355  25.140  0.00  0.00    +0.140 A 
ATOM     26  F   UNL     1      -1.096   5.153  25.344  0.00  0.00    -0.204 F 
ATOM     27  C   UNL     1      -0.883   3.791  25.722  0.00  0.00    +0.029 A 
ATOM     28  C   UNL     1      -0.817   2.994  25.517  0.00  0.00    -0.001 A 
ENDBRANCH  20  22
BRANCH   5   3
ATOM      3  C   UNL     1      -2.300   2.589  24.951  0.00  0.00    +0.332 C 
ATOM      4  O   UNL     1      -2.070   3.298  25.304  0.00  0.00    -0.249 OA
BRANCH   3   2
ATOM      1  C   UNL     1      -3.574   3.176  25.222  0.00  0.00    +0.256 C 
ATOM      2  O   UNL     1      -2.953   3.026  24.699  0.00  0.00    -0.443 OA
ENDBRANCH   3   2
ENDBRANCH   5   3
BRANCH  18  29
ATOM     29  N   UNL     1       0.702   0.547  23.896  0.00  0.00    -0.217 NA
BRANCH  29  30
ATOM     30  C   UNL     1       0.841   0.315  23.116  0.00  0.00    +0.124 C 
BRANCH  30  31
ATOM     31  C   UNL     1       1.548  -0.061  22.918  0.00  0.00    +0.201 C 
ATOM     32  O   UNL     1       1.794  -0.090  22.131  0.00  0.00    -0.219 OA
ENDBRANCH  30  31
ENDBRANCH  29  30
ENDBRANCH  18  29
TORSDOF 6
ENDMDL
MODEL 6
REMARK VINA RESULT:     -11.4      1.899      4.247
REMARK  Name = 
REMARK  6 active torsions:
REMARK  status: ('A' for Active; 'I' for Inactive)
REMARK    1  A    between atoms: O_2  and  C_3
REMARK    2  A    between atoms: C_3  and  C_5
REMARK    3  A    between atoms: C_18  and  N_29
REMARK    4  A    between atoms: C_20  and  C_22
REMARK    5  A    between atoms: N_29  and  C_30
REMARK    6  A    between atoms: C_30  and  C_31
REMARK                            x       y       z     vdW  Elec       q    Type
REMARK                         _______ _______ _______ _____ _____    ______ ____
ROOT
ATOM      5  C   UNL     1      -2.558   2.010  24.831  0.00  0.00    +0.162 C 
ATOM      6  C   UNL     1      -3.180   2.512  25.029  0.00  0.00    +0.055 C 
ATOM      7  C   UNL     1      -3.949   2.217  25.078  0.00  0.00    -0.004 A 
ATOM      8  C   UNL     1      -4.095   1.418  24.930  0.00  0.00    +0.070 A 
ATOM      9  N   UNL     1      -4.904   1.286  25.020  0.00  0.00    -0.249 NA
ATOM     10  C   UNL     1      -5.259   2.002  25.224  0.00  0.00    +0.081 A 
ATOM     11  C   UNL     1      -4.668   2.578  25.260  0.00  0.00    +0.015 A 
ATOM     12  C   UNL     1      -4.862   3.356  25.453  0.00  0.00    +0.001 A 
ATOM     13  C   UNL     1      -5.647   3.559  25.611  0.00  0.00    +0.000 A 
ATOM     14  C   UNL     1      -6.237   2.982  25.575  0.00  0.00    +0.002 A 
ATOM     15  C   UNL     1      -6.043   2.204  25.382  0.00  0.00    +0.019 A 
ATOM     16  C   UNL     1      -3.471   0.915  24.732  0.00  0.00    +0.100 C 
ATOM     17  C   UNL     1      -3.616   0.117  24.584  0.00  0.00    +0.040 C 
ATOM     18  C   UNL     1      -2.993  -0.386  24.387  0.00  0.00    +0.076 C 
ATOM     19  C   UNL     1      -2.224  -0.090  24.337  0.00  0.00    +0.038 C 
ATOM     20  C   UNL     1      -2.080   0.708  24.485  0.00  0.00    +0.082 C 
ATOM     21  N   UNL     1      -2.703   1.211  24.683  0.00  0.00    -0.258 NA
ENDROOT
BRANCH  20  22
ATOM     22  C   UNL     1      -1.311   1.003  24.435  0.00  0.00    -0.008 A 
ATOM     23  C   UNL     1      -1.023   1.286  23.717  0.00  0.00    -0.001 A 
ATOM     24  C   UNL     1      -0.254   1.581  23.668  0.00  0.00    +0.029 A 
ATOM     25  C   UNL     1       0.227   1.592  24.338  0.00  0.00    +0.140 A 
ATOM     26  F   UNL     1       0.997   1.887  24.288  0.00  0.00    -0.204 F 
ATOM     27  C   UNL     1      -0.060   1.309  25.057  0.00  0.00    +0.029 A 
ATOM     28  C   UNL     1      -0.829   1.014  25.106  0.00  0.00    -0.001 A 
ENDBRANCH  20  22
BRANCH   5   3
ATOM      3  C   UNL     1      -1.789   2.305  24.781  0.00  0.00    +0.332 C 
ATOM      4  O   UNL     1      -1.031   2.385  24.465  0.00  0.00    -0.249 OA
BRANCH   3   2
ATOM      1  C   UNL     1      -1.496   3.658  25.134  0.00  0.00    +0.256 C 
ATOM      2  O   UNL     1      -1.522   2.858  25.333  0.00  0.00    -0.443 OA
ENDBRANCH   3   2
ENDBRANCH   5   3
BRANCH  18  29
ATOM     29  N   UNL     1      -3.138  -1.185  24.238  0.00  0.00    -0.217 NA
BRANCH  29  30
ATOM     30  C   UNL     1      -3.222  -1.712  24.867  0.00  0.00    +0.124 C 
BRANCH  30  31
ATOM     31  C   UNL     1      -3.400  -2.505  24.720  0.00  0.00    +0.201 C 
ATOM     32  O   UNL     1      -3.468  -3.035  25.348  0.00  0.00    -0.219 OA
ENDBRANCH  30  31
ENDBRANCH  29  30
ENDBRANCH  18  29
TORSDOF 6
ENDMDL
MODEL 7
REMARK VINA RESULT:     -11.2      2.177      3.857
REMARK  Name = 
REMARK  6 active torsions:
REMARK  status: ('A' for Active; 'I' for Inactive)
REMARK    1  A    between atoms: O_2  and  C_3
REMARK    2  A    between atoms: C_3  and  C_5
REMARK    3  A    between atoms: C_18  and  N_29
REMARK    4  A    between atoms: C_20  and  C_22
REMARK    5  A    between atoms: N_29  and  C_30
REMARK    6  A    between atoms: C_30  and  C_31
REMARK                            x       y       z     vdW  Elec       q    Type
REMARK                         _______ _______ _______ _____ _____    ______ ____
ROOT
ATOM      5  C   UNL     1      -2.895   0.377  25.081  0.00  0.00    +0.162 C 
ATOM      6  C   UNL     1      -3.710   0.504  25.085  0.00  0.00    +0.055 C 
ATOM      7  C   UNL     1      -4.008   1.273  25.059  0.00  0.00    -0.004 A 
ATOM      8  C   UNL     1      -3.491   1.915  25.028  0.00  0.00    +0.070 A 
ATOM      9  N   UNL     1      -3.942   2.605  25.006  0.00  0.00    -0.249 NA
ATOM     10  C   UNL     1      -4.739   2.391  25.023  0.00  0.00    +0.081 A 
ATOM     11  C   UNL     1      -4.779   1.566  25.055  0.00  0.00    +0.015 A 
ATOM     12  C   UNL     1      -5.513   1.190  25.078  0.00  0.00    +0.001 A 
ATOM     13  C   UNL     1      -6.207   1.637  25.068  0.00  0.00    +0.000 A 
ATOM     14  C   UNL     1      -6.166   2.462  25.036  0.00  0.00    +0.002 A 
ATOM     15  C   UNL     1      -5.432   2.838  25.013  0.00  0.00    +0.019 A 
ATOM     16  C   UNL     1      -2.676   1.789  25.025  0.00  0.00    +0.100 C 
ATOM     17  C   UNL     1      -2.158   2.430  24.994  0.00  0.00    +0.040 C 
ATOM     18  C   UNL     1      -1.343   2.303  24.991  0.00  0.00    +0.076 C 
ATOM     19  C   UNL     1      -1.046   1.534  25.017  0.00  0.00    +0.038 C 
ATOM     20  C   UNL     1      -1.563   0.893  25.047  0.00  0.00    +0.082 C 
ATOM     21  N   UNL     1      -2.378   1.019  25.051  0.00  0.00    -0.258 NA
ENDROOT
BRANCH  20  22
ATOM     22  C   UNL     1      -1.264   0.124  25.074  0.00  0.00    -0.008 A 
ATOM     23  C   UNL     1      -1.127  -0.241  25.800  0.00  0.00    -0.001 A 
ATOM     24  C   UNL     1      -0.828  -1.010  25.826  0.00  0.00    +0.029 A 
ATOM     25  C   UNL     1      -0.667  -1.413  25.124  0.00  0.00    +0.140 A 
ATOM     26  F   UNL     1      -0.368  -2.183  25.151  0.00  0.00    -0.204 F 
ATOM     27  C   UNL     1      -0.805  -1.049  24.398  0.00  0.00    +0.029 A 
ATOM     28  C   UNL     1      -1.103  -0.280  24.372  0.00  0.00    -0.001 A 
ENDBRANCH  20  22
BRANCH   5   3
ATOM      3  C   UNL     1      -2.598  -0.392  25.108  0.00  0.00    +0.332 C 
ATOM      4  O   UNL     1      -2.088  -1.010  24.911  0.00  0.00    -0.249 OA
BRANCH   3   2
ATOM      1  C   UNL     1      -3.470  -1.511  25.266  0.00  0.00    +0.256 C 
ATOM      2  O   UNL     1      -2.954  -0.956  25.592  0.00  0.00    -0.443 OA
ENDBRANCH   3   2
ENDBRANCH   5   3
BRANCH  18  29
ATOM     29  N   UNL     1      -0.826   2.945  24.960  0.00  0.00    -0.217 NA
BRANCH  29  30
ATOM     30  C   UNL     1      -1.121   3.715  24.991  0.00  0.00    +0.124 C 
BRANCH  30  31
ATOM     31  C   UNL     1      -0.605   4.357  24.939  0.00  0.00    +0.201 C 
ATOM     32  O   UNL     1      -0.901   5.127  24.965  0.00  0.00    -0.219 OA
ENDBRANCH  30  31
ENDBRANCH  29  30
ENDBRANCH  18  29
TORSDOF 6
ENDMDL
