MODEL 1
REMARK VINA RESULT:     -10.5      0.000      0.000
REMARK  Name = 
REMARK  8 active torsions:
REMARK  status: ('A' for Active; 'I' for Inactive)
REMARK    1  A    between atoms: C_2  and  C_4
REMARK    2  A    between atoms: C_6  and  C_7
REMARK    3  A    between atoms: C_7  and  C_8
REMARK    4  A    between atoms: N_10  and  C_11
REMARK    5  A    between atoms: C_11  and  C_12
REMARK    6  A    between atoms: C_21  and  C_22
REMARK    7  A    between atoms: C_22  and  N_23
REMARK    8  A    between atoms: C_24  and  C_26
REMARK                            x       y       z     vdW  Elec       q    Type
REMARK                         _______ _______ _______ _____ _____    ______ ____
ROOT
ATOM      4  C   UNL     1      -3.519   1.668  23.892  0.00  0.00    +0.006 C 
ATOM      5  C   UNL     1      -3.665   2.404  24.234  0.00  0.00    +0.005 C 
ATOM      6  C   UNL     1      -4.279   2.490  24.779  0.00  0.00    +0.027 C 
ATOM     18  C   UNL     1      -4.746   1.841  24.982  0.00  0.00    -0.048 C 
ATOM     19  C   UNL     1      -5.360   1.927  25.526  0.00  0.00    +0.026 C 
ATOM     20  C   UNL     1      -4.599   1.104  24.639  0.00  0.00    -0.033 C 
ATOM     21  C   UNL     1      -3.986   1.018  24.095  0.00  0.00    +0.043 C 
ENDROOT
BRANCH   4   2
ATOM      1  C   UNL     1      -3.037   1.745  22.549  0.00  0.00    +0.000 C 
ATOM      2  C   UNL     1      -2.906   1.582  23.348  0.00  0.00    +0.000 C 
ATOM      3  C   UNL     1      -2.161   1.332  23.600  0.00  0.00    +0.000 C 
ENDBRANCH   4   2
BRANCH   6   7
ATOM      7  C   UNL     1      -4.426   3.227  25.121  0.00  0.00    +0.091 C 
BRANCH   7   8
ATOM      8  C   UNL     1      -3.858   3.574  25.611  0.00  0.00    +0.242 C 
ATOM      9  O   UNL     1      -3.891   3.457  26.427  0.00  0.00    -0.273 OA
ATOM     10  N   UNL     1      -3.260   4.037  25.283  0.00  0.00    -0.199 NA
BRANCH  10  11
ATOM     11  C   UNL     1      -2.693   4.384  25.772  0.00  0.00    +0.160 C 
BRANCH  11  12
ATOM     12  C   UNL     1      -1.966   4.617  25.459  0.00  0.00    +0.081 A 
ATOM     13  N   UNL     1      -1.326   4.097  25.471  0.00  0.00    -0.246 NA
ATOM     14  C   UNL     1      -0.599   4.332  25.157  0.00  0.00    +0.099 A 
ATOM     15  C   UNL     1      -0.513   5.085  24.833  0.00  0.00    +0.021 A 
ATOM     16  C   UNL     1      -1.153   5.604  24.822  0.00  0.00    +0.003 A 
ATOM     17  C   UNL     1      -1.880   5.372  25.135  0.00  0.00    +0.017 A 
ENDBRANCH  11  12
ENDBRANCH  10  11
ENDBRANCH   7   8
ENDBRANCH   6   7
BRANCH  21  22
ATOM     22  C   UNL     1      -3.840   0.282  23.753  0.00  0.00    +0.120 C 
BRANCH  22  23
ATOM     23  N   UNL     1      -3.696  -0.374  24.233  0.00  0.00    -0.200 NA
ATOM     24  C   UNL     1      -3.820  -1.136  23.939  0.00  0.00    +0.284 C 
ATOM     25  O   UNL     1      -4.088  -1.241  23.166  0.00  0.00    -0.267 OA
BRANCH  24  26
ATOM     26  C   UNL     1      -3.677  -1.791  24.419  0.00  0.00    +0.155 A 
ATOM     27  C   UNL     1      -3.794  -2.552  24.123  0.00  0.00    +0.123 A 
ATOM     28  N   UNL     1      -3.650  -3.208  24.603  0.00  0.00    -0.239 NA
ATOM     29  C   UNL     1      -3.390  -3.103  25.379  0.00  0.00    +0.120 A 
ATOM     30  C   UNL     1      -3.273  -2.341  25.675  0.00  0.00    +0.120 A 
ATOM     31  N   UNL     1      -3.416  -1.686  25.195  0.00  0.00    -0.236 NA
ENDBRANCH  24  26
ENDBRANCH  22  23
ENDBRANCH  21  22
TORSDOF 8
ENDMDL
MODEL 2
REMARK VINA RESULT:     -10.4      2.887      4.476
REMARK  Name = 
REMARK  8 active torsions:
REMARK  status: ('A' for Active; 'I' for Inactive)
REMARK    1  A    between atoms: C_2  and  C_4
REMARK    2  A    between atoms: C_6  and  C_7
REMARK    3  A    between atoms: C_7  and  C_8
REMARK    4  A    between atoms: N_10  and  C_11
REMARK    5  A    between atoms: C_11  and  C_12
REMARK    6  A    between atoms: C_21  and  C_22
REMARK    7  A    between atoms: C_22  and  N_23
REMARK    8  A    between atoms: C_24  and  C_26
REMARK                            x       y       z     vdW  Elec       q    Type
REMARK                         _______ _______ _______ _____ _____    ______ ____
ROOT
ATOM      4  C   UNL     1      -1.560   1.023  24.721  0.00  0.00    +0.006 C 
ATOM      5  C   UNL     1      -1.982   1.687  24.972  0.00  0.00    +0.005 C 
ATOM      6  C   UNL     1      -1.658   2.440  24.876  0.00  0.00    +0.027 C 
ATOM     18  C   UNL     1      -0.915   2.530  24.531  0.00  0.00    -0.048 C 
ATOM     19  C   UNL     1      -0.591   3.283  24.436  0.00  0.00    +0.026 C 
ATOM     20  C   UNL     1      -0.493   1.866  24.281  0.00  0.00    -0.033 C 
ATOM     21  C   UNL     1      -0.816   1.113  24.376  0.00  0.00    +0.043 C 
ENDROOT
BRANCH   4   2
ATOM      1  C   UNL     1      -2.352  -0.055  24.220  0.00  0.00    +0.000 C 
ATOM      2  C   UNL     1      -1.883   0.270  24.817  0.00  0.00    +0.000 C 
ATOM      3  C   UNL     1      -1.738  -0.157  25.507  0.00  0.00    +0.000 C 
ENDBRANCH   4   2
BRANCH   6   7
ATOM      7  C   UNL     1      -2.080   3.104  25.127  0.00  0.00    +0.091 C 
BRANCH   7   8
ATOM      8  C   UNL     1      -2.822   3.267  24.803  0.00  0.00    +0.242 C 
ATOM      9  O   UNL     1      -2.878   3.618  24.058  0.00  0.00    -0.273 OA
ATOM     10  N   UNL     1      -3.505   3.080  25.224  0.00  0.00    -0.199 NA
BRANCH  10  11
ATOM     11  C   UNL     1      -4.247   3.243  24.900  0.00  0.00    +0.160 C 
BRANCH  11  12
ATOM     12  C   UNL     1      -4.914   2.844  25.176  0.00  0.00    +0.081 A 
ATOM     13  N   UNL     1      -5.231   3.032  25.914  0.00  0.00    -0.246 NA
ATOM     14  C   UNL     1      -5.899   2.632  26.190  0.00  0.00    +0.099 A 
ATOM     15  C   UNL     1      -6.249   2.046  25.728  0.00  0.00    +0.021 A 
ATOM     16  C   UNL     1      -5.932   1.859  24.990  0.00  0.00    +0.003 A 
ATOM     17  C   UNL     1      -5.265   2.257  24.713  0.00  0.00    +0.017 A 
ENDBRANCH  11  12
ENDBRANCH  10  11
ENDBRANCH   7   8
ENDBRANCH   6   7
BRANCH  21  22
ATOM     22  C   UNL     1      -0.394   0.450  24.126  0.00  0.00    +0.120 C 
BRANCH  22  23
ATOM     23  N   UNL     1       0.271   0.541  23.646  0.00  0.00    -0.200 NA
ATOM     24  C   UNL     1       0.719  -0.118  23.431  0.00  0.00    +0.284 C 
ATOM     25  O   UNL     1       0.501  -0.869  23.696  0.00  0.00    -0.267 OA
BRANCH  24  26
ATOM     26  C   UNL     1       1.384  -0.026  22.952  0.00  0.00    +0.155 A 
ATOM     27  C   UNL     1       1.357  -0.262  22.162  0.00  0.00    +0.123 A 
ATOM     28  N   UNL     1       2.023  -0.170  21.682  0.00  0.00    -0.239 NA
ATOM     29  C   UNL     1       2.714   0.158  21.992  0.00  0.00    +0.120 A 
ATOM     30  C   UNL     1       2.740   0.393  22.783  0.00  0.00    +0.120 A 
ATOM     31  N   UNL     1       2.075   0.301  23.262  0.00  0.00    -0.236 NA
ENDBRANCH  24  26
ENDBRANCH  22  23
ENDBRANCH  21  22
TORSDOF 8
ENDMDL
MODEL 3
REMARK VINA RESULT:     -10.1      3.343      5.194
REMARK  Name = 
REMARK  8 active torsions:
REMARK  status: ('A' for Active; 'I' for Inactive)
REMARK    1  A    between atoms: C_2  and  C_4
REMARK    2  A    between atoms: C_6  and  C_7
REMARK    3  A    between atoms: C_7  and  C_8
REMARK    4  A    between atoms: N_10  and  C_11
REMARK    5  A    between atoms: C_11  and  C_12
REMARK    6  A    between atoms: C_21  and  C_22
REMARK    7  A    between atoms: C_22  and  N_23
REMARK    8  A    between atoms: C_24  and  C_26
REMARK                            x       y       z     vdW  Elec       q    Type
REMARK                         _______ _______ _______ _____ _____    ______ ____
ROOT
ATOM      4  C   UNL     1      -0.759   2.016  24.565  0.00  0.00    +0.006 C 
ATOM      5  C   UNL     1      -0.222   1.419  24.378  0.00  0.00    +0.005 C 
ATOM      6  C   UNL     1      -0.491   0.649  24.246  0.00  0.00    +0.027 C 
ATOM     18  C   UNL     1      -1.297   0.479  24.301  0.00  0.00    -0.048 C 
ATOM     19  C   UNL     1      -1.566  -0.289  24.170  0.00  0.00    +0.026 C 
ATOM     20  C   UNL     1      -1.834   1.078  24.489  0.00  0.00    -0.033 C 
ATOM     21  C   UNL     1      -1.564   1.846  24.621  0.00  0.00    +0.043 C 
ENDROOT
BRANCH   4   2
ATOM      1  C   UNL     1      -0.441   3.318  24.069  0.00  0.00    +0.000 C 
ATOM      2  C   UNL     1      -0.489   2.785  24.697  0.00  0.00    +0.000 C 
ATOM      3  C   UNL     1      -0.268   3.020  25.456  0.00  0.00    +0.000 C 
ENDBRANCH   4   2
BRANCH   6   7
ATOM      7  C   UNL     1       0.045   0.052  24.059  0.00  0.00    +0.091 C 
BRANCH   7   8
ATOM      8  C   UNL     1       0.512   0.114  23.381  0.00  0.00    +0.242 C 
ATOM      9  O   UNL     1       0.156   0.175  22.639  0.00  0.00    -0.273 OA
ATOM     10  N   UNL     1       1.334   0.116  23.446  0.00  0.00    -0.199 NA
BRANCH  10  11
ATOM     11  C   UNL     1       1.801   0.179  22.767  0.00  0.00    +0.160 C 
BRANCH  11  12
ATOM     12  C   UNL     1       2.622   0.229  22.835  0.00  0.00    +0.081 A 
ATOM     13  N   UNL     1       3.063  -0.445  23.016  0.00  0.00    -0.246 NA
ATOM     14  C   UNL     1       3.884  -0.393  23.084  0.00  0.00    +0.099 A 
ATOM     15  C   UNL     1       4.263   0.330  22.971  0.00  0.00    +0.021 A 
ATOM     16  C   UNL     1       3.822   1.003  22.790  0.00  0.00    +0.003 A 
ATOM     17  C   UNL     1       3.001   0.953  22.722  0.00  0.00    +0.017 A 
ENDBRANCH  11  12
ENDBRANCH  10  11
ENDBRANCH   7   8
ENDBRANCH   6   7
BRANCH  21  22
ATOM     22  C   UNL     1      -2.101   2.444  24.808  0.00  0.00    +0.120 C 
BRANCH  22  23
ATOM     23  N   UNL     1      -2.892   2.257  24.953  0.00  0.00    -0.200 NA
ATOM     24  C   UNL     1      -3.458   2.856  24.985  0.00  0.00    +0.284 C 
ATOM     25  O   UNL     1      -3.234   3.642  24.870  0.00  0.00    -0.267 OA
BRANCH  24  26
ATOM     26  C   UNL     1      -4.248   2.669  25.130  0.00  0.00    +0.155 A 
ATOM     27  C   UNL     1      -4.631   2.985  25.789  0.00  0.00    +0.123 A 
ATOM     28  N   UNL     1      -5.422   2.797  25.935  0.00  0.00    -0.239 NA
ATOM     29  C   UNL     1      -5.829   2.295  25.423  0.00  0.00    +0.120 A 
ATOM     30  C   UNL     1      -5.445   1.979  24.763  0.00  0.00    +0.120 A 
ATOM     31  N   UNL     1      -4.655   2.167  24.618  0.00  0.00    -0.236 NA
ENDBRANCH  24  26
ENDBRANCH  22  23
ENDBRANCH  21  22
TORSDOF 8
ENDMDL
MODEL 4
REMARK VINA RESULT:     -10.0      2.139      4.935
REMARK  Name = 
REMARK  8 active torsions:
REMARK  status: ('A' for Active; 'I' for Inactive)
REMARK    1  A    between atoms: C_2  and  C_4
REMARK    2  A    between atoms: C_6  and  C_7
REMARK    3  A    between atoms: C_7  and  C_8
REMARK    4  A    between atoms: N_10  and  C_11
REMARK    5  A    between atoms: C_11  and  C_12
REMARK    6  A    between atoms: C_21  and  C_22
REMARK    7  A    between atoms: C_22  and  N_23
REMARK    8  A    between atoms: C_24  and  C_26
REMARK                            x       y       z     vdW  Elec       q    Type
REMARK                         _______ _______ _______ _____ _____    ______ ____
ROOT
ATOM      4  C   UNL     1      -1.691   2.974  24.717  0.00  0.00    +0.006 C 
ATOM      5  C   UNL     1      -1.081   2.564  24.342  0.00  0.00    +0.005 C 
ATOM      6  C   UNL     1      -1.243   2.102  23.678  0.00  0.00    +0.027 C 
ATOM     18  C   UNL     1      -2.014   2.051  23.388  0.00  0.00    -0.048 C 
ATOM     19  C   UNL     1      -2.176   1.589  22.724  0.00  0.00    +0.026 C 
ATOM     20  C   UNL     1      -2.624   2.462  23.763  0.00  0.00    -0.033 C 
ATOM     21  C   UNL     1      -2.462   2.923  24.427  0.00  0.00    +0.043 C 
ENDROOT
BRANCH   4   2
ATOM      1  C   UNL     1      -1.380   4.243  25.295  0.00  0.00    +0.000 C 
ATOM      2  C   UNL     1      -1.530   3.436  25.381  0.00  0.00    +0.000 C 
ATOM      3  C   UNL     1      -1.517   3.091  26.130  0.00  0.00    +0.000 C 
ENDBRANCH   4   2
BRANCH   6   7
ATOM      7  C   UNL     1      -0.633   1.692  23.303  0.00  0.00    +0.091 C 
BRANCH   7   8
ATOM      8  C   UNL     1      -0.212   1.113  23.715  0.00  0.00    +0.242 C 
ATOM      9  O   UNL     1       0.536   1.285  24.018  0.00  0.00    -0.273 OA
ATOM     10  N   UNL     1      -0.540   0.364  23.824  0.00  0.00    -0.199 NA
BRANCH  10  11
ATOM     11  C   UNL     1      -0.118  -0.214  24.236  0.00  0.00    +0.160 C 
BRANCH  11  12
ATOM     12  C   UNL     1      -0.505  -0.891  24.506  0.00  0.00    +0.081 A 
ATOM     13  N   UNL     1      -0.795  -1.444  23.967  0.00  0.00    -0.246 NA
ATOM     14  C   UNL     1      -1.182  -2.120  24.239  0.00  0.00    +0.099 A 
ATOM     15  C   UNL     1      -1.278  -2.244  25.048  0.00  0.00    +0.021 A 
ATOM     16  C   UNL     1      -0.987  -1.691  25.587  0.00  0.00    +0.003 A 
ATOM     17  C   UNL     1      -0.601  -1.015  25.317  0.00  0.00    +0.017 A 
ENDBRANCH  11  12
ENDBRANCH  10  11
ENDBRANCH   7   8
ENDBRANCH   6   7
BRANCH  21  22
ATOM     22  C   UNL     1      -3.072   3.333  24.801  0.00  0.00    +0.120 C 
BRANCH  22  23
ATOM     23  N   UNL     1      -3.746   2.929  25.055  0.00  0.00    -0.200 NA
ATOM     24  C   UNL     1      -4.466   3.328  25.121  0.00  0.00    +0.284 C 
ATOM     25  O   UNL     1      -4.512   4.130  24.934  0.00  0.00    -0.267 OA
BRANCH  24  26
ATOM     26  C   UNL     1      -5.139   2.923  25.375  0.00  0.00    +0.155 A 
ATOM     27  C   UNL     1      -5.417   3.030  26.144  0.00  0.00    +0.123 A 
ATOM     28  N   UNL     1      -6.090   2.625  26.398  0.00  0.00    -0.239 NA
ATOM     29  C   UNL     1      -6.484   2.115  25.883  0.00  0.00    +0.120 A 
ATOM     30  C   UNL     1      -6.205   2.008  25.113  0.00  0.00    +0.120 A 
ATOM     31  N   UNL     1      -5.532   2.413  24.860  0.00  0.00    -0.236 NA
ENDBRANCH  24  26
ENDBRANCH  22  23
ENDBRANCH  21  22
TORSDOF 8
ENDMDL
MODEL 5
REMARK VINA RESULT:      -9.9      2.843      5.288
REMARK  Name = 
REMARK  8 active torsions:
REMARK  status: ('A' for Active; 'I' for Inactive)
REMARK    1  A    between atoms: C_2  and  C_4
REMARK    2  A    between atoms: C_6  and  C_7
REMARK    3  A    between atoms: C_7  and  C_8
REMARK    4  A    between atoms: N_10  and  C_11
REMARK    5  A    between atoms: C_11  and  C_12
REMARK    6  A    between atoms: C_21  and  C_22
REMARK    7  A    between atoms: C_22  and  N_23
REMARK    8  A    between atoms: C_24  and  C_26
REMARK                            x       y       z     vdW  Elec       q    Type
REMARK                         _______ _______ _______ _____ _____    ______ ____
ROOT
ATOM      4  C   UNL     1      -1.403   1.663  24.846  0.00  0.00    +0.006 C 
ATOM      5  C   UNL     1      -2.226   1.639  24.785  0.00  0.00    +0.005 C 
ATOM      6  C   UNL     1      -2.584   1.629  24.041  0.00  0.00    +0.027 C 
ATOM     18  C   UNL     1      -2.120   1.643  23.359  0.00  0.00    -0.048 C 
ATOM     19  C   UNL     1      -2.477   1.632  22.616  0.00  0.00    +0.026 C 
ATOM     20  C   UNL     1      -1.297   1.667  23.420  0.00  0.00    -0.033 C 
ATOM     21  C   UNL     1      -0.939   1.677  24.164  0.00  0.00    +0.043 C 
ENDROOT
BRANCH   4   2
ATOM      1  C   UNL     1      -0.884   2.394  25.958  0.00  0.00    +0.000 C 
ATOM      2  C   UNL     1      -1.046   1.674  25.589  0.00  0.00    +0.000 C 
ATOM      3  C   UNL     1      -0.850   0.965  25.963  0.00  0.00    +0.000 C 
ENDBRANCH   4   2
BRANCH   6   7
ATOM      7  C   UNL     1      -3.406   1.605  23.981  0.00  0.00    +0.091 C 
BRANCH   7   8
ATOM      8  C   UNL     1      -3.836   1.052  24.418  0.00  0.00    +0.242 C 
ATOM      9  O   UNL     1      -4.273   1.294  25.075  0.00  0.00    -0.273 OA
ATOM     10  N   UNL     1      -3.827   0.257  24.199  0.00  0.00    -0.199 NA
BRANCH  10  11
ATOM     11  C   UNL     1      -4.256  -0.297  24.636  0.00  0.00    +0.160 C 
BRANCH  11  12
ATOM     12  C   UNL     1      -4.099  -1.102  24.550  0.00  0.00    +0.081 A 
ATOM     13  N   UNL     1      -4.365  -1.505  23.882  0.00  0.00    -0.246 NA
ATOM     14  C   UNL     1      -4.207  -2.311  23.797  0.00  0.00    +0.099 A 
ATOM     15  C   UNL     1      -3.784  -2.712  24.379  0.00  0.00    +0.021 A 
ATOM     16  C   UNL     1      -3.518  -2.309  25.047  0.00  0.00    +0.003 A 
ATOM     17  C   UNL     1      -3.675  -1.503  25.134  0.00  0.00    +0.017 A 
ENDBRANCH  11  12
ENDBRANCH  10  11
ENDBRANCH   7   8
ENDBRANCH   6   7
BRANCH  21  22
ATOM     22  C   UNL     1      -0.117   1.701  24.224  0.00  0.00    +0.120 C 
BRANCH  22  23
ATOM     23  N   UNL     1       0.345   1.195  23.764  0.00  0.00    -0.200 NA
ATOM     24  C   UNL     1       1.149   1.350  23.660  0.00  0.00    +0.284 C 
ATOM     25  O   UNL     1       1.491   2.012  24.015  0.00  0.00    -0.267 OA
BRANCH  24  26
ATOM     26  C   UNL     1       1.611   0.844  23.200  0.00  0.00    +0.155 A 
ATOM     27  C   UNL     1       2.420   0.982  23.122  0.00  0.00    +0.123 A 
ATOM     28  N   UNL     1       2.882   0.476  22.662  0.00  0.00    -0.239 NA
ATOM     29  C   UNL     1       2.534  -0.168  22.281  0.00  0.00    +0.120 A 
ATOM     30  C   UNL     1       1.724  -0.306  22.360  0.00  0.00    +0.120 A 
ATOM     31  N   UNL     1       1.263   0.200  22.819  0.00  0.00    -0.236 NA
ENDBRANCH  24  26
ENDBRANCH  22  23
ENDBRANCH  21  22
TORSDOF 8
ENDMDL
MODEL 6
REMARK VINA RESULT:      -9.9      2.779      4.911
REMARK  Name = 
REMARK  8 active torsions:
REMARK  status: ('A' for Active; 'I' for Inactive)
REMARK    1  A    between atoms: C_2  and  C_4
REMARK    2  A    between atoms: C_6  and  C_7
REMARK    3  A    between atoms: C_7  and  C_8
REMARK    4  A    between atoms: N_10  and  C_11
REMARK    5  A    between atoms: C_11  and  C_12
REMARK    6  A    between atoms: C_21  and  C_22
REMARK    7  A    between atoms: C_22  and  N_23
REMARK    8  A    between atoms: C_24  and  C_26
REMARK                            x       y       z     vdW  Elec       q    Type
REMARK                         _______ _______ _______ _____ _____    ______ ____
ROOT
ATOM      4  C   UNL     1      -2.858  -0.457  24.775  0.00  0.00    +0.006 C 
ATOM      5  C   UNL     1      -2.063  -0.676  24.790  0.00  0.00    +0.005 C 
ATOM      6  C   UNL     1      -1.482  -0.110  24.948  0.00  0.00    +0.027 C 
ATOM     18  C   UNL     1      -1.698   0.673  25.093  0.00  0.00    -0.048 C 
ATOM     19  C   UNL     1      -1.118   1.238  25.252  0.00  0.00    +0.026 C 
ATOM     20  C   UNL     1      -2.494   0.892  25.078  0.00  0.00    -0.033 C 
ATOM     21  C   UNL     1      -3.073   0.326  24.920  0.00  0.00    +0.043 C 
ENDROOT
BRANCH   4   2
ATOM      1  C   UNL     1      -3.730  -1.107  23.849  0.00  0.00    +0.000 C 
ATOM      2  C   UNL     1      -3.437  -1.022  24.617  0.00  0.00    +0.000 C 
ATOM      3  C   UNL     1      -3.724  -1.501  25.224  0.00  0.00    +0.000 C 
ENDBRANCH   4   2
BRANCH   6   7
ATOM      7  C   UNL     1      -0.687  -0.329  24.963  0.00  0.00    +0.091 C 
BRANCH   7   8
ATOM      8  C   UNL     1      -0.325  -0.613  24.277  0.00  0.00    +0.242 C 
ATOM      9  O   UNL     1      -0.544  -1.347  23.969  0.00  0.00    -0.273 OA
ATOM     10  N   UNL     1       0.254  -0.163  23.901  0.00  0.00    -0.199 NA
BRANCH  10  11
ATOM     11  C   UNL     1       0.616  -0.447  23.215  0.00  0.00    +0.160 C 
BRANCH  11  12
ATOM     12  C   UNL     1       1.328  -0.119  22.959  0.00  0.00    +0.081 A 
ATOM     13  N   UNL     1       1.681   0.489  23.390  0.00  0.00    -0.246 NA
ATOM     14  C   UNL     1       2.394   0.817  23.133  0.00  0.00    +0.099 A 
ATOM     15  C   UNL     1       2.753   0.536  22.446  0.00  0.00    +0.021 A 
ATOM     16  C   UNL     1       2.401  -0.073  22.015  0.00  0.00    +0.003 A 
ATOM     17  C   UNL     1       1.688  -0.401  22.271  0.00  0.00    +0.017 A 
ENDBRANCH  11  12
ENDBRANCH  10  11
ENDBRANCH   7   8
ENDBRANCH   6   7
BRANCH  21  22
ATOM     22  C   UNL     1      -3.868   0.545  24.905  0.00  0.00    +0.120 C 
BRANCH  22  23
ATOM     23  N   UNL     1      -4.090   1.308  25.131  0.00  0.00    -0.200 NA
ATOM     24  C   UNL     1      -4.861   1.571  24.995  0.00  0.00    +0.284 C 
ATOM     25  O   UNL     1      -5.409   1.072  24.634  0.00  0.00    -0.267 OA
BRANCH  24  26
ATOM     26  C   UNL     1      -5.082   2.333  25.221  0.00  0.00    +0.155 A 
ATOM     27  C   UNL     1      -5.636   2.439  25.822  0.00  0.00    +0.123 A 
ATOM     28  N   UNL     1      -5.858   3.202  26.048  0.00  0.00    -0.239 NA
ATOM     29  C   UNL     1      -5.524   3.857  25.673  0.00  0.00    +0.120 A 
ATOM     30  C   UNL     1      -4.969   3.750  25.072  0.00  0.00    +0.120 A 
ATOM     31  N   UNL     1      -4.748   2.988  24.846  0.00  0.00    -0.236 NA
ENDBRANCH  24  26
ENDBRANCH  22  23
ENDBRANCH  21  22
TORSDOF 8
ENDMDL
MODEL 7
REMARK VINA RESULT:      -9.8      1.949      3.354
REMARK  Name = 
REMARK  8 active torsions:
REMARK  status: ('A' for Active; 'I' for Inactive)
REMARK    1  A    between atoms: C_2  and  C_4
REMARK    2  A    between atoms: C_6  and  C_7
REMARK    3  A    between atoms: C_7  and  C_8
REMARK    4  A    between atoms: N_10  and  C_11
REMARK    5  A    between atoms: C_11  and  C_12
REMARK    6  A    between atoms: C_21  and  C_22
REMARK    7  A    between atoms: C_22  and  N_23
REMARK    8  A    between atoms: C_24  and  C_26
REMARK                            x       y       z     vdW  Elec       q    Type
REMARK                         _______ _______ _______ _____ _____    ______ ____
ROOT
ATOM      4  C   UNL     1      -2.152   2.176  23.735  0.00  0.00    +0.006 C 
ATOM      5  C   UNL     1      -2.527   2.839  24.051  0.00  0.00    +0.005 C 
ATOM      6  C   UNL     1      -2.325   3.106  24.806  0.00  0.00    +0.027 C 
ATOM     18  C   UNL     1      -1.748   2.709  25.243  0.00  0.00    -0.048 C 
ATOM     19  C   UNL     1      -1.546   2.975  25.997  0.00  0.00    +0.026 C 
ATOM     20  C   UNL     1      -1.373   2.045  24.926  0.00  0.00    -0.033 C 
ATOM     21  C   UNL     1      -1.575   1.780  24.172  0.00  0.00    +0.043 C 
ENDROOT
BRANCH   4   2
ATOM      1  C   UNL     1      -1.924   2.167  22.324  0.00  0.00    +0.000 C 
ATOM      2  C   UNL     1      -2.354   1.911  22.980  0.00  0.00    +0.000 C 
ATOM      3  C   UNL     1      -2.985   1.389  22.882  0.00  0.00    +0.000 C 
ENDBRANCH   4   2
BRANCH   6   7
ATOM      7  C   UNL     1      -2.699   3.769  25.123  0.00  0.00    +0.091 C 
BRANCH   7   8
ATOM      8  C   UNL     1      -3.510   3.878  25.009  0.00  0.00    +0.242 C 
ATOM      9  O   UNL     1      -3.778   4.414  24.442  0.00  0.00    -0.273 OA
ATOM     10  N   UNL     1      -4.051   3.450  25.462  0.00  0.00    -0.199 NA
BRANCH  10  11
ATOM     11  C   UNL     1      -4.861   3.559  25.347  0.00  0.00    +0.160 C 
BRANCH  11  12
ATOM     12  C   UNL     1      -5.390   2.958  25.549  0.00  0.00    +0.081 A 
ATOM     13  N   UNL     1      -5.617   2.855  26.335  0.00  0.00    -0.246 NA
ATOM     14  C   UNL     1      -6.146   2.254  26.536  0.00  0.00    +0.099 A 
ATOM     15  C   UNL     1      -6.447   1.757  25.951  0.00  0.00    +0.021 A 
ATOM     16  C   UNL     1      -6.220   1.861  25.165  0.00  0.00    +0.003 A 
ATOM     17  C   UNL     1      -5.691   2.461  24.963  0.00  0.00    +0.017 A 
ENDBRANCH  11  12
ENDBRANCH  10  11
ENDBRANCH   7   8
ENDBRANCH   6   7
BRANCH  21  22
ATOM     22  C   UNL     1      -1.200   1.117  23.855  0.00  0.00    +0.120 C 
BRANCH  22  23
ATOM     23  N   UNL     1      -1.279   0.383  24.225  0.00  0.00    -0.200 NA
ATOM     24  C   UNL     1      -0.706  -0.201  24.110  0.00  0.00    +0.284 C 
ATOM     25  O   UNL     1      -0.056  -0.051  23.625  0.00  0.00    -0.267 OA
BRANCH  24  26
ATOM     26  C   UNL     1      -0.786  -0.934  24.479  0.00  0.00    +0.155 A 
ATOM     27  C   UNL     1      -0.271  -1.146  25.088  0.00  0.00    +0.123 A 
ATOM     28  N   UNL     1      -0.349  -1.879  25.458  0.00  0.00    -0.239 NA
ATOM     29  C   UNL     1      -0.943  -2.400  25.220  0.00  0.00    +0.120 A 
ATOM     30  C   UNL     1      -1.458  -2.188  24.610  0.00  0.00    +0.120 A 
ATOM     31  N   UNL     1      -1.379  -1.455  24.241  0.00  0.00    -0.236 NA
ENDBRANCH  24  26
ENDBRANCH  22  23
ENDBRANCH  21  22
TORSDOF 8
ENDMDL
MODEL 8
REMARK VINA RESULT:      -9.7      2.152      4.900
REMARK  Name = 
REMARK  8 active torsions:
REMARK  status: ('A' for Active; 'I' for Inactive)
REMARK    1  A    between atoms: C_2  and  C_4
REMARK    2  A    between atoms: C_6  and  C_7
REMARK    3  A    between atoms: C_7  and  C_8
REMARK    4  A    between atoms: N_10  and  C_11
REMARK    5  A    between atoms: C_11  and  C_12
REMARK    6  A    between atoms: C_21  and  C_22
REMARK    7  A    between atoms: C_22  and  N_23
REMARK    8  A    between atoms: C_24  and  C_26
REMARK                            x       y       z     vdW  Elec       q    Type
REMARK                         _______ _______ _______ _____ _____    ______ ____
ROOT
ATOM      4  C   UNL     1      -2.125   2.084  23.474  0.00  0.00    +0.006 C 
ATOM      5  C   UNL     1      -1.365   1.777  23.559  0.00  0.00    +0.005 C 
ATOM      6  C   UNL     1      -0.948   1.896  24.262  0.00  0.00    +0.027 C 
ATOM     18  C   UNL     1      -1.293   2.321  24.879  0.00  0.00    -0.048 C 
ATOM     19  C   UNL     1      -0.877   2.440  25.581  0.00  0.00    +0.026 C 
ATOM     20  C   UNL     1      -2.055   2.629  24.793  0.00  0.00    -0.033 C 
ATOM     21  C   UNL     1      -2.470   2.510  24.091  0.00  0.00    +0.043 C 
ENDROOT
BRANCH   4   2
ATOM      1  C   UNL     1      -2.510   2.533  22.173  0.00  0.00    +0.000 C 
ATOM      2  C   UNL     1      -2.541   1.965  22.771  0.00  0.00    +0.000 C 
ATOM      3  C   UNL     1      -2.987   1.279  22.666  0.00  0.00    +0.000 C 
ENDBRANCH   4   2
BRANCH   6   7
ATOM      7  C   UNL     1      -0.187   1.588  24.347  0.00  0.00    +0.091 C 
BRANCH   7   8
ATOM      8  C   UNL     1      -0.022   0.821  24.090  0.00  0.00    +0.242 C 
ATOM      9  O   UNL     1       0.431   0.703  23.411  0.00  0.00    -0.273 OA
ATOM     10  N   UNL     1      -0.309   0.174  24.513  0.00  0.00    -0.199 NA
BRANCH  10  11
ATOM     11  C   UNL     1      -0.144  -0.593  24.256  0.00  0.00    +0.160 C 
BRANCH  11  12
ATOM     12  C   UNL     1      -0.619  -1.221  24.501  0.00  0.00    +0.081 A 
ATOM     13  N   UNL     1      -1.124  -1.591  23.964  0.00  0.00    -0.246 NA
ATOM     14  C   UNL     1      -1.599  -2.219  24.211  0.00  0.00    +0.099 A 
ATOM     15  C   UNL     1      -1.568  -2.477  24.993  0.00  0.00    +0.021 A 
ATOM     16  C   UNL     1      -1.063  -2.107  25.530  0.00  0.00    +0.003 A 
ATOM     17  C   UNL     1      -0.588  -1.479  25.285  0.00  0.00    +0.017 A 
ENDBRANCH  11  12
ENDBRANCH  10  11
ENDBRANCH   7   8
ENDBRANCH   6   7
BRANCH  21  22
ATOM     22  C   UNL     1      -3.231   2.817  24.006  0.00  0.00    +0.120 C 
BRANCH  22  23
ATOM     23  N   UNL     1      -3.835   2.566  24.509  0.00  0.00    -0.200 NA
ATOM     24  C   UNL     1      -4.482   3.058  24.654  0.00  0.00    +0.284 C 
ATOM     25  O   UNL     1      -4.525   3.800  24.296  0.00  0.00    -0.267 OA
BRANCH  24  26
ATOM     26  C   UNL     1      -5.086   2.807  25.157  0.00  0.00    +0.155 A 
ATOM     27  C   UNL     1      -5.213   3.197  25.873  0.00  0.00    +0.123 A 
ATOM     28  N   UNL     1      -5.817   2.946  26.377  0.00  0.00    -0.239 NA
ATOM     29  C   UNL     1      -6.293   2.306  26.165  0.00  0.00    +0.120 A 
ATOM     30  C   UNL     1      -6.165   1.917  25.448  0.00  0.00    +0.120 A 
ATOM     31  N   UNL     1      -5.562   2.168  24.945  0.00  0.00    -0.236 NA
ENDBRANCH  24  26
ENDBRANCH  22  23
ENDBRANCH  21  22
TORSDOF 8
ENDMDL
MODEL 9
REMARK VINA RESULT:      -9.5      3.011      4.825
REMARK  Name = 
REMARK  8 active torsions:
REMARK  status: ('A' for Active; 'I' for Inactive)
REMARK    1  A    between atoms: C_2  and  C_4
REMARK    2  A    between atoms: C_6  and  C_7
REMARK    3  A    between atoms: C_7  and  C_8
REMARK    4  A    between atoms: N_10  and  C_11
REMARK    5  A    between atoms: C_11  and  C_12
REMARK    6  A    between atoms: C_21  and  C_22
REMARK    7  A    between atoms: C_22  and  N_23
REMARK    8  A    between atoms: C_24  and  C_26
REMARK                            x       y       z     vdW  Elec       q    Type
REMARK                         _______ _______ _______ _____ _____    ______ ____
ROOT
ATOM      4  C   UNL     1      -1.425   1.255  24.765  0.00  0.00    +0.006 C 
ATOM      5  C   UNL     1      -2.160   0.931  24.954  0.00  0.00    +0.005 C 
ATOM      6  C   UNL     1      -2.279   0.116  24.893  0.00  0.00    +0.027 C 
ATOM     18  C   UNL     1      -1.663  -0.373  24.642  0.00  0.00    -0.048 C 
ATOM     19  C   UNL     1      -1.781  -1.187  24.581  0.00  0.00    +0.026 C 
ATOM     20  C   UNL     1      -0.928  -0.048  24.453  0.00  0.00    -0.033 C 
ATOM     21  C   UNL     1      -0.810   0.766  24.514  0.00  0.00    +0.043 C 
ENDROOT
BRANCH   4   2
ATOM      1  C   UNL     1      -1.056   2.396  25.542  0.00  0.00    +0.000 C 
ATOM      2  C   UNL     1      -1.307   2.069  24.827  0.00  0.00    +0.000 C 
ATOM      3  C   UNL     1      -1.440   2.557  24.174  0.00  0.00    +0.000 C 
ENDBRANCH   4   2
BRANCH   6   7
ATOM      7  C   UNL     1      -3.013  -0.208  25.082  0.00  0.00    +0.091 C 
BRANCH   7   8
ATOM      8  C   UNL     1      -3.700   0.102  24.744  0.00  0.00    +0.242 C 
ATOM      9  O   UNL     1      -3.914  -0.110  23.976  0.00  0.00    -0.273 OA
ATOM     10  N   UNL     1      -4.172   0.623  25.176  0.00  0.00    -0.199 NA
BRANCH  10  11
ATOM     11  C   UNL     1      -4.859   0.932  24.838  0.00  0.00    +0.160 C 
BRANCH  11  12
ATOM     12  C   UNL     1      -5.205   1.610  25.157  0.00  0.00    +0.081 A 
ATOM     13  N   UNL     1      -5.681   1.553  25.828  0.00  0.00    -0.246 NA
ATOM     14  C   UNL     1      -6.027   2.232  26.146  0.00  0.00    +0.099 A 
ATOM     15  C   UNL     1      -5.897   2.966  25.793  0.00  0.00    +0.021 A 
ATOM     16  C   UNL     1      -5.421   3.022  25.122  0.00  0.00    +0.003 A 
ATOM     17  C   UNL     1      -5.074   2.345  24.803  0.00  0.00    +0.017 A 
ENDBRANCH  11  12
ENDBRANCH  10  11
ENDBRANCH   7   8
ENDBRANCH   6   7
BRANCH  21  22
ATOM     22  C   UNL     1      -0.076   1.091  24.325  0.00  0.00    +0.120 C 
BRANCH  22  23
ATOM     23  N   UNL     1       0.430   0.693  23.807  0.00  0.00    -0.200 NA
ATOM     24  C   UNL     1       1.170   1.011  23.627  0.00  0.00    +0.284 C 
ATOM     25  O   UNL     1       1.405   1.726  23.965  0.00  0.00    -0.267 OA
BRANCH  24  26
ATOM     26  C   UNL     1       1.674   0.613  23.110  0.00  0.00    +0.155 A 
ATOM     27  C   UNL     1       2.489   0.731  23.157  0.00  0.00    +0.123 A 
ATOM     28  N   UNL     1       2.994   0.333  22.640  0.00  0.00    -0.239 NA
ATOM     29  C   UNL     1       2.684  -0.182  22.076  0.00  0.00    +0.120 A 
ATOM     30  C   UNL     1       1.868  -0.301  22.028  0.00  0.00    +0.120 A 
ATOM     31  N   UNL     1       1.364   0.097  22.546  0.00  0.00    -0.236 NA
ENDBRANCH  24  26
ENDBRANCH  22  23
ENDBRANCH  21  22
TORSDOF 8
ENDMDL
