MODEL 1
REMARK VINA RESULT:     -10.1      0.000      0.000
REMARK  Name = 
REMARK  7 active torsions:
REMARK  status: ('A' for Active; 'I' for Inactive)
REMARK    1  A    between atoms: S_2  and  C_3
REMARK    2  A    between atoms: C_3  and  C_4
REMARK    3  A    between atoms: C_8  and  N_19
REMARK    4  A    between atoms: C_10  and  C_11
REMARK    5  A    between atoms: N_13  and  C_15
REMARK    6  A    between atoms: C_15  and  C_16
REMARK    7  A    between atoms: N_22  and  C_23
REMARK                            x       y       z     vdW  Elec       q    Type
REMARK                         _______ _______ _______ _____ _____    ______ ____
ROOT
ATOM      4  C   UNL     1      -1.365  -0.372  24.489  0.00  0.00    +0.237 C 
ATOM      5  O   UNL     1      -0.548  -0.434  24.388  0.00  0.00    -0.274 OA
ATOM      6  N   UNL     1      -1.732   0.364  24.436  0.00  0.00    -0.270 N 
ATOM      7  C   UNL     1      -2.540   0.511  24.524  0.00  0.00    +0.116 C 
ATOM      8  C   UNL     1      -2.663   1.321  24.428  0.00  0.00    +0.119 C 
ATOM      9  C   UNL     1      -1.932   1.675  24.281  0.00  0.00    +0.053 C 
ATOM     10  C   UNL     1      -1.357   1.084  24.286  0.00  0.00    +0.154 C 
ENDROOT
BRANCH  10  11
ATOM     11  C   UNL     1      -0.549   1.193  24.163  0.00  0.00    +0.244 C 
ATOM     12  O   UNL     1      -0.170   0.801  23.543  0.00  0.00    -0.273 OA
ATOM     13  N   UNL     1      -0.120   1.693  24.659  0.00  0.00    -0.268 N 
ATOM     14  C   UNL     1       0.688   1.802  24.536  0.00  0.00    +0.115 C 
BRANCH  13  15
ATOM     15  C   UNL     1      -0.499   2.085  25.278  0.00  0.00    +0.183 C 
BRANCH  15  16
ATOM     16  C   UNL     1      -0.086   2.634  25.734  0.00  0.00    +0.281 C 
ATOM     17  N   UNL     1       0.334   2.386  26.400  0.00  0.00    -0.086 NA
ATOM     18  O   UNL     1      -0.091   3.432  25.524  0.00  0.00    -0.270 OA
ENDBRANCH  15  16
ENDBRANCH  13  15
ENDBRANCH  10  11
BRANCH   8  19
ATOM     19  N   UNL     1      -3.390   1.709  24.471  0.00  0.00    -0.187 NA
ATOM     20  C   UNL     1      -3.690   2.100  23.809  0.00  0.00    +0.344 C 
ATOM     21  O   UNL     1      -3.263   2.102  23.104  0.00  0.00    -0.249 OA
ATOM     22  N   UNL     1      -4.417   2.488  23.853  0.00  0.00    -0.159 NA
BRANCH  22  23
ATOM     23  C   UNL     1      -4.843   2.485  24.559  0.00  0.00    +0.102 A 
ATOM     24  C   UNL     1      -4.899   3.174  25.010  0.00  0.00    +0.158 A 
ATOM     25  F   UNL     1      -4.528   3.865  24.755  0.00  0.00    -0.203 F 
ATOM     26  C   UNL     1      -5.326   3.170  25.716  0.00  0.00    +0.061 A 
ATOM     27  C   UNL     1      -5.697   2.479  25.971  0.00  0.00    +0.142 A 
ATOM     28  F   UNL     1      -6.123   2.476  26.677  0.00  0.00    -0.204 F 
ATOM     29  C   UNL     1      -5.641   1.791  25.519  0.00  0.00    +0.031 A 
ATOM     30  C   UNL     1      -5.214   1.794  24.814  0.00  0.00    +0.021 A 
ENDBRANCH  22  23
ENDBRANCH   8  19
BRANCH   4   3
ATOM      3  C   UNL     1      -1.813  -1.047  24.642  0.00  0.00    +0.143 C 
BRANCH   3   2
ATOM      1  C   UNL     1      -1.907  -2.472  24.679  0.00  0.00    +0.070 C 
ATOM      2  S   UNL     1      -1.449  -1.786  24.677  0.00  0.00    -0.130 S 
ENDBRANCH   3   2
ENDBRANCH   4   3
TORSDOF 7
ENDMDL
MODEL 2
REMARK VINA RESULT:      -9.9      2.541      3.666
REMARK  Name = 
REMARK  7 active torsions:
REMARK  status: ('A' for Active; 'I' for Inactive)
REMARK    1  A    between atoms: S_2  and  C_3
REMARK    2  A    between atoms: C_3  and  C_4
REMARK    3  A    between atoms: C_8  and  N_19
REMARK    4  A    between atoms: C_10  and  C_11
REMARK    5  A    between atoms: N_13  and  C_15
REMARK    6  A    between atoms: C_15  and  C_16
REMARK    7  A    between atoms: N_22  and  C_23
REMARK                            x       y       z     vdW  Elec       q    Type
REMARK                         _______ _______ _______ _____ _____    ______ ____
ROOT
ATOM      4  C   UNL     1       0.206   0.876  24.034  0.00  0.00    +0.237 C 
ATOM      5  O   UNL     1       0.589   1.593  24.175  0.00  0.00    -0.274 OA
ATOM      6  N   UNL     1      -0.482   0.687  24.445  0.00  0.00    -0.270 N 
ATOM      7  C   UNL     1      -0.923  -0.006  24.362  0.00  0.00    +0.116 C 
ATOM      8  C   UNL     1      -1.565   0.037  24.878  0.00  0.00    +0.119 C 
ATOM      9  C   UNL     1      -1.522   0.756  25.280  0.00  0.00    +0.053 C 
ATOM     10  C   UNL     1      -0.853   1.158  25.013  0.00  0.00    +0.154 C 
ENDROOT
BRANCH  10  11
ATOM     11  C   UNL     1      -0.599   1.900  25.268  0.00  0.00    +0.244 C 
ATOM     12  O   UNL     1       0.161   1.992  25.576  0.00  0.00    -0.273 OA
ATOM     13  N   UNL     1      -1.104   2.550  25.214  0.00  0.00    -0.268 N 
ATOM     14  C   UNL     1      -0.850   3.292  25.469  0.00  0.00    +0.115 C 
BRANCH  13  15
ATOM     15  C   UNL     1      -1.864   2.458  24.906  0.00  0.00    +0.183 C 
BRANCH  15  16
ATOM     16  C   UNL     1      -2.355   3.114  24.816  0.00  0.00    +0.281 C 
ATOM     17  N   UNL     1      -2.830   3.363  25.444  0.00  0.00    -0.086 NA
ATOM     18  O   UNL     1      -2.373   3.521  24.099  0.00  0.00    -0.270 OA
ENDBRANCH  15  16
ENDBRANCH  13  15
ENDBRANCH  10  11
BRANCH   8  19
ATOM     19  N   UNL     1      -2.148  -0.538  24.975  0.00  0.00    -0.187 NA
ATOM     20  C   UNL     1      -2.245  -0.910  25.706  0.00  0.00    +0.344 C 
ATOM     21  O   UNL     1      -1.758  -0.705  26.339  0.00  0.00    -0.249 OA
ATOM     22  N   UNL     1      -2.828  -1.485  25.803  0.00  0.00    -0.159 NA
BRANCH  22  23
ATOM     23  C   UNL     1      -3.315  -1.689  25.169  0.00  0.00    +0.102 A 
ATOM     24  C   UNL     1      -3.275  -2.447  24.845  0.00  0.00    +0.158 A 
ATOM     25  F   UNL     1      -2.748  -3.000  25.154  0.00  0.00    -0.203 F 
ATOM     26  C   UNL     1      -3.762  -2.650  24.211  0.00  0.00    +0.061 A 
ATOM     27  C   UNL     1      -4.290  -2.095  23.901  0.00  0.00    +0.142 A 
ATOM     28  F   UNL     1      -4.776  -2.299  23.267  0.00  0.00    -0.204 F 
ATOM     29  C   UNL     1      -4.329  -1.339  24.226  0.00  0.00    +0.031 A 
ATOM     30  C   UNL     1      -3.843  -1.135  24.859  0.00  0.00    +0.021 A 
ENDBRANCH  22  23
ENDBRANCH   8  19
BRANCH   4   3
ATOM      3  C   UNL     1       0.514   0.348  23.480  0.00  0.00    +0.143 C 
BRANCH   3   2
ATOM      1  C   UNL     1       1.569  -0.046  22.601  0.00  0.00    +0.070 C 
ATOM      2  S   UNL     1       1.233   0.509  23.110  0.00  0.00    -0.130 S 
ENDBRANCH   3   2
ENDBRANCH   4   3
TORSDOF 7
ENDMDL
MODEL 3
REMARK VINA RESULT:      -9.6      2.354      4.347
REMARK  Name = 
REMARK  7 active torsions:
REMARK  status: ('A' for Active; 'I' for Inactive)
REMARK    1  A    between atoms: S_2  and  C_3
REMARK    2  A    between atoms: C_3  and  C_4
REMARK    3  A    between atoms: C_8  and  N_19
REMARK    4  A    between atoms: C_10  and  C_11
REMARK    5  A    between atoms: N_13  and  C_15
REMARK    6  A    between atoms: C_15  and  C_16
REMARK    7  A    between atoms: N_22  and  C_23
REMARK                            x       y       z     vdW  Elec       q    Type
REMARK                         _______ _______ _______ _____ _____    ______ ____
ROOT
ATOM      4  C   UNL     1      -2.017   2.662  25.334  0.00  0.00    +0.237 C 
ATOM      5  O   UNL     1      -2.229   3.454  25.425  0.00  0.00    -0.274 OA
ATOM      6  N   UNL     1      -2.552   2.126  25.009  0.00  0.00    -0.270 N 
ATOM      7  C   UNL     1      -2.418   1.321  24.885  0.00  0.00    +0.116 C 
ATOM      8  C   UNL     1      -3.099   0.997  24.550  0.00  0.00    +0.119 C 
ATOM      9  C   UNL     1      -3.654   1.602  24.467  0.00  0.00    +0.053 C 
ATOM     10  C   UNL     1      -3.317   2.299  24.750  0.00  0.00    +0.154 C 
ENDROOT
BRANCH  10  11
ATOM     11  C   UNL     1      -3.679   3.040  24.772  0.00  0.00    +0.244 C 
ATOM     12  O   UNL     1      -3.305   3.692  24.431  0.00  0.00    -0.273 OA
ATOM     13  N   UNL     1      -4.414   3.129  25.133  0.00  0.00    -0.268 N 
ATOM     14  C   UNL     1      -4.777   3.870  25.155  0.00  0.00    +0.115 C 
BRANCH  13  15
ATOM     15  C   UNL     1      -4.789   2.477  25.474  0.00  0.00    +0.183 C 
BRANCH  15  16
ATOM     16  C   UNL     1      -5.535   2.560  25.813  0.00  0.00    +0.281 C 
ATOM     17  N   UNL     1      -6.202   2.274  25.421  0.00  0.00    -0.086 NA
ATOM     18  O   UNL     1      -5.616   2.931  26.546  0.00  0.00    -0.270 OA
ENDBRANCH  15  16
ENDBRANCH  13  15
ENDBRANCH  10  11
BRANCH   8  19
ATOM     19  N   UNL     1      -3.206   0.208  24.336  0.00  0.00    -0.187 NA
ATOM     20  C   UNL     1      -3.308   0.006  23.542  0.00  0.00    +0.344 C 
ATOM     21  O   UNL     1      -3.302   0.593  22.963  0.00  0.00    -0.249 OA
ATOM     22  N   UNL     1      -3.415  -0.784  23.328  0.00  0.00    -0.159 NA
BRANCH  22  23
ATOM     23  C   UNL     1      -3.421  -1.371  23.907  0.00  0.00    +0.102 A 
ATOM     24  C   UNL     1      -4.112  -1.797  24.056  0.00  0.00    +0.158 A 
ATOM     25  F   UNL     1      -4.796  -1.637  23.626  0.00  0.00    -0.203 F 
ATOM     26  C   UNL     1      -4.117  -2.384  24.636  0.00  0.00    +0.061 A 
ATOM     27  C   UNL     1      -3.432  -2.545  25.068  0.00  0.00    +0.142 A 
ATOM     28  F   UNL     1      -3.438  -3.131  25.647  0.00  0.00    -0.204 F 
ATOM     29  C   UNL     1      -2.742  -2.118  24.918  0.00  0.00    +0.031 A 
ATOM     30  C   UNL     1      -2.736  -1.531  24.339  0.00  0.00    +0.021 A 
ENDBRANCH  22  23
ENDBRANCH   8  19
BRANCH   4   3
ATOM      3  C   UNL     1      -1.269   2.407  25.569  0.00  0.00    +0.143 C 
BRANCH   3   2
ATOM      1  C   UNL     1       0.007   2.684  26.150  0.00  0.00    +0.070 C 
ATOM      2  S   UNL     1      -0.727   2.945  25.880  0.00  0.00    -0.130 S 
ENDBRANCH   3   2
ENDBRANCH   4   3
TORSDOF 7
ENDMDL
MODEL 4
REMARK VINA RESULT:      -9.5      2.181      3.559
REMARK  Name = 
REMARK  7 active torsions:
REMARK  status: ('A' for Active; 'I' for Inactive)
REMARK    1  A    between atoms: S_2  and  C_3
REMARK    2  A    between atoms: C_3  and  C_4
REMARK    3  A    between atoms: C_8  and  N_19
REMARK    4  A    between atoms: C_10  and  C_11
REMARK    5  A    between atoms: N_13  and  C_15
REMARK    6  A    between atoms: C_15  and  C_16
REMARK    7  A    between atoms: N_22  and  C_23
REMARK                            x       y       z     vdW  Elec       q    Type
REMARK                         _______ _______ _______ _____ _____    ______ ____
ROOT
ATOM      4  C   UNL     1       0.052  -0.242  23.887  0.00  0.00    +0.237 C 
ATOM      5  O   UNL     1      -0.006  -1.065  23.891  0.00  0.00    -0.274 OA
ATOM      6  N   UNL     1      -0.410   0.207  24.401  0.00  0.00    -0.270 N 
ATOM      7  C   UNL     1      -0.411   1.031  24.459  0.00  0.00    +0.116 C 
ATOM      8  C   UNL     1      -0.953   1.245  25.043  0.00  0.00    +0.119 C 
ATOM      9  C   UNL     1      -1.287   0.553  25.346  0.00  0.00    +0.053 C 
ATOM     10  C   UNL     1      -0.951  -0.087  24.950  0.00  0.00    +0.154 C 
ENDROOT
BRANCH  10  11
ATOM     11  C   UNL     1      -1.126  -0.883  25.080  0.00  0.00    +0.244 C 
ATOM     12  O   UNL     1      -0.525  -1.407  25.295  0.00  0.00    -0.273 OA
ATOM     13  N   UNL     1      -1.899  -1.155  24.994  0.00  0.00    -0.268 N 
ATOM     14  C   UNL     1      -2.074  -1.951  25.123  0.00  0.00    +0.115 C 
BRANCH  13  15
ATOM     15  C   UNL     1      -2.500  -0.631  24.778  0.00  0.00    +0.183 C 
BRANCH  15  16
ATOM     16  C   UNL     1      -3.279  -0.894  24.729  0.00  0.00    +0.281 C 
ATOM     17  N   UNL     1      -3.600  -1.103  23.998  0.00  0.00    -0.086 NA
ATOM     18  O   UNL     1      -3.740  -0.949  25.412  0.00  0.00    -0.270 OA
ENDBRANCH  15  16
ENDBRANCH  13  15
ENDBRANCH  10  11
BRANCH   8  19
ATOM     19  N   UNL     1      -1.131   2.014  25.281  0.00  0.00    -0.187 NA
ATOM     20  C   UNL     1      -0.690   2.373  25.880  0.00  0.00    +0.344 C 
ATOM     21  O   UNL     1      -0.073   1.963  26.239  0.00  0.00    -0.249 OA
ATOM     22  N   UNL     1      -0.869   3.143  26.118  0.00  0.00    -0.159 NA
BRANCH  22  23
ATOM     23  C   UNL     1      -1.487   3.553  25.758  0.00  0.00    +0.102 A 
ATOM     24  C   UNL     1      -1.328   4.217  25.294  0.00  0.00    +0.158 A 
ATOM     25  F   UNL     1      -0.550   4.470  25.191  0.00  0.00    -0.203 F 
ATOM     26  C   UNL     1      -1.947   4.626  24.935  0.00  0.00    +0.061 A 
ATOM     27  C   UNL     1      -2.726   4.372  25.038  0.00  0.00    +0.142 A 
ATOM     28  F   UNL     1      -3.344   4.782  24.678  0.00  0.00    -0.204 F 
ATOM     29  C   UNL     1      -2.884   3.709  25.502  0.00  0.00    +0.031 A 
ATOM     30  C   UNL     1      -2.266   3.299  25.862  0.00  0.00    +0.021 A 
ENDBRANCH  22  23
ENDBRANCH   8  19
BRANCH   4   3
ATOM      3  C   UNL     1       0.571   0.132  23.366  0.00  0.00    +0.143 C 
BRANCH   3   2
ATOM      1  C   UNL     1       1.681   0.031  22.471  0.00  0.00    +0.070 C 
ATOM      2  S   UNL     1       1.041  -0.318  22.858  0.00  0.00    -0.130 S 
ENDBRANCH   3   2
ENDBRANCH   4   3
TORSDOF 7
ENDMDL
MODEL 5
REMARK VINA RESULT:      -9.4      2.350      3.832
REMARK  Name = 
REMARK  7 active torsions:
REMARK  status: ('A' for Active; 'I' for Inactive)
REMARK    1  A    between atoms: S_2  and  C_3
REMARK    2  A    between atoms: C_3  and  C_4
REMARK    3  A    between atoms: C_8  and  N_19
REMARK    4  A    between atoms: C_10  and  C_11
REMARK    5  A    between atoms: N_13  and  C_15
REMARK    6  A    between atoms: C_15  and  C_16
REMARK    7  A    between atoms: N_22  and  C_23
REMARK                            x       y       z     vdW  Elec       q    Type
REMARK                         _______ _______ _______ _____ _____    ______ ____
ROOT
ATOM      4  C   UNL     1      -3.752   3.185  25.283  0.00  0.00    +0.237 C 
ATOM      5  O   UNL     1      -3.351   3.902  25.352  0.00  0.00    -0.274 OA
ATOM      6  N   UNL     1      -3.364   2.521  24.986  0.00  0.00    -0.270 N 
ATOM      7  C   UNL     1      -3.692   1.771  24.885  0.00  0.00    +0.116 C 
ATOM      8  C   UNL     1      -3.110   1.277  24.574  0.00  0.00    +0.119 C 
ATOM      9  C   UNL     1      -2.420   1.721  24.482  0.00  0.00    +0.053 C 
ATOM     10  C   UNL     1      -2.577   2.490  24.737  0.00  0.00    +0.154 C 
ENDROOT
BRANCH  10  11
ATOM     11  C   UNL     1      -2.042   3.118  24.741  0.00  0.00    +0.244 C 
ATOM     12  O   UNL     1      -2.232   3.824  24.357  0.00  0.00    -0.273 OA
ATOM     13  N   UNL     1      -1.319   3.041  25.129  0.00  0.00    -0.268 N 
ATOM     14  C   UNL     1      -0.784   3.669  25.134  0.00  0.00    +0.115 C 
BRANCH  13  15
ATOM     15  C   UNL     1      -1.130   2.335  25.514  0.00  0.00    +0.183 C 
BRANCH  15  16
ATOM     16  C   UNL     1      -0.388   2.240  25.860  0.00  0.00    +0.281 C 
ATOM     17  N   UNL     1      -0.279   2.412  26.659  0.00  0.00    -0.086 NA
ATOM     18  O   UNL     1       0.247   1.973  25.406  0.00  0.00    -0.270 OA
ENDBRANCH  15  16
ENDBRANCH  13  15
ENDBRANCH  10  11
BRANCH   8  19
ATOM     19  N   UNL     1      -3.199   0.478  24.387  0.00  0.00    -0.187 NA
ATOM     20  C   UNL     1      -3.314   0.248  23.603  0.00  0.00    +0.344 C 
ATOM     21  O   UNL     1      -3.339   0.816  23.006  0.00  0.00    -0.249 OA
ATOM     22  N   UNL     1      -3.404  -0.552  23.417  0.00  0.00    -0.159 NA
BRANCH  22  23
ATOM     23  C   UNL     1      -3.379  -1.119  24.014  0.00  0.00    +0.102 A 
ATOM     24  C   UNL     1      -4.048  -1.574  24.180  0.00  0.00    +0.158 A 
ATOM     25  F   UNL     1      -4.740  -1.460  23.749  0.00  0.00    -0.203 F 
ATOM     26  C   UNL     1      -4.022  -2.141  24.779  0.00  0.00    +0.061 A 
ATOM     27  C   UNL     1      -3.327  -2.255  25.211  0.00  0.00    +0.142 A 
ATOM     28  F   UNL     1      -3.303  -2.822  25.808  0.00  0.00    -0.204 F 
ATOM     29  C   UNL     1      -2.660  -1.800  25.044  0.00  0.00    +0.031 A 
ATOM     30  C   UNL     1      -2.685  -1.233  24.447  0.00  0.00    +0.021 A 
ENDBRANCH  22  23
ENDBRANCH   8  19
BRANCH   4   3
ATOM      3  C   UNL     1      -4.543   3.131  25.511  0.00  0.00    +0.143 C 
BRANCH   3   2
ATOM      1  C   UNL     1      -5.795   3.789  25.720  0.00  0.00    +0.070 C 
ATOM      2  S   UNL     1      -4.971   3.816  25.680  0.00  0.00    -0.130 S 
ENDBRANCH   3   2
ENDBRANCH   4   3
TORSDOF 7
ENDMDL
MODEL 6
REMARK VINA RESULT:      -9.4      1.237      2.534
REMARK  Name = 
REMARK  7 active torsions:
REMARK  status: ('A' for Active; 'I' for Inactive)
REMARK    1  A    between atoms: S_2  and  C_3
REMARK    2  A    between atoms: C_3  and  C_4
REMARK    3  A    between atoms: C_8  and  N_19
REMARK    4  A    between atoms: C_10  and  C_11
REMARK    5  A    between atoms: N_13  and  C_15
REMARK    6  A    between atoms: C_15  and  C_16
REMARK    7  A    between atoms: N_22  and  C_23
REMARK                            x       y       z     vdW  Elec       q    Type
REMARK                         _______ _______ _______ _____ _____    ______ ____
ROOT
ATOM      4  C   UNL     1      -0.484   1.782  25.257  0.00  0.00    +0.237 C 
ATOM      5  O   UNL     1       0.161   1.317  25.040  0.00  0.00    -0.274 OA
ATOM      6  N   UNL     1      -1.229   1.631  24.936  0.00  0.00    -0.270 N 
ATOM      7  C   UNL     1      -1.922   2.048  25.101  0.00  0.00    +0.116 C 
ATOM      8  C   UNL     1      -2.533   1.712  24.661  0.00  0.00    +0.119 C 
ATOM      9  C   UNL     1      -2.217   1.087  24.223  0.00  0.00    +0.053 C 
ATOM     10  C   UNL     1      -1.412   1.037  24.393  0.00  0.00    +0.154 C 
ENDROOT
BRANCH  10  11
ATOM     11  C   UNL     1      -0.882   0.490  24.077  0.00  0.00    +0.244 C 
ATOM     12  O   UNL     1      -0.260   0.748  23.600  0.00  0.00    -0.273 OA
ATOM     13  N   UNL     1      -0.974  -0.313  24.237  0.00  0.00    -0.268 N 
ATOM     14  C   UNL     1      -0.444  -0.861  23.920  0.00  0.00    +0.115 C 
BRANCH  13  15
ATOM     15  C   UNL     1      -1.596  -0.571  24.714  0.00  0.00    +0.183 C 
BRANCH  15  16
ATOM     16  C   UNL     1      -1.660  -1.368  24.915  0.00  0.00    +0.281 C 
ATOM     17  N   UNL     1      -2.199  -1.852  24.520  0.00  0.00    -0.086 NA
ATOM     18  O   UNL     1      -1.184  -1.682  25.511  0.00  0.00    -0.270 OA
ENDBRANCH  15  16
ENDBRANCH  13  15
ENDBRANCH  10  11
BRANCH   8  19
ATOM     19  N   UNL     1      -3.320   1.956  24.657  0.00  0.00    -0.187 NA
ATOM     20  C   UNL     1      -3.609   2.410  24.032  0.00  0.00    +0.344 C 
ATOM     21  O   UNL     1      -3.111   2.619  23.409  0.00  0.00    -0.249 OA
ATOM     22  N   UNL     1      -4.398   2.655  24.029  0.00  0.00    -0.159 NA
BRANCH  22  23
ATOM     23  C   UNL     1      -4.896   2.445  24.652  0.00  0.00    +0.102 A 
ATOM     24  C   UNL     1      -5.153   3.020  25.186  0.00  0.00    +0.158 A 
ATOM     25  F   UNL     1      -4.912   3.803  25.096  0.00  0.00    -0.203 F 
ATOM     26  C   UNL     1      -5.652   2.809  25.809  0.00  0.00    +0.061 A 
ATOM     27  C   UNL     1      -5.894   2.025  25.898  0.00  0.00    +0.142 A 
ATOM     28  F   UNL     1      -6.392   1.816  26.521  0.00  0.00    -0.204 F 
ATOM     29  C   UNL     1      -5.636   1.452  25.364  0.00  0.00    +0.031 A 
ATOM     30  C   UNL     1      -5.138   1.661  24.741  0.00  0.00    +0.021 A 
ENDBRANCH  22  23
ENDBRANCH   8  19
BRANCH   4   3
ATOM      3  C   UNL     1      -0.385   2.398  25.797  0.00  0.00    +0.143 C 
BRANCH   3   2
ATOM      1  C   UNL     1       0.336   2.818  26.957  0.00  0.00    +0.070 C 
ATOM      2  S   UNL     1       0.327   2.479  26.205  0.00  0.00    -0.130 S 
ENDBRANCH   3   2
ENDBRANCH   4   3
TORSDOF 7
ENDMDL
MODEL 7
REMARK VINA RESULT:      -9.4      1.782      3.153
REMARK  Name = 
REMARK  7 active torsions:
REMARK  status: ('A' for Active; 'I' for Inactive)
REMARK    1  A    between atoms: S_2  and  C_3
REMARK    2  A    between atoms: C_3  and  C_4
REMARK    3  A    between atoms: C_8  and  N_19
REMARK    4  A    between atoms: C_10  and  C_11
REMARK    5  A    between atoms: N_13  and  C_15
REMARK    6  A    between atoms: C_15  and  C_16
REMARK    7  A    between atoms: N_22  and  C_23
REMARK                            x       y       z     vdW  Elec       q    Type
REMARK                         _______ _______ _______ _____ _____    ______ ____
ROOT
ATOM      4  C   UNL     1      -0.288  -0.231  24.011  0.00  0.00    +0.237 C 
ATOM      5  O   UNL     1      -0.164  -1.026  24.193  0.00  0.00    -0.274 OA
ATOM      6  N   UNL     1      -0.940   0.167  24.321  0.00  0.00    -0.270 N 
ATOM      7  C   UNL     1      -1.134   0.958  24.188  0.00  0.00    +0.116 C 
ATOM      8  C   UNL     1      -1.828   1.123  24.603  0.00  0.00    +0.119 C 
ATOM      9  C   UNL     1      -2.063   0.435  24.992  0.00  0.00    +0.053 C 
ATOM     10  C   UNL     1      -1.514  -0.156  24.818  0.00  0.00    +0.154 C 
ENDROOT
BRANCH  10  11
ATOM     11  C   UNL     1      -1.536  -0.934  25.093  0.00  0.00    +0.244 C 
ATOM     12  O   UNL     1      -0.886  -1.248  25.493  0.00  0.00    -0.273 OA
ATOM     13  N   UNL     1      -2.206  -1.397  24.967  0.00  0.00    -0.268 N 
ATOM     14  C   UNL     1      -2.228  -2.175  25.242  0.00  0.00    +0.115 C 
BRANCH  13  15
ATOM     15  C   UNL     1      -2.856  -1.083  24.567  0.00  0.00    +0.183 C 
BRANCH  15  16
ATOM     16  C   UNL     1      -3.552  -1.521  24.503  0.00  0.00    +0.281 C 
ATOM     17  N   UNL     1      -3.732  -1.911  23.799  0.00  0.00    -0.086 NA
ATOM     18  O   UNL     1      -4.070  -1.568  25.144  0.00  0.00    -0.270 OA
ENDBRANCH  15  16
ENDBRANCH  13  15
ENDBRANCH  10  11
BRANCH   8  19
ATOM     19  N   UNL     1      -2.218   1.849  24.624  0.00  0.00    -0.187 NA
ATOM     20  C   UNL     1      -2.585   2.142  23.945  0.00  0.00    +0.344 C 
ATOM     21  O   UNL     1      -2.561   1.708  23.245  0.00  0.00    -0.249 OA
ATOM     22  N   UNL     1      -2.976   2.869  23.968  0.00  0.00    -0.159 NA
BRANCH  22  23
ATOM     23  C   UNL     1      -3.000   3.302  24.669  0.00  0.00    +0.102 A 
ATOM     24  C   UNL     1      -3.712   3.390  25.077  0.00  0.00    +0.158 A 
ATOM     25  F   UNL     1      -4.400   3.043  24.783  0.00  0.00    -0.203 F 
ATOM     26  C   UNL     1      -3.734   3.824  25.778  0.00  0.00    +0.061 A 
ATOM     27  C   UNL     1      -3.045   4.170  26.072  0.00  0.00    +0.142 A 
ATOM     28  F   UNL     1      -3.068   4.604  26.773  0.00  0.00    -0.204 F 
ATOM     29  C   UNL     1      -2.334   4.083  25.663  0.00  0.00    +0.031 A 
ATOM     30  C   UNL     1      -2.310   3.649  24.962  0.00  0.00    +0.021 A 
ENDBRANCH  22  23
ENDBRANCH   8  19
BRANCH   4   3
ATOM      3  C   UNL     1       0.242   0.166  23.519  0.00  0.00    +0.143 C 
BRANCH   3   2
ATOM      1  C   UNL     1       1.426   0.157  22.719  0.00  0.00    +0.070 C 
ATOM      2  S   UNL     1       0.844  -0.250  23.139  0.00  0.00    -0.130 S 
ENDBRANCH   3   2
ENDBRANCH   4   3
TORSDOF 7
ENDMDL
MODEL 8
REMARK VINA RESULT:      -9.2      1.739      2.308
REMARK  Name = 
REMARK  7 active torsions:
REMARK  status: ('A' for Active; 'I' for Inactive)
REMARK    1  A    between atoms: S_2  and  C_3
REMARK    2  A    between atoms: C_3  and  C_4
REMARK    3  A    between atoms: C_8  and  N_19
REMARK    4  A    between atoms: C_10  and  C_11
REMARK    5  A    between atoms: N_13  and  C_15
REMARK    6  A    between atoms: C_15  and  C_16
REMARK    7  A    between atoms: N_22  and  C_23
REMARK                            x       y       z     vdW  Elec       q    Type
REMARK                         _______ _______ _______ _____ _____    ______ ____
ROOT
ATOM      4  C   UNL     1      -2.681  -1.230  24.546  0.00  0.00    +0.237 C 
ATOM      5  O   UNL     1      -2.131  -1.841  24.619  0.00  0.00    -0.274 OA
ATOM      6  N   UNL     1      -2.442  -0.447  24.641  0.00  0.00    -0.270 N 
ATOM      7  C   UNL     1      -2.927   0.219  24.584  0.00  0.00    +0.116 C 
ATOM      8  C   UNL     1      -2.461   0.886  24.716  0.00  0.00    +0.119 C 
ATOM      9  C   UNL     1      -1.688   0.633  24.855  0.00  0.00    +0.053 C 
ATOM     10  C   UNL     1      -1.676  -0.190  24.809  0.00  0.00    +0.154 C 
ENDROOT
BRANCH  10  11
ATOM     11  C   UNL     1      -1.015  -0.672  24.912  0.00  0.00    +0.244 C 
ATOM     12  O   UNL     1      -1.021  -1.262  25.490  0.00  0.00    -0.273 OA
ATOM     13  N   UNL     1      -0.349  -0.566  24.438  0.00  0.00    -0.268 N 
ATOM     14  C   UNL     1       0.312  -1.048  24.541  0.00  0.00    +0.115 C 
BRANCH  13  15
ATOM     15  C   UNL     1      -0.343   0.024  23.860  0.00  0.00    +0.183 C 
BRANCH  15  16
ATOM     16  C   UNL     1       0.343   0.171  23.427  0.00  0.00    +0.281 C 
ATOM     17  N   UNL     1       0.525  -0.294  22.770  0.00  0.00    -0.086 NA
ATOM     18  O   UNL     1       0.848   0.783  23.651  0.00  0.00    -0.270 OA
ENDBRANCH  15  16
ENDBRANCH  13  15
ENDBRANCH  10  11
BRANCH   8  19
ATOM     19  N   UNL     1      -2.722   1.669  24.711  0.00  0.00    -0.187 NA
ATOM     20  C   UNL     1      -2.993   2.009  24.010  0.00  0.00    +0.344 C 
ATOM     21  O   UNL     1      -3.003   1.567  23.314  0.00  0.00    -0.249 OA
ATOM     22  N   UNL     1      -3.253   2.792  24.005  0.00  0.00    -0.159 NA
BRANCH  22  23
ATOM     23  C   UNL     1      -3.243   3.234  24.701  0.00  0.00    +0.102 A 
ATOM     24  C   UNL     1      -3.951   3.430  25.077  0.00  0.00    +0.158 A 
ATOM     25  F   UNL     1      -4.669   3.184  24.756  0.00  0.00    -0.203 F 
ATOM     26  C   UNL     1      -3.939   3.872  25.773  0.00  0.00    +0.061 A 
ATOM     27  C   UNL     1      -3.219   4.119  26.094  0.00  0.00    +0.142 A 
ATOM     28  F   UNL     1      -3.209   4.561  26.790  0.00  0.00    -0.204 F 
ATOM     29  C   UNL     1      -2.512   3.923  25.718  0.00  0.00    +0.031 A 
ATOM     30  C   UNL     1      -2.523   3.481  25.022  0.00  0.00    +0.021 A 
ENDBRANCH  22  23
ENDBRANCH   8  19
BRANCH   4   3
ATOM      3  C   UNL     1      -3.470  -1.403  24.379  0.00  0.00    +0.143 C 
BRANCH   3   2
ATOM      1  C   UNL     1      -4.414  -2.342  23.859  0.00  0.00    +0.070 C 
ATOM      2  S   UNL     1      -3.702  -2.183  24.244  0.00  0.00    -0.130 S 
ENDBRANCH   3   2
ENDBRANCH   4   3
TORSDOF 7
ENDMDL
MODEL 9
REMARK VINA RESULT:      -9.2      2.488      4.365
REMARK  Name = 
REMARK  7 active torsions:
REMARK  status: ('A' for Active; 'I' for Inactive)
REMARK    1  A    between atoms: S_2  and  C_3
REMARK    2  A    between atoms: C_3  and  C_4
REMARK    3  A    between atoms: C_8  and  N_19
REMARK    4  A    between atoms: C_10  and  C_11
REMARK    5  A    between atoms: N_13  and  C_15
REMARK    6  A    between atoms: C_15  and  C_16
REMARK    7  A    between atoms: N_22  and  C_23
REMARK                            x       y       z     vdW  Elec       q    Type
REMARK                         _______ _______ _______ _____ _____    ______ ____
ROOT
ATOM      4  C   UNL     1      -1.653   2.376  25.026  0.00  0.00    +0.237 C 
ATOM      5  O   UNL     1      -1.792   3.167  24.834  0.00  0.00    -0.274 OA
ATOM      6  N   UNL     1      -2.227   1.806  24.870  0.00  0.00    -0.270 N 
ATOM      7  C   UNL     1      -2.166   0.999  25.031  0.00  0.00    +0.116 C 
ATOM      8  C   UNL     1      -2.865   0.636  24.786  0.00  0.00    +0.119 C 
ATOM      9  C   UNL     1      -3.359   1.219  24.474  0.00  0.00    +0.053 C 
ATOM     10  C   UNL     1      -2.965   1.942  24.526  0.00  0.00    +0.154 C 
ENDROOT
BRANCH  10  11
ATOM     11  C   UNL     1      -3.257   2.673  24.278  0.00  0.00    +0.244 C 
ATOM     12  O   UNL     1      -2.846   3.110  23.712  0.00  0.00    -0.273 OA
ATOM     13  N   UNL     1      -3.959   2.965  24.595  0.00  0.00    -0.268 N 
ATOM     14  C   UNL     1      -4.251   3.696  24.347  0.00  0.00    +0.115 C 
BRANCH  13  15
ATOM     15  C   UNL     1      -4.371   2.528  25.162  0.00  0.00    +0.183 C 
BRANCH  15  16
ATOM     16  C   UNL     1      -5.083   2.811  25.464  0.00  0.00    +0.281 C 
ATOM     17  N   UNL     1      -5.085   3.304  26.126  0.00  0.00    -0.086 NA
ATOM     18  O   UNL     1      -5.796   2.602  25.104  0.00  0.00    -0.270 OA
ENDBRANCH  15  16
ENDBRANCH  13  15
ENDBRANCH  10  11
BRANCH   8  19
ATOM     19  N   UNL     1      -3.041  -0.168  24.843  0.00  0.00    -0.187 NA
ATOM     20  C   UNL     1      -2.858  -0.583  25.533  0.00  0.00    +0.344 C 
ATOM     21  O   UNL     1      -2.499  -0.193  26.165  0.00  0.00    -0.249 OA
ATOM     22  N   UNL     1      -3.033  -1.387  25.589  0.00  0.00    -0.159 NA
BRANCH  22  23
ATOM     23  C   UNL     1      -3.392  -1.776  24.957  0.00  0.00    +0.102 A 
ATOM     24  C   UNL     1      -3.028  -2.434  24.617  0.00  0.00    +0.158 A 
ATOM     25  F   UNL     1      -2.306  -2.703  24.909  0.00  0.00    -0.203 F 
ATOM     26  C   UNL     1      -3.387  -2.822  23.984  0.00  0.00    +0.061 A 
ATOM     27  C   UNL     1      -4.110  -2.553  23.690  0.00  0.00    +0.142 A 
ATOM     28  F   UNL     1      -4.469  -2.942  23.058  0.00  0.00    -0.204 F 
ATOM     29  C   UNL     1      -4.473  -1.895  24.031  0.00  0.00    +0.031 A 
ATOM     30  C   UNL     1      -4.115  -1.507  24.663  0.00  0.00    +0.021 A 
ENDBRANCH  22  23
ENDBRANCH   8  19
BRANCH   4   3
ATOM      3  C   UNL     1      -0.938   2.157  25.374  0.00  0.00    +0.143 C 
BRANCH   3   2
ATOM      1  C   UNL     1       0.210   2.517  26.145  0.00  0.00    +0.070 C 
ATOM      2  S   UNL     1      -0.429   2.734  25.671  0.00  0.00    -0.130 S 
ENDBRANCH   3   2
ENDBRANCH   4   3
TORSDOF 7
ENDMDL
