MODEL 1
REMARK VINA RESULT:     -13.4      0.000      0.000
REMARK  Name = 
REMARK  6 active torsions:
REMARK  status: ('A' for Active; 'I' for Inactive)
REMARK    1  A    between atoms: C_7  and  C_8
REMARK    2  A    between atoms: C_11  and  C_13
REMARK    3  A    between atoms: N_16  and  C_17
REMARK    4  A    between atoms: C_17  and  C_18
REMARK    5  A    between atoms: C_22  and  O_23
REMARK    6  A    between atoms: O_23  and  C_24
REMARK                            x       y       z     vdW  Elec       q    Type
REMARK                         _______ _______ _______ _____ _____    ______ ____
ROOT
ATOM     13  C   UNL     1      -3.931   2.061  24.700  0.00  0.00    +0.096 C 
ATOM     14  C   UNL     1      -3.967   2.545  24.033  0.00  0.00    +0.028 C 
ATOM     15  C   UNL     1      -3.624   3.270  24.224  0.00  0.00    +0.073 C 
ATOM     16  N   UNL     1      -3.375   3.235  25.011  0.00  0.00    -0.268 NA
ATOM     29  C   UNL     1      -3.565   2.487  25.305  0.00  0.00    +0.082 C 
ENDROOT
BRANCH  13  11
ATOM      8  C   UNL     1      -4.269  -0.047  24.735  0.00  0.00    +0.252 A 
ATOM      9  N   UNL     1      -5.016   0.238  24.936  0.00  0.00    -0.107 NA
ATOM     10  N   UNL     1      -4.981   1.063  24.948  0.00  0.00    -0.111 NA
ATOM     11  C   UNL     1      -4.211   1.288  24.754  0.00  0.00    +0.227 A 
ATOM     12  O   UNL     1      -3.771   0.602  24.622  0.00  0.00    -0.419 OA
BRANCH   8   7
ATOM      1  F   UNL     1      -3.537  -0.827  25.991  0.00  0.00    -0.204 F 
ATOM      2  C   UNL     1      -3.690  -1.230  25.288  0.00  0.00    +0.145 A 
ATOM      3  C   UNL     1      -3.477  -2.024  25.213  0.00  0.00    +0.030 A 
ATOM      4  C   UNL     1      -3.631  -2.427  24.509  0.00  0.00    +0.002 A 
ATOM      5  C   UNL     1      -3.996  -2.037  23.882  0.00  0.00    +0.000 A 
ATOM      6  C   UNL     1      -4.209  -1.243  23.957  0.00  0.00    +0.007 A 
ATOM      7  C   UNL     1      -4.056  -0.840  24.660  0.00  0.00    +0.083 A 
ENDBRANCH   8   7
ENDBRANCH  13  11
BRANCH  16  17
ATOM     17  C   UNL     1      -3.002   3.840  25.429  0.00  0.00    +0.099 C 
BRANCH  17  18
ATOM     18  C   UNL     1      -2.183   3.929  25.385  0.00  0.00    -0.003 A 
ATOM     19  C   UNL     1      -1.858   4.539  24.935  0.00  0.00    -0.003 A 
ATOM     20  C   UNL     1      -1.040   4.628  24.890  0.00  0.00    +0.003 A 
ATOM     21  C   UNL     1      -0.546   4.107  25.296  0.00  0.00    +0.037 A 
ATOM     22  C   UNL     1      -0.871   3.496  25.746  0.00  0.00    +0.147 A 
ATOM     28  C   UNL     1      -1.690   3.407  25.790  0.00  0.00    +0.034 A 
BRANCH  22  23
ATOM     23  O   UNL     1      -0.376   2.974  26.151  0.00  0.00    -0.404 OA
BRANCH  23  24
ATOM     24  C   UNL     1      -0.119   2.281  25.785  0.00  0.00    +0.575 C 
ATOM     25  F   UNL     1       0.137   1.588  25.419  0.00  0.00    -0.133 F 
ATOM     26  F   UNL     1      -0.690   1.852  26.197  0.00  0.00    -0.133 F 
ATOM     27  F   UNL     1       0.452   2.710  25.372  0.00  0.00    -0.133 F 
ENDBRANCH  23  24
ENDBRANCH  22  23
ENDBRANCH  17  18
ENDBRANCH  16  17
TORSDOF 6
ENDMDL
MODEL 2
REMARK VINA RESULT:     -13.2      1.370      1.875
REMARK  Name = 
REMARK  6 active torsions:
REMARK  status: ('A' for Active; 'I' for Inactive)
REMARK    1  A    between atoms: C_7  and  C_8
REMARK    2  A    between atoms: C_11  and  C_13
REMARK    3  A    between atoms: N_16  and  C_17
REMARK    4  A    between atoms: C_17  and  C_18
REMARK    5  A    between atoms: C_22  and  O_23
REMARK    6  A    between atoms: O_23  and  C_24
REMARK                            x       y       z     vdW  Elec       q    Type
REMARK                         _______ _______ _______ _____ _____    ______ ____
ROOT
ATOM     13  C   UNL     1      -3.683   1.335  24.043  0.00  0.00    +0.096 C 
ATOM     14  C   UNL     1      -3.177   1.482  23.408  0.00  0.00    +0.028 C 
ATOM     15  C   UNL     1      -3.056   2.296  23.362  0.00  0.00    +0.073 C 
ATOM     16  N   UNL     1      -3.487   2.653  23.968  0.00  0.00    -0.268 NA
ATOM     29  C   UNL     1      -3.875   2.059  24.389  0.00  0.00    +0.082 C 
ENDROOT
BRANCH  13  11
ATOM      8  C   UNL     1      -4.007  -0.716  24.541  0.00  0.00    +0.252 A 
ATOM      9  N   UNL     1      -4.716  -0.378  24.791  0.00  0.00    -0.107 NA
ATOM     10  N   UNL     1      -4.681   0.432  24.635  0.00  0.00    -0.111 NA
ATOM     11  C   UNL     1      -3.950   0.594  24.288  0.00  0.00    +0.227 A 
ATOM     12  O   UNL     1      -3.533  -0.116  24.230  0.00  0.00    -0.419 OA
BRANCH   8   7
ATOM      1  F   UNL     1      -4.387  -1.743  23.306  0.00  0.00    -0.204 F 
ATOM      2  C   UNL     1      -3.996  -2.028  23.974  0.00  0.00    +0.145 A 
ATOM      3  C   UNL     1      -3.795  -2.827  24.025  0.00  0.00    +0.030 A 
ATOM      4  C   UNL     1      -3.403  -3.112  24.694  0.00  0.00    +0.002 A 
ATOM      5  C   UNL     1      -3.213  -2.599  25.311  0.00  0.00    +0.000 A 
ATOM      6  C   UNL     1      -3.414  -1.799  25.259  0.00  0.00    +0.007 A 
ATOM      7  C   UNL     1      -3.805  -1.515  24.592  0.00  0.00    +0.083 A 
ENDBRANCH   8   7
ENDBRANCH  13  11
BRANCH  16  17
ATOM     17  C   UNL     1      -3.524   3.462  24.126  0.00  0.00    +0.099 C 
BRANCH  17  18
ATOM     18  C   UNL     1      -3.169   3.767  24.805  0.00  0.00    -0.003 A 
ATOM     19  C   UNL     1      -3.621   3.900  25.482  0.00  0.00    -0.003 A 
ATOM     20  C   UNL     1      -3.267   4.205  26.161  0.00  0.00    +0.003 A 
ATOM     21  C   UNL     1      -2.460   4.377  26.163  0.00  0.00    +0.037 A 
ATOM     22  C   UNL     1      -2.008   4.244  25.486  0.00  0.00    +0.147 A 
ATOM     28  C   UNL     1      -2.363   3.939  24.807  0.00  0.00    +0.034 A 
BRANCH  22  23
ATOM     23  O   UNL     1      -1.201   4.417  25.489  0.00  0.00    -0.404 OA
BRANCH  23  24
ATOM     24  C   UNL     1      -0.896   4.969  24.957  0.00  0.00    +0.575 C 
ATOM     25  F   UNL     1      -0.591   5.521  24.425  0.00  0.00    -0.133 F 
ATOM     26  F   UNL     1      -0.557   4.359  24.518  0.00  0.00    -0.133 F 
ATOM     27  F   UNL     1      -1.235   5.580  25.396  0.00  0.00    -0.133 F 
ENDBRANCH  23  24
ENDBRANCH  22  23
ENDBRANCH  17  18
ENDBRANCH  16  17
TORSDOF 6
ENDMDL
MODEL 3
REMARK VINA RESULT:     -12.8      2.008      5.534
REMARK  Name = 
REMARK  6 active torsions:
REMARK  status: ('A' for Active; 'I' for Inactive)
REMARK    1  A    between atoms: C_7  and  C_8
REMARK    2  A    between atoms: C_11  and  C_13
REMARK    3  A    between atoms: N_16  and  C_17
REMARK    4  A    between atoms: C_17  and  C_18
REMARK    5  A    between atoms: C_22  and  O_23
REMARK    6  A    between atoms: O_23  and  C_24
REMARK                            x       y       z     vdW  Elec       q    Type
REMARK                         _______ _______ _______ _____ _____    ______ ____
ROOT
ATOM     13  C   UNL     1      -0.694   0.841  25.206  0.00  0.00    +0.096 C 
ATOM     14  C   UNL     1      -0.462   0.535  24.475  0.00  0.00    +0.028 C 
ATOM     15  C   UNL     1      -0.623  -0.274  24.474  0.00  0.00    +0.073 C 
ATOM     16  N   UNL     1      -0.955  -0.468  25.205  0.00  0.00    -0.268 NA
ATOM     29  C   UNL     1      -0.998   0.221  25.657  0.00  0.00    +0.082 C 
ENDROOT
BRANCH  13  11
ATOM      8  C   UNL     1      -0.814   2.949  25.524  0.00  0.00    +0.252 A 
ATOM      9  N   UNL     1      -0.259   2.733  26.094  0.00  0.00    -0.107 NA
ATOM     10  N   UNL     1      -0.146   1.917  26.044  0.00  0.00    -0.111 NA
ATOM     11  C   UNL     1      -0.632   1.628  25.443  0.00  0.00    +0.227 A 
ATOM     12  O   UNL     1      -1.045   2.266  25.121  0.00  0.00    -0.419 OA
BRANCH   8   7
ATOM      1  F   UNL     1      -2.272   3.426  26.131  0.00  0.00    -0.204 F 
ATOM      2  C   UNL     1      -1.820   3.951  25.684  0.00  0.00    +0.145 A 
ATOM      3  C   UNL     1      -2.096   4.716  25.540  0.00  0.00    +0.030 A 
ATOM      4  C   UNL     1      -1.643   5.241  25.093  0.00  0.00    +0.002 A 
ATOM      5  C   UNL     1      -0.914   5.003  24.790  0.00  0.00    +0.000 A 
ATOM      6  C   UNL     1      -0.638   4.238  24.934  0.00  0.00    +0.007 A 
ATOM      7  C   UNL     1      -1.090   3.713  25.380  0.00  0.00    +0.083 A 
ENDBRANCH   8   7
ENDBRANCH  13  11
BRANCH  16  17
ATOM     17  C   UNL     1      -1.199  -1.219  25.441  0.00  0.00    +0.099 C 
BRANCH  17  18
ATOM     18  C   UNL     1      -1.873  -1.559  25.107  0.00  0.00    -0.003 A 
ATOM     19  C   UNL     1      -1.799  -2.197  24.589  0.00  0.00    -0.003 A 
ATOM     20  C   UNL     1      -2.471  -2.536  24.255  0.00  0.00    +0.003 A 
ATOM     21  C   UNL     1      -3.219  -2.238  24.438  0.00  0.00    +0.037 A 
ATOM     22  C   UNL     1      -3.292  -1.600  24.956  0.00  0.00    +0.147 A 
ATOM     28  C   UNL     1      -2.619  -1.260  25.290  0.00  0.00    +0.034 A 
BRANCH  22  23
ATOM     23  O   UNL     1      -4.040  -1.301  25.139  0.00  0.00    -0.404 OA
BRANCH  23  24
ATOM     24  C   UNL     1      -4.377  -0.715  24.666  0.00  0.00    +0.575 C 
ATOM     25  F   UNL     1      -4.713  -0.128  24.193  0.00  0.00    -0.133 F 
ATOM     26  F   UNL     1      -4.148  -0.142  25.213  0.00  0.00    -0.133 F 
ATOM     27  F   UNL     1      -4.605  -1.288  24.118  0.00  0.00    -0.133 F 
ENDBRANCH  23  24
ENDBRANCH  22  23
ENDBRANCH  17  18
ENDBRANCH  16  17
TORSDOF 6
ENDMDL
MODEL 4
REMARK VINA RESULT:     -12.7      2.241      2.944
REMARK  Name = 
REMARK  6 active torsions:
REMARK  status: ('A' for Active; 'I' for Inactive)
REMARK    1  A    between atoms: C_7  and  C_8
REMARK    2  A    between atoms: C_11  and  C_13
REMARK    3  A    between atoms: N_16  and  C_17
REMARK    4  A    between atoms: C_17  and  C_18
REMARK    5  A    between atoms: C_22  and  O_23
REMARK    6  A    between atoms: O_23  and  C_24
REMARK                            x       y       z     vdW  Elec       q    Type
REMARK                         _______ _______ _______ _____ _____    ______ ____
ROOT
ATOM     13  C   UNL     1      -0.630   0.799  24.934  0.00  0.00    +0.096 C 
ATOM     14  C   UNL     1      -0.279   1.164  24.282  0.00  0.00    +0.028 C 
ATOM     15  C   UNL     1      -0.124   1.949  24.482  0.00  0.00    +0.073 C 
ATOM     16  N   UNL     1      -0.379   2.070  25.258  0.00  0.00    -0.268 NA
ATOM     29  C   UNL     1      -0.692   1.359  25.537  0.00  0.00    +0.082 C 
ENDROOT
BRANCH  13  11
ATOM      8  C   UNL     1      -1.642  -1.080  24.964  0.00  0.00    +0.252 A 
ATOM      9  N   UNL     1      -0.866  -1.315  25.115  0.00  0.00    -0.107 NA
ATOM     10  N   UNL     1      -0.392  -0.639  25.122  0.00  0.00    -0.111 NA
ATOM     11  C   UNL     1      -0.875   0.013  24.975  0.00  0.00    +0.227 A 
ATOM     12  O   UNL     1      -1.648  -0.259  24.878  0.00  0.00    -0.419 OA
BRANCH   8   7
ATOM      1  F   UNL     1      -1.605  -2.382  23.951  0.00  0.00    -0.204 F 
ATOM      2  C   UNL     1      -2.278  -2.229  24.401  0.00  0.00    +0.145 A 
ATOM      3  C   UNL     1      -2.935  -2.728  24.346  0.00  0.00    +0.030 A 
ATOM      4  C   UNL     1      -3.608  -2.575  24.798  0.00  0.00    +0.002 A 
ATOM      5  C   UNL     1      -3.627  -1.924  25.304  0.00  0.00    +0.000 A 
ATOM      6  C   UNL     1      -2.970  -1.426  25.359  0.00  0.00    +0.007 A 
ATOM      7  C   UNL     1      -2.297  -1.579  24.908  0.00  0.00    +0.083 A 
ENDBRANCH   8   7
ENDBRANCH  13  11
BRANCH  16  17
ATOM     17  C   UNL     1      -0.330   2.777  25.679  0.00  0.00    +0.099 C 
BRANCH  17  18
ATOM     18  C   UNL     1      -0.898   3.365  25.567  0.00  0.00    -0.003 A 
ATOM     19  C   UNL     1      -0.720   4.029  25.112  0.00  0.00    -0.003 A 
ATOM     20  C   UNL     1      -1.287   4.616  25.000  0.00  0.00    +0.003 A 
ATOM     21  C   UNL     1      -2.033   4.540  25.344  0.00  0.00    +0.037 A 
ATOM     22  C   UNL     1      -2.211   3.876  25.799  0.00  0.00    +0.147 A 
ATOM     28  C   UNL     1      -1.643   3.288  25.911  0.00  0.00    +0.034 A 
BRANCH  22  23
ATOM     23  O   UNL     1      -2.958   3.799  26.143  0.00  0.00    -0.404 OA
BRANCH  23  24
ATOM     24  C   UNL     1      -3.624   3.710  25.665  0.00  0.00    +0.575 C 
ATOM     25  F   UNL     1      -4.291   3.622  25.187  0.00  0.00    -0.133 F 
ATOM     26  F   UNL     1      -3.757   4.524  25.698  0.00  0.00    -0.133 F 
ATOM     27  F   UNL     1      -3.492   2.896  25.631  0.00  0.00    -0.133 F 
ENDBRANCH  23  24
ENDBRANCH  22  23
ENDBRANCH  17  18
ENDBRANCH  16  17
TORSDOF 6
ENDMDL
MODEL 5
REMARK VINA RESULT:     -12.6      1.641      4.877
REMARK  Name = 
REMARK  6 active torsions:
REMARK  status: ('A' for Active; 'I' for Inactive)
REMARK    1  A    between atoms: C_7  and  C_8
REMARK    2  A    between atoms: C_11  and  C_13
REMARK    3  A    between atoms: N_16  and  C_17
REMARK    4  A    between atoms: C_17  and  C_18
REMARK    5  A    between atoms: C_22  and  O_23
REMARK    6  A    between atoms: O_23  and  C_24
REMARK                            x       y       z     vdW  Elec       q    Type
REMARK                         _______ _______ _______ _____ _____    ______ ____
ROOT
ATOM     13  C   UNL     1      -3.944   1.191  24.527  0.00  0.00    +0.096 C 
ATOM     14  C   UNL     1      -4.477   0.897  25.084  0.00  0.00    +0.028 C 
ATOM     15  C   UNL     1      -4.582   0.092  24.937  0.00  0.00    +0.073 C 
ATOM     16  N   UNL     1      -4.114  -0.112  24.288  0.00  0.00    -0.268 NA
ATOM     29  C   UNL     1      -3.719   0.567  24.035  0.00  0.00    +0.082 C 
ENDROOT
BRANCH  13  11
ATOM      8  C   UNL     1      -2.941   3.074  24.601  0.00  0.00    +0.252 A 
ATOM      9  N   UNL     1      -3.617   3.270  24.171  0.00  0.00    -0.107 NA
ATOM     10  N   UNL     1      -4.075   2.588  24.090  0.00  0.00    -0.111 NA
ATOM     11  C   UNL     1      -3.682   1.971  24.471  0.00  0.00    +0.227 A 
ATOM     12  O   UNL     1      -2.981   2.271  24.787  0.00  0.00    -0.419 OA
BRANCH   8   7
ATOM      1  F   UNL     1      -3.194   4.225  25.757  0.00  0.00    -0.204 F 
ATOM      2  C   UNL     1      -2.459   4.165  25.388  0.00  0.00    +0.145 A 
ATOM      3  C   UNL     1      -1.849   4.681  25.597  0.00  0.00    +0.030 A 
ATOM      4  C   UNL     1      -1.114   4.621  25.227  0.00  0.00    +0.002 A 
ATOM      5  C   UNL     1      -0.987   4.046  24.650  0.00  0.00    +0.000 A 
ATOM      6  C   UNL     1      -1.597   3.530  24.441  0.00  0.00    +0.007 A 
ATOM      7  C   UNL     1      -2.332   3.590  24.810  0.00  0.00    +0.083 A 
ENDBRANCH   8   7
ENDBRANCH  13  11
BRANCH  16  17
ATOM     17  C   UNL     1      -4.051  -0.863  23.953  0.00  0.00    +0.099 C 
BRANCH  17  18
ATOM     18  C   UNL     1      -3.558  -1.428  24.296  0.00  0.00    -0.003 A 
ATOM     19  C   UNL     1      -3.881  -2.032  24.756  0.00  0.00    -0.003 A 
ATOM     20  C   UNL     1      -3.389  -2.597  25.099  0.00  0.00    +0.003 A 
ATOM     21  C   UNL     1      -2.573  -2.560  24.982  0.00  0.00    +0.037 A 
ATOM     22  C   UNL     1      -2.250  -1.956  24.522  0.00  0.00    +0.147 A 
ATOM     28  C   UNL     1      -2.743  -1.390  24.179  0.00  0.00    +0.034 A 
BRANCH  22  23
ATOM     23  O   UNL     1      -1.434  -1.918  24.406  0.00  0.00    -0.404 OA
BRANCH  23  24
ATOM     24  C   UNL     1      -0.937  -1.716  25.032  0.00  0.00    +0.575 C 
ATOM     25  F   UNL     1      -0.440  -1.513  25.659  0.00  0.00    -0.133 F 
ATOM     26  F   UNL     1      -1.007  -0.919  24.831  0.00  0.00    -0.133 F 
ATOM     27  F   UNL     1      -0.866  -2.513  25.235  0.00  0.00    -0.133 F 
ENDBRANCH  23  24
ENDBRANCH  22  23
ENDBRANCH  17  18
ENDBRANCH  16  17
TORSDOF 6
ENDMDL
