MODEL 1
REMARK VINA RESULT:     -14.2      0.000      0.000
REMARK  Name = 
REMARK  4 active torsions:
REMARK  status: ('A' for Active; 'I' for Inactive)
REMARK    1  A    between atoms: S_2  and  N_5
REMARK    2  A    between atoms: C_14  and  N_15
REMARK    3  A    between atoms: C_16  and  C_18
REMARK    4  A    between atoms: C_18  and  C_19
REMARK                            x       y       z     vdW  Elec       q    Type
REMARK                         _______ _______ _______ _____ _____    ______ ____
ROOT
ATOM      5  N   UNL     1      -2.735   4.213  25.321  0.00  0.00    -0.159 NA
ATOM      6  C   UNL     1      -2.191   4.846  25.366  0.00  0.00    +0.097 C 
ATOM      7  C   UNL     1      -1.357   4.363  25.150  0.00  0.00    +0.041 C 
ATOM      8  C   UNL     1      -0.597   4.117  24.991  0.00  0.00    +0.011 C 
ATOM      9  C   UNL     1      -1.237   3.832  25.028  0.00  0.00    +0.056 C 
ATOM     10  C   UNL     1      -2.035   4.313  25.239  0.00  0.00    +0.101 C 
ATOM     11  C   UNL     1      -1.675   3.030  24.934  0.00  0.00    +0.041 A 
ATOM     12  C   UNL     1      -1.530   2.237  24.757  0.00  0.00    +0.014 A 
ATOM     13  C   UNL     1      -2.153   1.697  24.742  0.00  0.00    +0.023 A 
ATOM     14  C   UNL     1      -2.922   1.949  24.904  0.00  0.00    +0.129 A 
ATOM     25  C   UNL     1      -3.067   2.742  25.081  0.00  0.00    +0.276 A 
ATOM     26  O   UNL     1      -3.836   2.994  25.242  0.00  0.00    -0.266 OA
ATOM     27  N   UNL     1      -2.444   3.282  25.096  0.00  0.00    -0.298 N 
ATOM     28  C   UNL     1      -1.823   3.529  25.054  0.00  0.00    +0.110 C 
ENDROOT
BRANCH   5   2
ATOM      1  C   UNL     1      -4.181   3.419  25.376  0.00  0.00    +0.196 C 
ATOM      2  S   UNL     1      -3.458   3.816  25.349  0.00  0.00    +0.046 S 
ATOM      3  O   UNL     1      -3.566   3.956  24.543  0.00  0.00    -0.157 OA
ATOM      4  O   UNL     1      -3.351   3.676  26.155  0.00  0.00    -0.157 OA
ENDBRANCH   5   2
BRANCH  14  15
ATOM     15  N   UNL     1      -3.544   1.409  24.888  0.00  0.00    -0.174 NA
ATOM     16  C   UNL     1      -3.438   0.667  24.544  0.00  0.00    +0.250 C 
ATOM     17  O   UNL     1      -2.709   0.465  24.215  0.00  0.00    -0.273 OA
BRANCH  16  18
ATOM     18  C   UNL     1      -4.062   0.126  24.529  0.00  0.00    +0.113 C 
BRANCH  18  19
ATOM     19  C   UNL     1      -3.912  -0.680  24.624  0.00  0.00    -0.013 A 
ATOM     20  C   UNL     1      -3.984  -1.191  23.980  0.00  0.00    -0.004 A 
ATOM     21  C   UNL     1      -3.833  -1.996  24.075  0.00  0.00    -0.000 A 
ATOM     22  C   UNL     1      -3.611  -2.290  24.813  0.00  0.00    -0.000 A 
ATOM     23  C   UNL     1      -3.539  -1.779  25.457  0.00  0.00    -0.000 A 
ATOM     24  C   UNL     1      -3.689  -0.974  25.362  0.00  0.00    -0.004 A 
ENDBRANCH  18  19
ENDBRANCH  16  18
ENDBRANCH  14  15
TORSDOF 4
ENDMDL
MODEL 2
REMARK VINA RESULT:     -14.0      1.374      2.278
REMARK  Name = 
REMARK  4 active torsions:
REMARK  status: ('A' for Active; 'I' for Inactive)
REMARK    1  A    between atoms: S_2  and  N_5
REMARK    2  A    between atoms: C_14  and  N_15
REMARK    3  A    between atoms: C_16  and  C_18
REMARK    4  A    between atoms: C_18  and  C_19
REMARK                            x       y       z     vdW  Elec       q    Type
REMARK                         _______ _______ _______ _____ _____    ______ ____
ROOT
ATOM      5  N   UNL     1      -3.531   3.330  24.908  0.00  0.00    -0.159 NA
ATOM      6  C   UNL     1      -3.807   4.034  25.263  0.00  0.00    +0.097 C 
ATOM      7  C   UNL     1      -4.719   3.747  25.513  0.00  0.00    +0.041 C 
ATOM      8  C   UNL     1      -5.484   3.668  25.781  0.00  0.00    +0.011 C 
ATOM      9  C   UNL     1      -5.005   3.272  25.456  0.00  0.00    +0.056 C 
ATOM     10  C   UNL     1      -4.127   3.564  25.221  0.00  0.00    +0.101 C 
ATOM     11  C   UNL     1      -4.881   2.429  25.110  0.00  0.00    +0.041 A 
ATOM     12  C   UNL     1      -5.278   1.713  25.009  0.00  0.00    +0.014 A 
ATOM     13  C   UNL     1      -4.900   1.081  24.639  0.00  0.00    +0.023 A 
ATOM     14  C   UNL     1      -4.124   1.164  24.370  0.00  0.00    +0.129 A 
ATOM     25  C   UNL     1      -3.727   1.880  24.470  0.00  0.00    +0.276 A 
ATOM     26  O   UNL     1      -2.952   1.963  24.201  0.00  0.00    -0.266 OA
ATOM     27  N   UNL     1      -4.106   2.512  24.840  0.00  0.00    -0.298 N 
ATOM     28  C   UNL     1      -4.580   2.869  25.149  0.00  0.00    +0.110 C 
ENDROOT
BRANCH   5   2
ATOM      1  C   UNL     1      -2.498   2.294  24.143  0.00  0.00    +0.196 C 
ATOM      2  S   UNL     1      -3.015   2.812  24.525  0.00  0.00    +0.046 S 
ATOM      3  O   UNL     1      -3.309   3.058  23.795  0.00  0.00    -0.157 OA
ATOM      4  O   UNL     1      -2.721   2.565  25.256  0.00  0.00    -0.157 OA
ENDBRANCH   5   2
BRANCH  14  15
ATOM     15  N   UNL     1      -3.747   0.531  24.000  0.00  0.00    -0.174 NA
ATOM     16  C   UNL     1      -4.054  -0.231  24.070  0.00  0.00    +0.250 C 
ATOM     17  O   UNL     1      -4.740  -0.361  24.510  0.00  0.00    -0.273 OA
BRANCH  16  18
ATOM     18  C   UNL     1      -3.676  -0.865  23.700  0.00  0.00    +0.113 C 
BRANCH  18  19
ATOM     19  C   UNL     1      -3.554  -1.570  24.110  0.00  0.00    -0.013 A 
ATOM     20  C   UNL     1      -2.959  -1.618  24.680  0.00  0.00    -0.004 A 
ATOM     21  C   UNL     1      -2.838  -2.323  25.091  0.00  0.00    -0.000 A 
ATOM     22  C   UNL     1      -3.311  -2.980  24.932  0.00  0.00    -0.000 A 
ATOM     23  C   UNL     1      -3.905  -2.932  24.362  0.00  0.00    -0.000 A 
ATOM     24  C   UNL     1      -4.027  -2.227  23.951  0.00  0.00    -0.004 A 
ENDBRANCH  18  19
ENDBRANCH  16  18
ENDBRANCH  14  15
TORSDOF 4
ENDMDL
MODEL 3
REMARK VINA RESULT:     -13.6      1.679      4.909
REMARK  Name = 
REMARK  4 active torsions:
REMARK  status: ('A' for Active; 'I' for Inactive)
REMARK    1  A    between atoms: S_2  and  N_5
REMARK    2  A    between atoms: C_14  and  N_15
REMARK    3  A    between atoms: C_16  and  C_18
REMARK    4  A    between atoms: C_18  and  C_19
REMARK                            x       y       z     vdW  Elec       q    Type
REMARK                         _______ _______ _______ _____ _____    ______ ____
ROOT
ATOM      5  N   UNL     1      -2.124  -1.633  24.912  0.00  0.00    -0.159 NA
ATOM      6  C   UNL     1      -2.325  -2.442  24.969  0.00  0.00    +0.097 C 
ATOM      7  C   UNL     1      -3.242  -2.412  24.602  0.00  0.00    +0.041 C 
ATOM      8  C   UNL     1      -3.996  -2.554  24.329  0.00  0.00    +0.011 C 
ATOM      9  C   UNL     1      -3.567  -2.004  24.405  0.00  0.00    +0.056 C 
ATOM     10  C   UNL     1      -2.682  -2.050  24.762  0.00  0.00    +0.101 C 
ATOM     11  C   UNL     1      -3.528  -1.096  24.269  0.00  0.00    +0.041 A 
ATOM     12  C   UNL     1      -3.985  -0.471  23.984  0.00  0.00    +0.014 A 
ATOM     13  C   UNL     1      -3.678   0.295  23.977  0.00  0.00    +0.023 A 
ATOM     14  C   UNL     1      -2.913   0.435  24.254  0.00  0.00    +0.129 A 
ATOM     25  C   UNL     1      -2.457  -0.190  24.539  0.00  0.00    +0.276 A 
ATOM     26  O   UNL     1      -1.692  -0.049  24.817  0.00  0.00    -0.266 OA
ATOM     27  N   UNL     1      -2.764  -0.955  24.546  0.00  0.00    -0.298 N 
ATOM     28  C   UNL     1      -3.192  -1.463  24.463  0.00  0.00    +0.110 C 
ENDROOT
BRANCH   5   2
ATOM      1  C   UNL     1      -1.218  -0.259  25.039  0.00  0.00    +0.196 C 
ATOM      2  S   UNL     1      -1.671  -0.946  24.975  0.00  0.00    +0.046 S 
ATOM      3  O   UNL     1      -1.368  -1.077  24.219  0.00  0.00    -0.157 OA
ATOM      4  O   UNL     1      -1.975  -0.816  25.732  0.00  0.00    -0.157 OA
ENDBRANCH   5   2
BRANCH  14  15
ATOM     15  N   UNL     1      -2.607   1.201  24.247  0.00  0.00    -0.174 NA
ATOM     16  C   UNL     1      -3.115   1.848  24.195  0.00  0.00    +0.250 C 
ATOM     17  O   UNL     1      -3.930   1.731  24.151  0.00  0.00    -0.273 OA
BRANCH  16  18
ATOM     18  C   UNL     1      -2.807   2.615  24.187  0.00  0.00    +0.113 C 
BRANCH  18  19
ATOM     19  C   UNL     1      -2.897   3.102  24.847  0.00  0.00    -0.013 A 
ATOM     20  C   UNL     1      -2.237   3.323  25.289  0.00  0.00    -0.004 A 
ATOM     21  C   UNL     1      -2.327   3.810  25.949  0.00  0.00    -0.000 A 
ATOM     22  C   UNL     1      -3.077   4.076  26.166  0.00  0.00    -0.000 A 
ATOM     23  C   UNL     1      -3.737   3.855  25.724  0.00  0.00    -0.000 A 
ATOM     24  C   UNL     1      -3.647   3.368  25.064  0.00  0.00    -0.004 A 
ENDBRANCH  18  19
ENDBRANCH  16  18
ENDBRANCH  14  15
TORSDOF 4
ENDMDL
