MODEL 1
REMARK VINA RESULT:     -11.6      0.000      0.000
REMARK  Name = 
REMARK  4 active torsions:
REMARK  status: ('A' for Active; 'I' for Inactive)
REMARK    1  A    between atoms: O_2  and  C_3
REMARK    2  A    between atoms: C_8  and  C_9
REMARK    3  A    between atoms: N_11  and  C_12
REMARK    4  A    between atoms: C_18  and  C_19
REMARK                            x       y       z     vdW  Elec       q    Type
REMARK                         _______ _______ _______ _____ _____    ______ ____
ROOT
ATOM     12  C   UNL     1      -4.348   1.393  24.458  0.00  0.00    +0.133 C 
ATOM     13  C   UNL     1      -5.041   1.645  24.826  0.00  0.00    +0.202 C 
ATOM     14  O   UNL     1      -5.665   1.163  25.069  0.00  0.00    -0.219 OA
ATOM     15  C   UNL     1      -5.001   2.465  24.910  0.00  0.00    +0.184 C 
ATOM     16  O   UNL     1      -5.578   2.947  25.250  0.00  0.00    -0.220 OA
ATOM     17  C   UNL     1      -4.283   2.719  24.593  0.00  0.00    +0.042 C 
ATOM     18  C   UNL     1      -3.879   2.056  24.313  0.00  0.00    +0.049 C 
ENDROOT
BRANCH  18  19
ATOM     19  C   UNL     1      -3.137   2.058  23.953  0.00  0.00    -0.002 A 
ATOM     20  C   UNL     1      -3.072   1.944  23.139  0.00  0.00    -0.001 A 
ATOM     21  C   UNL     1      -2.330   1.946  22.779  0.00  0.00    +0.020 A 
ATOM     22  C   UNL     1      -1.652   2.062  23.234  0.00  0.00    +0.099 A 
ATOM     23  N   UNL     1      -1.716   2.177  24.048  0.00  0.00    -0.243 NA
ATOM     24  C   UNL     1      -2.458   2.175  24.409  0.00  0.00    +0.095 A 
ENDBRANCH  18  19
BRANCH  12  11
ATOM      9  C   UNL     1      -4.213   0.023  24.839  0.00  0.00    +0.268 C 
ATOM     10  O   UNL     1      -4.463   0.211  25.602  0.00  0.00    -0.268 OA
ATOM     11  N   UNL     1      -4.156   0.613  24.267  0.00  0.00    -0.200 NA
BRANCH   9   8
ATOM      3  C   UNL     1      -3.439  -1.155  25.076  0.00  0.00    +0.143 A 
ATOM      4  C   UNL     1      -3.248  -1.934  24.885  0.00  0.00    +0.037 A 
ATOM      5  C   UNL     1      -3.638  -2.316  24.267  0.00  0.00    +0.003 A 
ATOM      6  C   UNL     1      -4.221  -1.917  23.840  0.00  0.00    +0.000 A 
ATOM      7  C   UNL     1      -4.412  -1.139  24.030  0.00  0.00    +0.008 A 
ATOM      8  C   UNL     1      -4.022  -0.757  24.648  0.00  0.00    +0.089 A 
BRANCH   3   2
ATOM      1  C   UNL     1      -2.360  -1.101  26.012  0.00  0.00    +0.252 C 
ATOM      2  O   UNL     1      -3.048  -0.773  25.694  0.00  0.00    -0.471 OA
ENDBRANCH   3   2
ENDBRANCH   9   8
ENDBRANCH  12  11
TORSDOF 4
ENDMDL
MODEL 2
REMARK VINA RESULT:     -10.4      1.472      3.738
REMARK  Name = 
REMARK  4 active torsions:
REMARK  status: ('A' for Active; 'I' for Inactive)
REMARK    1  A    between atoms: O_2  and  C_3
REMARK    2  A    between atoms: C_8  and  C_9
REMARK    3  A    between atoms: N_11  and  C_12
REMARK    4  A    between atoms: C_18  and  C_19
REMARK                            x       y       z     vdW  Elec       q    Type
REMARK                         _______ _______ _______ _____ _____    ______ ____
ROOT
ATOM     12  C   UNL     1      -3.451  -1.065  24.618  0.00  0.00    +0.133 C 
ATOM     13  C   UNL     1      -4.000  -1.597  24.310  0.00  0.00    +0.202 C 
ATOM     14  O   UNL     1      -4.775  -1.422  24.088  0.00  0.00    -0.219 OA
ATOM     15  C   UNL     1      -3.638  -2.338  24.264  0.00  0.00    +0.184 C 
ATOM     16  O   UNL     1      -3.988  -3.032  23.986  0.00  0.00    -0.220 OA
ATOM     17  C   UNL     1      -2.866  -2.262  24.542  0.00  0.00    +0.042 C 
ATOM     18  C   UNL     1      -2.750  -1.475  24.762  0.00  0.00    +0.049 C 
ENDROOT
BRANCH  18  19
ATOM     19  C   UNL     1      -2.054  -1.155  25.070  0.00  0.00    -0.002 A 
ATOM     20  C   UNL     1      -2.017  -0.933  25.863  0.00  0.00    -0.001 A 
ATOM     21  C   UNL     1      -1.322  -0.614  26.171  0.00  0.00    +0.020 A 
ATOM     22  C   UNL     1      -0.663  -0.517  25.685  0.00  0.00    +0.099 A 
ATOM     23  N   UNL     1      -0.699  -0.739  24.891  0.00  0.00    -0.243 NA
ATOM     24  C   UNL     1      -1.395  -1.059  24.583  0.00  0.00    +0.095 A 
ENDBRANCH  18  19
BRANCH  12  11
ATOM      9  C   UNL     1      -3.858   0.223  24.151  0.00  0.00    +0.268 C 
ATOM     10  O   UNL     1      -4.005  -0.094  23.405  0.00  0.00    -0.268 OA
ATOM     11  N   UNL     1      -3.581  -0.261  24.758  0.00  0.00    -0.200 NA
BRANCH   9   8
ATOM      3  C   UNL     1      -3.597   1.592  23.835  0.00  0.00    +0.143 A 
ATOM      4  C   UNL     1      -3.726   2.394  23.975  0.00  0.00    +0.037 A 
ATOM      5  C   UNL     1      -4.245   2.631  24.571  0.00  0.00    +0.003 A 
ATOM      6  C   UNL     1      -4.635   2.065  25.026  0.00  0.00    +0.000 A 
ATOM      7  C   UNL     1      -4.506   1.263  24.887  0.00  0.00    +0.008 A 
ATOM      8  C   UNL     1      -3.987   1.026  24.291  0.00  0.00    +0.089 A 
BRANCH   3   2
ATOM      1  C   UNL     1      -2.641   1.920  22.824  0.00  0.00    +0.252 C 
ATOM      2  O   UNL     1      -3.078   1.355  23.239  0.00  0.00    -0.471 OA
ENDBRANCH   3   2
ENDBRANCH   9   8
ENDBRANCH  12  11
TORSDOF 4
ENDMDL
MODEL 3
REMARK VINA RESULT:     -10.4      1.369      2.300
REMARK  Name = 
REMARK  4 active torsions:
REMARK  status: ('A' for Active; 'I' for Inactive)
REMARK    1  A    between atoms: O_2  and  C_3
REMARK    2  A    between atoms: C_8  and  C_9
REMARK    3  A    between atoms: N_11  and  C_12
REMARK    4  A    between atoms: C_18  and  C_19
REMARK                            x       y       z     vdW  Elec       q    Type
REMARK                         _______ _______ _______ _____ _____    ______ ____
ROOT
ATOM     12  C   UNL     1      -3.701   1.483  23.916  0.00  0.00    +0.133 C 
ATOM     13  C   UNL     1      -3.086   1.757  23.441  0.00  0.00    +0.202 C 
ATOM     14  O   UNL     1      -2.566   1.290  23.003  0.00  0.00    -0.219 OA
ATOM     15  C   UNL     1      -3.081   2.581  23.481  0.00  0.00    +0.184 C 
ATOM     16  O   UNL     1      -2.555   3.083  23.090  0.00  0.00    -0.220 OA
ATOM     17  C   UNL     1      -3.694   2.816  23.981  0.00  0.00    +0.042 C 
ATOM     18  C   UNL     1      -4.078   2.136  24.250  0.00  0.00    +0.049 C 
ENDROOT
BRANCH  18  19
ATOM     19  C   UNL     1      -4.724   2.116  24.763  0.00  0.00    -0.002 A 
ATOM     20  C   UNL     1      -5.467   1.896  24.483  0.00  0.00    -0.001 A 
ATOM     21  C   UNL     1      -6.112   1.876  24.996  0.00  0.00    +0.020 A 
ATOM     22  C   UNL     1      -6.015   2.077  25.790  0.00  0.00    +0.099 A 
ATOM     23  N   UNL     1      -5.271   2.297  26.071  0.00  0.00    -0.243 NA
ATOM     24  C   UNL     1      -4.625   2.317  25.558  0.00  0.00    +0.095 A 
ENDBRANCH  18  19
BRANCH  12  11
ATOM      9  C   UNL     1      -3.323   0.138  24.219  0.00  0.00    +0.268 C 
ATOM     10  O   UNL     1      -2.535   0.375  24.282  0.00  0.00    -0.268 OA
ATOM     11  N   UNL     1      -3.906   0.692  24.037  0.00  0.00    -0.200 NA
BRANCH   9   8
ATOM      3  C   UNL     1      -3.276  -1.044  25.021  0.00  0.00    +0.143 A 
ATOM      4  C   UNL     1      -3.480  -1.833  25.141  0.00  0.00    +0.037 A 
ATOM      5  C   UNL     1      -3.935  -2.232  24.581  0.00  0.00    +0.003 A 
ATOM      6  C   UNL     1      -4.187  -1.840  23.900  0.00  0.00    +0.000 A 
ATOM      7  C   UNL     1      -3.983  -1.050  23.780  0.00  0.00    +0.008 A 
ATOM      8  C   UNL     1      -3.527  -0.652  24.340  0.00  0.00    +0.089 A 
BRANCH   3   2
ATOM      1  C   UNL     1      -2.552  -1.043  26.254  0.00  0.00    +0.252 C 
ATOM      2  O   UNL     1      -2.819  -0.645  25.581  0.00  0.00    -0.471 OA
ENDBRANCH   3   2
ENDBRANCH   9   8
ENDBRANCH  12  11
TORSDOF 4
ENDMDL
MODEL 4
REMARK VINA RESULT:     -10.4      2.097      3.945
REMARK  Name = 
REMARK  4 active torsions:
REMARK  status: ('A' for Active; 'I' for Inactive)
REMARK    1  A    between atoms: O_2  and  C_3
REMARK    2  A    between atoms: C_8  and  C_9
REMARK    3  A    between atoms: N_11  and  C_12
REMARK    4  A    between atoms: C_18  and  C_19
REMARK                            x       y       z     vdW  Elec       q    Type
REMARK                         _______ _______ _______ _____ _____    ______ ____
ROOT
ATOM     12  C   UNL     1      -3.940   3.157  25.115  0.00  0.00    +0.133 C 
ATOM     13  C   UNL     1      -4.512   3.454  25.627  0.00  0.00    +0.202 C 
ATOM     14  O   UNL     1      -4.465   4.160  26.053  0.00  0.00    -0.219 OA
ATOM     15  C   UNL     1      -5.143   2.922  25.640  0.00  0.00    +0.184 C 
ATOM     16  O   UNL     1      -5.836   3.002  26.081  0.00  0.00    -0.220 OA
ATOM     17  C   UNL     1      -4.959   2.296  25.135  0.00  0.00    +0.042 C 
ATOM     18  C   UNL     1      -4.214   2.442  24.810  0.00  0.00    +0.049 C 
ENDROOT
BRANCH  18  19
ATOM     19  C   UNL     1      -3.817   1.956  24.275  0.00  0.00    -0.002 A 
ATOM     20  C   UNL     1      -3.681   2.214  23.504  0.00  0.00    -0.001 A 
ATOM     21  C   UNL     1      -3.284   1.728  22.970  0.00  0.00    +0.020 A 
ATOM     22  C   UNL     1      -3.021   0.983  23.206  0.00  0.00    +0.099 A 
ATOM     23  N   UNL     1      -3.157   0.724  23.977  0.00  0.00    -0.243 NA
ATOM     24  C   UNL     1      -3.555   1.209  24.513  0.00  0.00    +0.095 A 
ENDBRANCH  18  19
BRANCH  12  11
ATOM      9  C   UNL     1      -2.712   3.750  25.545  0.00  0.00    +0.268 C 
ATOM     10  O   UNL     1      -2.930   3.630  26.331  0.00  0.00    -0.268 OA
ATOM     11  N   UNL     1      -3.216   3.514  24.936  0.00  0.00    -0.200 NA
BRANCH   9   8
ATOM      3  C   UNL     1      -1.283   3.722  25.553  0.00  0.00    +0.143 A 
ATOM      4  C   UNL     1      -0.562   4.078  25.375  0.00  0.00    +0.037 A 
ATOM      5  C   UNL     1      -0.544   4.818  25.011  0.00  0.00    +0.003 A 
ATOM      6  C   UNL     1      -1.250   5.201  24.825  0.00  0.00    +0.000 A 
ATOM      7  C   UNL     1      -1.972   4.846  25.003  0.00  0.00    +0.008 A 
ATOM      8  C   UNL     1      -1.990   4.106  25.367  0.00  0.00    +0.089 A 
BRANCH   3   2
ATOM      1  C   UNL     1      -0.594   2.590  26.088  0.00  0.00    +0.252 C 
ATOM      2  O   UNL     1      -1.300   2.981  25.917  0.00  0.00    -0.471 OA
ENDBRANCH   3   2
ENDBRANCH   9   8
ENDBRANCH  12  11
TORSDOF 4
ENDMDL
MODEL 5
REMARK VINA RESULT:     -10.2      1.358      3.423
REMARK  Name = 
REMARK  4 active torsions:
REMARK  status: ('A' for Active; 'I' for Inactive)
REMARK    1  A    between atoms: O_2  and  C_3
REMARK    2  A    between atoms: C_8  and  C_9
REMARK    3  A    between atoms: N_11  and  C_12
REMARK    4  A    between atoms: C_18  and  C_19
REMARK                            x       y       z     vdW  Elec       q    Type
REMARK                         _______ _______ _______ _____ _____    ______ ____
ROOT
ATOM     12  C   UNL     1      -4.332   1.608  25.042  0.00  0.00    +0.133 C 
ATOM     13  C   UNL     1      -4.925   2.179  25.075  0.00  0.00    +0.202 C 
ATOM     14  O   UNL     1      -4.813   2.992  25.160  0.00  0.00    -0.219 OA
ATOM     15  C   UNL     1      -5.652   1.795  25.007  0.00  0.00    +0.184 C 
ATOM     16  O   UNL     1      -6.395   2.157  25.012  0.00  0.00    -0.220 OA
ATOM     17  C   UNL     1      -5.508   0.987  24.933  0.00  0.00    +0.042 C 
ATOM     18  C   UNL     1      -4.691   0.871  24.955  0.00  0.00    +0.049 C 
ENDROOT
BRANCH  18  19
ATOM     19  C   UNL     1      -4.303   0.144  24.899  0.00  0.00    -0.002 A 
ATOM     20  C   UNL     1      -4.258  -0.245  24.174  0.00  0.00    -0.001 A 
ATOM     21  C   UNL     1      -3.871  -0.971  24.118  0.00  0.00    +0.020 A 
ATOM     22  C   UNL     1      -3.528  -1.308  24.789  0.00  0.00    +0.099 A 
ATOM     23  N   UNL     1      -3.573  -0.918  25.514  0.00  0.00    -0.243 NA
ATOM     24  C   UNL     1      -3.960  -0.192  25.570  0.00  0.00    +0.095 A 
ENDBRANCH  18  19
BRANCH  12  11
ATOM      9  C   UNL     1      -3.174   2.332  24.620  0.00  0.00    +0.268 C 
ATOM     10  O   UNL     1      -3.640   2.775  24.103  0.00  0.00    -0.268 OA
ATOM     11  N   UNL     1      -3.519   1.749  25.090  0.00  0.00    -0.200 NA
BRANCH   9   8
ATOM      3  C   UNL     1      -1.886   2.369  24.002  0.00  0.00    +0.143 A 
ATOM      4  C   UNL     1      -1.076   2.510  24.050  0.00  0.00    +0.037 A 
ATOM      5  C   UNL     1      -0.740   2.754  24.762  0.00  0.00    +0.003 A 
ATOM      6  C   UNL     1      -1.216   2.858  25.427  0.00  0.00    +0.000 A 
ATOM      7  C   UNL     1      -2.027   2.717  25.380  0.00  0.00    +0.008 A 
ATOM      8  C   UNL     1      -2.363   2.473  24.668  0.00  0.00    +0.089 A 
BRANCH   3   2
ATOM      1  C   UNL     1      -1.737   1.928  22.650  0.00  0.00    +0.252 C 
ATOM      2  O   UNL     1      -2.222   2.125  23.289  0.00  0.00    -0.471 OA
ENDBRANCH   3   2
ENDBRANCH   9   8
ENDBRANCH  12  11
TORSDOF 4
ENDMDL
MODEL 6
REMARK VINA RESULT:     -10.0      2.157      4.563
REMARK  Name = 
REMARK  4 active torsions:
REMARK  status: ('A' for Active; 'I' for Inactive)
REMARK    1  A    between atoms: O_2  and  C_3
REMARK    2  A    between atoms: C_8  and  C_9
REMARK    3  A    between atoms: N_11  and  C_12
REMARK    4  A    between atoms: C_18  and  C_19
REMARK                            x       y       z     vdW  Elec       q    Type
REMARK                         _______ _______ _______ _____ _____    ______ ____
ROOT
ATOM     12  C   UNL     1      -1.108   0.498  24.646  0.00  0.00    +0.133 C 
ATOM     13  C   UNL     1      -0.386   0.494  24.250  0.00  0.00    +0.202 C 
ATOM     14  O   UNL     1       0.108   1.145  24.133  0.00  0.00    -0.219 OA
ATOM     15  C   UNL     1      -0.242  -0.276  23.989  0.00  0.00    +0.184 C 
ATOM     16  O   UNL     1       0.420  -0.530  23.567  0.00  0.00    -0.220 OA
ATOM     17  C   UNL     1      -0.877  -0.747  24.226  0.00  0.00    +0.042 C 
ATOM     18  C   UNL     1      -1.413  -0.268  24.632  0.00  0.00    +0.049 C 
ENDROOT
BRANCH  18  19
ATOM     19  C   UNL     1      -2.126  -0.515  24.965  0.00  0.00    -0.002 A 
ATOM     20  C   UNL     1      -2.783  -0.645  24.485  0.00  0.00    -0.001 A 
ATOM     21  C   UNL     1      -3.496  -0.891  24.817  0.00  0.00    +0.020 A 
ATOM     22  C   UNL     1      -3.552  -1.007  25.632  0.00  0.00    +0.099 A 
ATOM     23  N   UNL     1      -2.895  -0.877  26.113  0.00  0.00    -0.243 NA
ATOM     24  C   UNL     1      -2.182  -0.631  25.781  0.00  0.00    +0.095 A 
ENDBRANCH  18  19
BRANCH  12  11
ATOM      9  C   UNL     1      -1.548   1.856  24.571  0.00  0.00    +0.268 C 
ATOM     10  O   UNL     1      -1.274   1.901  23.795  0.00  0.00    -0.268 OA
ATOM     11  N   UNL     1      -1.465   1.155  24.997  0.00  0.00    -0.200 NA
BRANCH   9   8
ATOM      3  C   UNL     1      -2.586   2.838  24.590  0.00  0.00    +0.143 A 
ATOM      4  C   UNL     1      -2.942   3.493  24.940  0.00  0.00    +0.037 A 
ATOM      5  C   UNL     1      -2.618   3.824  25.623  0.00  0.00    +0.003 A 
ATOM      6  C   UNL     1      -1.937   3.498  25.954  0.00  0.00    +0.000 A 
ATOM      7  C   UNL     1      -1.581   2.843  25.604  0.00  0.00    +0.008 A 
ATOM      8  C   UNL     1      -1.905   2.512  24.922  0.00  0.00    +0.089 A 
BRANCH   3   2
ATOM      1  C   UNL     1      -3.624   2.796  23.607  0.00  0.00    +0.252 C 
ATOM      2  O   UNL     1      -2.910   2.507  23.907  0.00  0.00    -0.471 OA
ENDBRANCH   3   2
ENDBRANCH   9   8
ENDBRANCH  12  11
TORSDOF 4
ENDMDL
