MODEL 1
REMARK VINA RESULT:     -12.7      0.000      0.000
REMARK  Name = 
REMARK  6 active torsions:
REMARK  status: ('A' for Active; 'I' for Inactive)
REMARK    1  A    between atoms: O_2  and  C_3
REMARK    2  A    between atoms: C_6  and  S_9
REMARK    3  A    between atoms: S_9  and  N_12
REMARK    4  A    between atoms: N_12  and  C_13
REMARK    5  A    between atoms: C_19  and  C_20
REMARK    6  A    between atoms: C_23  and  C_26
REMARK                            x       y       z     vdW  Elec       q    Type
REMARK                         _______ _______ _______ _____ _____    ______ ____
ROOT
ATOM     13  C   UNL     1      -4.320   2.290  24.895  0.00  0.00    +0.135 C 
ATOM     14  C   UNL     1      -5.105   2.088  25.043  0.00  0.00    +0.200 C 
ATOM     15  O   UNL     1      -5.480   1.391  24.810  0.00  0.00    -0.219 OA
ATOM     16  C   UNL     1      -5.451   2.706  25.467  0.00  0.00    +0.184 C 
ATOM     17  O   UNL     1      -6.233   2.736  25.731  0.00  0.00    -0.220 OA
ATOM     18  C   UNL     1      -4.879   3.290  25.580  0.00  0.00    +0.042 C 
ATOM     19  C   UNL     1      -4.179   3.032  25.226  0.00  0.00    +0.047 C 
ENDROOT
BRANCH  19  20
ATOM     20  C   UNL     1      -3.465   3.446  25.208  0.00  0.00    -0.002 A 
ATOM     21  C   UNL     1      -3.204   3.790  24.506  0.00  0.00    +0.094 A 
ATOM     22  N   UNL     1      -2.491   4.203  24.489  0.00  0.00    -0.240 NA
ATOM     23  C   UNL     1      -2.037   4.272  25.174  0.00  0.00    +0.153 A 
ATOM     24  C   UNL     1      -2.298   3.927  25.877  0.00  0.00    +0.023 A 
ATOM     25  C   UNL     1      -3.011   3.513  25.895  0.00  0.00    -0.001 A 
BRANCH  23  26
ATOM     26  C   UNL     1      -1.324   4.685  25.157  0.00  0.00    +0.435 C 
ATOM     27  F   UNL     1      -0.610   5.098  25.140  0.00  0.00    -0.164 F 
ATOM     28  F   UNL     1      -1.710   5.365  25.420  0.00  0.00    -0.164 F 
ATOM     29  F   UNL     1      -0.937   4.006  24.895  0.00  0.00    -0.164 F 
ENDBRANCH  23  26
ENDBRANCH  19  20
BRANCH  13  12
ATOM     12  N   UNL     1      -3.769   1.829  24.486  0.00  0.00    -0.076 NA
BRANCH  12   9
ATOM      9  S   UNL     1      -3.748   1.013  24.602  0.00  0.00    +0.077 S 
ATOM     10  O   UNL     1      -4.042   0.898  23.838  0.00  0.00    -0.152 OA
ATOM     11  O   UNL     1      -3.455   1.129  25.364  0.00  0.00    -0.152 OA
BRANCH   9   6
ATOM      3  C   UNL     1      -3.687  -1.437  24.946  0.00  0.00    +0.139 A 
ATOM      4  C   UNL     1      -3.396  -0.930  25.530  0.00  0.00    +0.038 A 
ATOM      5  C   UNL     1      -3.416  -0.114  25.415  0.00  0.00    +0.023 A 
ATOM      6  C   UNL     1      -3.728   0.197  24.717  0.00  0.00    +0.124 A 
ATOM      7  C   UNL     1      -4.019  -0.310  24.133  0.00  0.00    +0.023 A 
ATOM      8  C   UNL     1      -3.998  -1.126  24.248  0.00  0.00    +0.038 A 
BRANCH   3   2
ATOM      1  C   UNL     1      -3.297  -2.739  24.505  0.00  0.00    +0.252 C 
ATOM      2  O   UNL     1      -3.666  -2.254  25.062  0.00  0.00    -0.471 OA
ENDBRANCH   3   2
ENDBRANCH   9   6
ENDBRANCH  12   9
ENDBRANCH  13  12
TORSDOF 6
ENDMDL
MODEL 2
REMARK VINA RESULT:     -12.0      2.789      4.814
REMARK  Name = 
REMARK  6 active torsions:
REMARK  status: ('A' for Active; 'I' for Inactive)
REMARK    1  A    between atoms: O_2  and  C_3
REMARK    2  A    between atoms: C_6  and  S_9
REMARK    3  A    between atoms: S_9  and  N_12
REMARK    4  A    between atoms: N_12  and  C_13
REMARK    5  A    between atoms: C_19  and  C_20
REMARK    6  A    between atoms: C_23  and  C_26
REMARK                            x       y       z     vdW  Elec       q    Type
REMARK                         _______ _______ _______ _____ _____    ______ ____
ROOT
ATOM     13  C   UNL     1      -4.061   1.248  24.483  0.00  0.00    +0.135 C 
ATOM     14  C   UNL     1      -4.544   1.912  24.559  0.00  0.00    +0.200 C 
ATOM     15  O   UNL     1      -4.348   2.683  24.338  0.00  0.00    -0.219 OA
ATOM     16  C   UNL     1      -5.258   1.671  24.895  0.00  0.00    +0.184 C 
ATOM     17  O   UNL     1      -5.901   2.158  25.069  0.00  0.00    -0.220 OA
ATOM     18  C   UNL     1      -5.216   0.858  25.027  0.00  0.00    +0.042 C 
ATOM     19  C   UNL     1      -4.475   0.596  24.772  0.00  0.00    +0.047 C 
ENDROOT
BRANCH  19  20
ATOM     20  C   UNL     1      -4.200  -0.181  24.801  0.00  0.00    -0.002 A 
ATOM     21  C   UNL     1      -3.899  -0.487  25.505  0.00  0.00    +0.094 A 
ATOM     22  N   UNL     1      -3.624  -1.263  25.534  0.00  0.00    -0.240 NA
ATOM     23  C   UNL     1      -3.650  -1.736  24.858  0.00  0.00    +0.153 A 
ATOM     24  C   UNL     1      -3.951  -1.430  24.154  0.00  0.00    +0.023 A 
ATOM     25  C   UNL     1      -4.227  -0.653  24.124  0.00  0.00    -0.001 A 
BRANCH  23  26
ATOM     26  C   UNL     1      -3.375  -2.512  24.887  0.00  0.00    +0.435 C 
ATOM     27  F   UNL     1      -3.100  -3.290  24.915  0.00  0.00    -0.164 F 
ATOM     28  F   UNL     1      -3.066  -2.432  24.126  0.00  0.00    -0.164 F 
ATOM     29  F   UNL     1      -3.684  -2.594  25.647  0.00  0.00    -0.164 F 
ENDBRANCH  23  26
ENDBRANCH  19  20
BRANCH  13  12
ATOM     12  N   UNL     1      -3.296   1.237  24.172  0.00  0.00    -0.076 NA
BRANCH  12   9
ATOM      9  S   UNL     1      -2.764   1.837  24.365  0.00  0.00    +0.077 S 
ATOM     10  O   UNL     1      -2.854   2.160  23.611  0.00  0.00    -0.152 OA
ATOM     11  O   UNL     1      -2.675   1.513  25.119  0.00  0.00    -0.152 OA
BRANCH   9   6
ATOM      3  C   UNL     1      -1.167   3.635  24.948  0.00  0.00    +0.139 A 
ATOM      4  C   UNL     1      -1.278   3.421  24.158  0.00  0.00    +0.038 A 
ATOM      5  C   UNL     1      -1.810   2.822  23.964  0.00  0.00    +0.023 A 
ATOM      6  C   UNL     1      -2.232   2.436  24.559  0.00  0.00    +0.124 A 
ATOM      7  C   UNL     1      -2.121   2.650  25.349  0.00  0.00    +0.023 A 
ATOM      8  C   UNL     1      -1.589   3.250  25.543  0.00  0.00    +0.038 A 
BRANCH   3   2
ATOM      1  C   UNL     1      -0.834   5.023  25.003  0.00  0.00    +0.252 C 
ATOM      2  O   UNL     1      -0.634   4.235  25.142  0.00  0.00    -0.471 OA
ENDBRANCH   3   2
ENDBRANCH   9   6
ENDBRANCH  12   9
ENDBRANCH  13  12
TORSDOF 6
ENDMDL
MODEL 3
REMARK VINA RESULT:     -11.5      2.171      3.094
REMARK  Name = 
REMARK  6 active torsions:
REMARK  status: ('A' for Active; 'I' for Inactive)
REMARK    1  A    between atoms: O_2  and  C_3
REMARK    2  A    between atoms: C_6  and  S_9
REMARK    3  A    between atoms: S_9  and  N_12
REMARK    4  A    between atoms: N_12  and  C_13
REMARK    5  A    between atoms: C_19  and  C_20
REMARK    6  A    between atoms: C_23  and  C_26
REMARK                            x       y       z     vdW  Elec       q    Type
REMARK                         _______ _______ _______ _____ _____    ______ ____
ROOT
ATOM     13  C   UNL     1      -0.822   0.911  24.650  0.00  0.00    +0.135 C 
ATOM     14  C   UNL     1      -0.419   0.278  24.309  0.00  0.00    +0.200 C 
ATOM     15  O   UNL     1      -0.608  -0.521  24.393  0.00  0.00    -0.219 OA
ATOM     16  C   UNL     1       0.208   0.583  23.867  0.00  0.00    +0.184 C 
ATOM     17  O   UNL     1       0.755   0.143  23.433  0.00  0.00    -0.220 OA
ATOM     18  C   UNL     1       0.192   1.405  23.936  0.00  0.00    +0.042 C 
ATOM     19  C   UNL     1      -0.445   1.608  24.420  0.00  0.00    +0.047 C 
ENDROOT
BRANCH  19  20
ATOM     20  C   UNL     1      -0.664   2.373  24.636  0.00  0.00    -0.002 A 
ATOM     21  C   UNL     1      -1.058   2.858  24.097  0.00  0.00    +0.094 A 
ATOM     22  N   UNL     1      -1.277   3.622  24.312  0.00  0.00    -0.240 NA
ATOM     23  C   UNL     1      -1.103   3.904  25.068  0.00  0.00    +0.153 A 
ATOM     24  C   UNL     1      -0.709   3.420  25.608  0.00  0.00    +0.023 A 
ATOM     25  C   UNL     1      -0.489   2.654  25.392  0.00  0.00    -0.001 A 
BRANCH  23  26
ATOM     26  C   UNL     1      -1.322   4.669  25.284  0.00  0.00    +0.435 C 
ATOM     27  F   UNL     1      -1.541   5.434  25.501  0.00  0.00    -0.164 F 
ATOM     28  F   UNL     1      -0.636   4.965  24.934  0.00  0.00    -0.164 F 
ATOM     29  F   UNL     1      -2.007   4.373  25.635  0.00  0.00    -0.164 F 
ENDBRANCH  23  26
ENDBRANCH  19  20
BRANCH  13  12
ATOM     12  N   UNL     1      -1.487   0.857  25.137  0.00  0.00    -0.076 NA
BRANCH  12   9
ATOM      9  S   UNL     1      -2.096   0.336  24.946  0.00  0.00    +0.077 S 
ATOM     10  O   UNL     1      -1.885  -0.144  25.584  0.00  0.00    -0.152 OA
ATOM     11  O   UNL     1      -2.306   0.816  24.309  0.00  0.00    -0.152 OA
BRANCH   9   6
ATOM      3  C   UNL     1      -3.926  -1.229  24.373  0.00  0.00    +0.139 A 
ATOM      4  C   UNL     1      -3.412  -1.404  24.995  0.00  0.00    +0.038 A 
ATOM      5  C   UNL     1      -2.803  -0.883  25.186  0.00  0.00    +0.023 A 
ATOM      6  C   UNL     1      -2.705  -0.186  24.755  0.00  0.00    +0.124 A 
ATOM      7  C   UNL     1      -3.219  -0.010  24.133  0.00  0.00    +0.023 A 
ATOM      8  C   UNL     1      -3.829  -0.532  23.943  0.00  0.00    +0.038 A 
BRANCH   3   2
ATOM      1  C   UNL     1      -4.364  -2.469  23.814  0.00  0.00    +0.252 C 
ATOM      2  O   UNL     1      -4.536  -1.751  24.182  0.00  0.00    -0.471 OA
ENDBRANCH   3   2
ENDBRANCH   9   6
ENDBRANCH  12   9
ENDBRANCH  13  12
TORSDOF 6
ENDMDL
MODEL 4
REMARK VINA RESULT:     -11.0      3.027      5.182
REMARK  Name = 
REMARK  6 active torsions:
REMARK  status: ('A' for Active; 'I' for Inactive)
REMARK    1  A    between atoms: O_2  and  C_3
REMARK    2  A    between atoms: C_6  and  S_9
REMARK    3  A    between atoms: S_9  and  N_12
REMARK    4  A    between atoms: N_12  and  C_13
REMARK    5  A    between atoms: C_19  and  C_20
REMARK    6  A    between atoms: C_23  and  C_26
REMARK                            x       y       z     vdW  Elec       q    Type
REMARK                         _______ _______ _______ _____ _____    ______ ____
ROOT
ATOM     13  C   UNL     1      -2.153   0.679  24.796  0.00  0.00    +0.135 C 
ATOM     14  C   UNL     1      -1.587   1.210  25.075  0.00  0.00    +0.200 C 
ATOM     15  O   UNL     1      -1.550   2.016  24.903  0.00  0.00    -0.219 OA
ATOM     16  C   UNL     1      -1.063   0.793  25.558  0.00  0.00    +0.184 C 
ATOM     17  O   UNL     1      -0.411   1.109  25.953  0.00  0.00    -0.220 OA
ATOM     18  C   UNL     1      -1.306   0.005  25.577  0.00  0.00    +0.042 C 
ATOM     19  C   UNL     1      -1.980  -0.065  25.106  0.00  0.00    +0.047 C 
ENDROOT
BRANCH  19  20
ATOM     20  C   UNL     1      -2.405  -0.759  24.970  0.00  0.00    -0.002 A 
ATOM     21  C   UNL     1      -2.303  -1.176  24.266  0.00  0.00    +0.094 A 
ATOM     22  N   UNL     1      -2.728  -1.869  24.130  0.00  0.00    -0.240 NA
ATOM     23  C   UNL     1      -3.256  -2.147  24.700  0.00  0.00    +0.153 A 
ATOM     24  C   UNL     1      -3.359  -1.731  25.404  0.00  0.00    +0.023 A 
ATOM     25  C   UNL     1      -2.934  -1.037  25.541  0.00  0.00    -0.001 A 
BRANCH  23  26
ATOM     26  C   UNL     1      -3.681  -2.840  24.565  0.00  0.00    +0.435 C 
ATOM     27  F   UNL     1      -4.107  -3.534  24.430  0.00  0.00    -0.164 F 
ATOM     28  F   UNL     1      -3.996  -2.514  23.875  0.00  0.00    -0.164 F 
ATOM     29  F   UNL     1      -3.367  -3.167  25.254  0.00  0.00    -0.164 F 
ENDBRANCH  23  26
ENDBRANCH  19  20
BRANCH  13  12
ATOM     12  N   UNL     1      -2.783   0.862  24.295  0.00  0.00    -0.076 NA
BRANCH  12   9
ATOM      9  S   UNL     1      -3.263   1.513  24.455  0.00  0.00    +0.077 S 
ATOM     10  O   UNL     1      -3.535   1.143  25.141  0.00  0.00    -0.152 OA
ATOM     11  O   UNL     1      -2.990   1.882  23.769  0.00  0.00    -0.152 OA
BRANCH   9   6
ATOM      3  C   UNL     1      -4.703   3.466  24.937  0.00  0.00    +0.139 A 
ATOM      4  C   UNL     1      -4.088   3.531  24.390  0.00  0.00    +0.038 A 
ATOM      5  C   UNL     1      -3.609   2.880  24.229  0.00  0.00    +0.023 A 
ATOM      6  C   UNL     1      -3.742   2.164  24.615  0.00  0.00    +0.124 A 
ATOM      7  C   UNL     1      -4.357   2.098  25.163  0.00  0.00    +0.023 A 
ATOM      8  C   UNL     1      -4.837   2.750  25.324  0.00  0.00    +0.038 A 
BRANCH   3   2
ATOM      1  C   UNL     1      -5.799   4.052  25.642  0.00  0.00    +0.252 C 
ATOM      2  O   UNL     1      -5.183   4.118  25.098  0.00  0.00    -0.471 OA
ENDBRANCH   3   2
ENDBRANCH   9   6
ENDBRANCH  12   9
ENDBRANCH  13  12
TORSDOF 6
ENDMDL
MODEL 5
REMARK VINA RESULT:     -10.8      1.908      2.825
REMARK  Name = 
REMARK  6 active torsions:
REMARK  status: ('A' for Active; 'I' for Inactive)
REMARK    1  A    between atoms: O_2  and  C_3
REMARK    2  A    between atoms: C_6  and  S_9
REMARK    3  A    between atoms: S_9  and  N_12
REMARK    4  A    between atoms: N_12  and  C_13
REMARK    5  A    between atoms: C_19  and  C_20
REMARK    6  A    between atoms: C_23  and  C_26
REMARK                            x       y       z     vdW  Elec       q    Type
REMARK                         _______ _______ _______ _____ _____    ______ ____
ROOT
ATOM     13  C   UNL     1      -2.699   1.349  24.558  0.00  0.00    +0.135 C 
ATOM     14  C   UNL     1      -2.026   1.125  24.138  0.00  0.00    +0.200 C 
ATOM     15  O   UNL     1      -1.642   0.396  24.187  0.00  0.00    -0.219 OA
ATOM     16  C   UNL     1      -1.803   1.759  23.659  0.00  0.00    +0.184 C 
ATOM     17  O   UNL     1      -1.157   1.775  23.145  0.00  0.00    -0.220 OA
ATOM     18  C   UNL     1      -2.338   2.374  23.784  0.00  0.00    +0.042 C 
ATOM     19  C   UNL     1      -2.893   2.120  24.340  0.00  0.00    +0.047 C 
ENDROOT
BRANCH  19  20
ATOM     20  C   UNL     1      -3.528   2.562  24.626  0.00  0.00    -0.002 A 
ATOM     21  C   UNL     1      -3.488   2.910  25.372  0.00  0.00    +0.094 A 
ATOM     22  N   UNL     1      -4.123   3.351  25.658  0.00  0.00    -0.240 NA
ATOM     23  C   UNL     1      -4.800   3.444  25.196  0.00  0.00    +0.153 A 
ATOM     24  C   UNL     1      -4.842   3.097  24.449  0.00  0.00    +0.023 A 
ATOM     25  C   UNL     1      -4.206   2.655  24.163  0.00  0.00    -0.001 A 
BRANCH  23  26
ATOM     26  C   UNL     1      -5.436   3.885  25.481  0.00  0.00    +0.435 C 
ATOM     27  F   UNL     1      -6.072   4.327  25.766  0.00  0.00    -0.164 F 
ATOM     28  F   UNL     1      -5.802   3.193  25.740  0.00  0.00    -0.164 F 
ATOM     29  F   UNL     1      -5.072   4.578  25.222  0.00  0.00    -0.164 F 
ENDBRANCH  23  26
ENDBRANCH  19  20
BRANCH  13  12
ATOM     12  N   UNL     1      -3.108   0.882  25.103  0.00  0.00    -0.076 NA
BRANCH  12   9
ATOM      9  S   UNL     1      -3.287   0.098  24.922  0.00  0.00    +0.077 S 
ATOM     10  O   UNL     1      -2.729  -0.157  25.475  0.00  0.00    -0.152 OA
ATOM     11  O   UNL     1      -3.844   0.353  24.369  0.00  0.00    -0.152 OA
BRANCH   9   6
ATOM      3  C   UNL     1      -3.823  -2.256  24.376  0.00  0.00    +0.139 A 
ATOM      4  C   UNL     1      -3.317  -2.083  25.006  0.00  0.00    +0.038 A 
ATOM      5  C   UNL     1      -3.138  -1.298  25.187  0.00  0.00    +0.023 A 
ATOM      6  C   UNL     1      -3.465  -0.686  24.740  0.00  0.00    +0.124 A 
ATOM      7  C   UNL     1      -3.971  -0.860  24.111  0.00  0.00    +0.023 A 
ATOM      8  C   UNL     1      -4.149  -1.645  23.930  0.00  0.00    +0.038 A 
BRANCH   3   2
ATOM      1  C   UNL     1      -3.406  -3.613  24.211  0.00  0.00    +0.252 C 
ATOM      2  O   UNL     1      -4.001  -3.041  24.195  0.00  0.00    -0.471 OA
ENDBRANCH   3   2
ENDBRANCH   9   6
ENDBRANCH  12   9
ENDBRANCH  13  12
TORSDOF 6
ENDMDL
MODEL 6
REMARK VINA RESULT:     -10.5      2.541      3.377
REMARK  Name = 
REMARK  6 active torsions:
REMARK  status: ('A' for Active; 'I' for Inactive)
REMARK    1  A    between atoms: O_2  and  C_3
REMARK    2  A    between atoms: C_6  and  S_9
REMARK    3  A    between atoms: S_9  and  N_12
REMARK    4  A    between atoms: N_12  and  C_13
REMARK    5  A    between atoms: C_19  and  C_20
REMARK    6  A    between atoms: C_23  and  C_26
REMARK                            x       y       z     vdW  Elec       q    Type
REMARK                         _______ _______ _______ _____ _____    ______ ____
ROOT
ATOM     13  C   UNL     1      -1.795   3.098  24.572  0.00  0.00    +0.135 C 
ATOM     14  C   UNL     1      -1.006   3.339  24.565  0.00  0.00    +0.200 C 
ATOM     15  O   UNL     1      -0.375   2.924  24.233  0.00  0.00    -0.219 OA
ATOM     16  C   UNL     1      -0.959   4.068  24.948  0.00  0.00    +0.184 C 
ATOM     17  O   UNL     1      -0.272   4.510  25.067  0.00  0.00    -0.220 OA
ATOM     18  C   UNL     1      -1.719   4.277  25.192  0.00  0.00    +0.042 C 
ATOM     19  C   UNL     1      -2.236   3.677  24.959  0.00  0.00    +0.047 C 
ENDROOT
BRANCH  19  20
ATOM     20  C   UNL     1      -3.050   3.662  25.092  0.00  0.00    -0.002 A 
ATOM     21  C   UNL     1      -3.573   3.713  24.457  0.00  0.00    +0.094 A 
ATOM     22  N   UNL     1      -4.387   3.697  24.590  0.00  0.00    -0.240 NA
ATOM     23  C   UNL     1      -4.678   3.630  25.359  0.00  0.00    +0.153 A 
ATOM     24  C   UNL     1      -4.155   3.578  25.994  0.00  0.00    +0.023 A 
ATOM     25  C   UNL     1      -3.340   3.594  25.862  0.00  0.00    -0.001 A 
BRANCH  23  26
ATOM     26  C   UNL     1      -5.491   3.614  25.492  0.00  0.00    +0.435 C 
ATOM     27  F   UNL     1      -6.305   3.598  25.626  0.00  0.00    -0.164 F 
ATOM     28  F   UNL     1      -5.501   4.438  25.538  0.00  0.00    -0.164 F 
ATOM     29  F   UNL     1      -5.483   2.791  25.447  0.00  0.00    -0.164 F 
ENDBRANCH  23  26
ENDBRANCH  19  20
BRANCH  13  12
ATOM     12  N   UNL     1      -2.091   2.399  24.247  0.00  0.00    -0.076 NA
BRANCH  12   9
ATOM      9  S   UNL     1      -1.730   1.678  24.421  0.00  0.00    +0.077 S 
ATOM     10  O   UNL     1      -1.528   1.588  23.626  0.00  0.00    -0.152 OA
ATOM     11  O   UNL     1      -1.933   1.769  25.216  0.00  0.00    -0.152 OA
BRANCH   9   6
ATOM      3  C   UNL     1      -0.648  -0.485  24.944  0.00  0.00    +0.139 A 
ATOM      4  C   UNL     1      -0.551  -0.144  24.198  0.00  0.00    +0.038 A 
ATOM      5  C   UNL     1      -0.912   0.576  24.024  0.00  0.00    +0.023 A 
ATOM      6  C   UNL     1      -1.370   0.958  24.595  0.00  0.00    +0.124 A 
ATOM      7  C   UNL     1      -1.466   0.617  25.341  0.00  0.00    +0.023 A 
ATOM      8  C   UNL     1      -1.105  -0.104  25.515  0.00  0.00    +0.038 A 
BRANCH   3   2
ATOM      1  C   UNL     1      -0.717  -1.907  25.059  0.00  0.00    +0.252 C 
ATOM      2  O   UNL     1      -0.286  -1.206  25.118  0.00  0.00    -0.471 OA
ENDBRANCH   3   2
ENDBRANCH   9   6
ENDBRANCH  12   9
ENDBRANCH  13  12
TORSDOF 6
ENDMDL
MODEL 7
REMARK VINA RESULT:     -10.3      3.386      5.678
REMARK  Name = 
REMARK  6 active torsions:
REMARK  status: ('A' for Active; 'I' for Inactive)
REMARK    1  A    between atoms: O_2  and  C_3
REMARK    2  A    between atoms: C_6  and  S_9
REMARK    3  A    between atoms: S_9  and  N_12
REMARK    4  A    between atoms: N_12  and  C_13
REMARK    5  A    between atoms: C_19  and  C_20
REMARK    6  A    between atoms: C_23  and  C_26
REMARK                            x       y       z     vdW  Elec       q    Type
REMARK                         _______ _______ _______ _____ _____    ______ ____
ROOT
ATOM     13  C   UNL     1      -0.643   0.434  24.690  0.00  0.00    +0.135 C 
ATOM     14  C   UNL     1      -0.008   0.765  24.283  0.00  0.00    +0.200 C 
ATOM     15  O   UNL     1       0.358   1.484  24.455  0.00  0.00    -0.219 OA
ATOM     16  C   UNL     1       0.198   0.251  23.671  0.00  0.00    +0.184 C 
ATOM     17  O   UNL     1       0.806   0.366  23.125  0.00  0.00    -0.220 OA
ATOM     18  C   UNL     1      -0.310  -0.398  23.701  0.00  0.00    +0.042 C 
ATOM     19  C   UNL     1      -0.831  -0.285  24.332  0.00  0.00    +0.047 C 
ENDROOT
BRANCH  19  20
ATOM     20  C   UNL     1      -1.432  -0.801  24.561  0.00  0.00    -0.002 A 
ATOM     21  C   UNL     1      -2.165  -0.776  24.185  0.00  0.00    +0.094 A 
ATOM     22  N   UNL     1      -2.766  -1.292  24.415  0.00  0.00    -0.240 NA
ATOM     23  C   UNL     1      -2.633  -1.834  25.022  0.00  0.00    +0.153 A 
ATOM     24  C   UNL     1      -1.900  -1.860  25.399  0.00  0.00    +0.023 A 
ATOM     25  C   UNL     1      -1.298  -1.344  25.169  0.00  0.00    -0.001 A 
BRANCH  23  26
ATOM     26  C   UNL     1      -3.233  -2.351  25.253  0.00  0.00    +0.435 C 
ATOM     27  F   UNL     1      -3.834  -2.867  25.484  0.00  0.00    -0.164 F 
ATOM     28  F   UNL     1      -2.978  -2.900  24.692  0.00  0.00    -0.164 F 
ATOM     29  F   UNL     1      -3.489  -1.803  25.813  0.00  0.00    -0.164 F 
ENDBRANCH  23  26
ENDBRANCH  19  20
BRANCH  13  12
ATOM     12  N   UNL     1      -1.026   0.764  25.344  0.00  0.00    -0.076 NA
BRANCH  12   9
ATOM      9  S   UNL     1      -1.198   1.570  25.357  0.00  0.00    +0.077 S 
ATOM     10  O   UNL     1      -1.778   1.455  24.781  0.00  0.00    -0.152 OA
ATOM     11  O   UNL     1      -0.618   1.684  25.933  0.00  0.00    -0.152 OA
BRANCH   9   6
ATOM      3  C   UNL     1      -1.715   3.990  25.396  0.00  0.00    +0.139 A 
ATOM      4  C   UNL     1      -1.050   3.703  25.793  0.00  0.00    +0.038 A 
ATOM      5  C   UNL     1      -0.878   2.897  25.779  0.00  0.00    +0.023 A 
ATOM      6  C   UNL     1      -1.370   2.376  25.370  0.00  0.00    +0.124 A 
ATOM      7  C   UNL     1      -2.035   2.663  24.973  0.00  0.00    +0.023 A 
ATOM      8  C   UNL     1      -2.207   3.470  24.987  0.00  0.00    +0.038 A 
BRANCH   3   2
ATOM      1  C   UNL     1      -1.378   5.332  25.041  0.00  0.00    +0.252 C 
ATOM      2  O   UNL     1      -1.887   4.797  25.409  0.00  0.00    -0.471 OA
ENDBRANCH   3   2
ENDBRANCH   9   6
ENDBRANCH  12   9
ENDBRANCH  13  12
TORSDOF 6
ENDMDL
