MODEL 1
REMARK VINA RESULT:     -11.0      0.000      0.000
REMARK  Name = 
REMARK  5 active torsions:
REMARK  status: ('A' for Active; 'I' for Inactive)
REMARK    1  A    between atoms: C_2  and  C_4
REMARK    2  A    between atoms: C_4  and  N_5
REMARK    3  A    between atoms: C_6  and  C_8
REMARK    4  A    between atoms: C_10  and  N_11
REMARK    5  A    between atoms: N_14  and  C_15
REMARK                            x       y       z     vdW  Elec       q    Type
REMARK                         _______ _______ _______ _____ _____    ______ ____
ROOT
ATOM      8  C   UNL     1      -4.109   3.040  24.842  0.00  0.00    +0.033 C 
ATOM      9  C   UNL     1      -4.256   2.261  24.616  0.00  0.00    -0.002 C 
ATOM     10  C   UNL     1      -4.895   1.851  24.939  0.00  0.00    +0.152 C 
ATOM     21  C   UNL     1      -5.386   2.220  25.488  0.00  0.00    +0.206 C 
ATOM     22  O   UNL     1      -6.025   1.811  25.811  0.00  0.00    -0.218 OA
ATOM     23  C   UNL     1      -5.240   3.000  25.715  0.00  0.00    +0.189 C 
ATOM     24  O   UNL     1      -5.731   3.369  26.264  0.00  0.00    -0.220 OA
ATOM     25  C   UNL     1      -4.601   3.410  25.392  0.00  0.00    +0.066 C 
ENDROOT
BRANCH  10  11
ATOM     11  N   UNL     1      -5.042   1.072  24.712  0.00  0.00    -0.182 NA
ATOM     12  C   UNL     1      -4.471   0.489  24.839  0.00  0.00    +0.340 C 
ATOM     13  O   UNL     1      -3.752   0.687  25.193  0.00  0.00    -0.249 OA
ATOM     14  N   UNL     1      -4.618  -0.289  24.613  0.00  0.00    -0.189 NA
BRANCH  14  15
ATOM     15  C   UNL     1      -4.047  -0.872  24.740  0.00  0.00    +0.097 C 
ATOM     16  C   UNL     1      -3.852  -1.098  25.508  0.00  0.00    +0.022 C 
ATOM     17  C   UNL     1      -3.282  -1.680  25.635  0.00  0.00    +0.002 C 
ATOM     18  C   UNL     1      -2.906  -2.035  24.992  0.00  0.00    +0.000 C 
ATOM     19  C   UNL     1      -3.100  -1.809  24.223  0.00  0.00    +0.002 C 
ATOM     20  C   UNL     1      -3.671  -1.227  24.097  0.00  0.00    +0.022 C 
ENDBRANCH  14  15
ENDBRANCH  10  11
BRANCH   8   6
ATOM      5  N   UNL     1      -2.825   3.650  24.993  0.00  0.00    -0.192 NA
ATOM      6  C   UNL     1      -3.470   3.451  24.520  0.00  0.00    +0.261 C 
ATOM      7  O   UNL     1      -3.477   3.663  23.721  0.00  0.00    -0.269 OA
BRANCH   5   4
ATOM      4  C   UNL     1      -2.186   4.060  24.671  0.00  0.00    +0.203 C 
BRANCH   4   2
ATOM      1  N   UNL     1      -0.997   3.780  25.412  0.00  0.00    -0.086 NA
ATOM      2  C   UNL     1      -1.571   4.315  25.157  0.00  0.00    +0.283 C 
ATOM      3  O   UNL     1      -1.529   5.106  25.388  0.00  0.00    -0.270 OA
ENDBRANCH   4   2
ENDBRANCH   5   4
ENDBRANCH   8   6
TORSDOF 5
ENDMDL
MODEL 2
REMARK VINA RESULT:     -10.8      1.263      1.706
REMARK  Name = 
REMARK  5 active torsions:
REMARK  status: ('A' for Active; 'I' for Inactive)
REMARK    1  A    between atoms: C_2  and  C_4
REMARK    2  A    between atoms: C_4  and  N_5
REMARK    3  A    between atoms: C_6  and  C_8
REMARK    4  A    between atoms: C_10  and  N_11
REMARK    5  A    between atoms: N_14  and  C_15
REMARK                            x       y       z     vdW  Elec       q    Type
REMARK                         _______ _______ _______ _____ _____    ______ ____
ROOT
ATOM      8  C   UNL     1      -2.830   2.989  25.102  0.00  0.00    +0.033 C 
ATOM      9  C   UNL     1      -3.234   2.298  25.302  0.00  0.00    -0.002 C 
ATOM     10  C   UNL     1      -3.923   2.090  24.897  0.00  0.00    +0.152 C 
ATOM     21  C   UNL     1      -4.207   2.574  24.293  0.00  0.00    +0.206 C 
ATOM     22  O   UNL     1      -4.895   2.368  23.888  0.00  0.00    -0.218 OA
ATOM     23  C   UNL     1      -3.803   3.266  24.092  0.00  0.00    +0.189 C 
ATOM     24  O   UNL     1      -4.087   3.749  23.489  0.00  0.00    -0.220 OA
ATOM     25  C   UNL     1      -3.115   3.472  24.497  0.00  0.00    +0.066 C 
ENDROOT
BRANCH  10  11
ATOM     11  N   UNL     1      -4.326   1.400  25.097  0.00  0.00    -0.182 NA
ATOM     12  C   UNL     1      -4.000   0.664  24.917  0.00  0.00    +0.340 C 
ATOM     13  O   UNL     1      -3.269   0.619  24.537  0.00  0.00    -0.249 OA
ATOM     14  N   UNL     1      -4.404  -0.027  25.117  0.00  0.00    -0.189 NA
BRANCH  14  15
ATOM     15  C   UNL     1      -4.077  -0.763  24.937  0.00  0.00    +0.097 C 
ATOM     16  C   UNL     1      -3.591  -1.144  25.483  0.00  0.00    +0.022 C 
ATOM     17  C   UNL     1      -3.266  -1.880  25.303  0.00  0.00    +0.002 C 
ATOM     18  C   UNL     1      -3.426  -2.235  24.576  0.00  0.00    +0.000 C 
ATOM     19  C   UNL     1      -3.912  -1.854  24.029  0.00  0.00    +0.002 C 
ATOM     20  C   UNL     1      -4.238  -1.118  24.210  0.00  0.00    +0.022 C 
ENDBRANCH  14  15
ENDBRANCH  10  11
BRANCH   8   6
ATOM      5  N   UNL     1      -1.427   2.828  25.322  0.00  0.00    -0.192 NA
ATOM      6  C   UNL     1      -2.141   3.196  25.506  0.00  0.00    +0.261 C 
ATOM      7  O   UNL     1      -2.168   3.774  26.096  0.00  0.00    -0.269 OA
BRANCH   5   4
ATOM      4  C   UNL     1      -0.739   3.036  25.727  0.00  0.00    +0.203 C 
BRANCH   4   2
ATOM      1  N   UNL     1       0.420   2.402  26.273  0.00  0.00    -0.086 NA
ATOM      2  C   UNL     1      -0.050   2.595  25.623  0.00  0.00    +0.283 C 
ATOM      3  O   UNL     1       0.170   2.346  24.868  0.00  0.00    -0.270 OA
ENDBRANCH   4   2
ENDBRANCH   5   4
ENDBRANCH   8   6
TORSDOF 5
ENDMDL
MODEL 3
REMARK VINA RESULT:     -10.7      1.092      4.535
REMARK  Name = 
REMARK  5 active torsions:
REMARK  status: ('A' for Active; 'I' for Inactive)
REMARK    1  A    between atoms: C_2  and  C_4
REMARK    2  A    between atoms: C_4  and  N_5
REMARK    3  A    between atoms: C_6  and  C_8
REMARK    4  A    between atoms: C_10  and  N_11
REMARK    5  A    between atoms: N_14  and  C_15
REMARK                            x       y       z     vdW  Elec       q    Type
REMARK                         _______ _______ _______ _____ _____    ______ ____
ROOT
ATOM      8  C   UNL     1      -4.335   1.153  24.660  0.00  0.00    +0.033 C 
ATOM      9  C   UNL     1      -3.878   1.690  25.087  0.00  0.00    -0.002 C 
ATOM     10  C   UNL     1      -4.229   2.359  25.419  0.00  0.00    +0.152 C 
ATOM     21  C   UNL     1      -5.038   2.491  25.324  0.00  0.00    +0.206 C 
ATOM     22  O   UNL     1      -5.389   3.159  25.655  0.00  0.00    -0.218 OA
ATOM     23  C   UNL     1      -5.496   1.953  24.897  0.00  0.00    +0.189 C 
ATOM     24  O   UNL     1      -6.304   2.084  24.802  0.00  0.00    -0.220 OA
ATOM     25  C   UNL     1      -5.144   1.284  24.565  0.00  0.00    +0.066 C 
ENDROOT
BRANCH  10  11
ATOM     11  N   UNL     1      -3.771   2.896  25.845  0.00  0.00    -0.182 NA
ATOM     12  C   UNL     1      -3.126   3.266  25.487  0.00  0.00    +0.340 C 
ATOM     13  O   UNL     1      -2.939   3.098  24.701  0.00  0.00    -0.249 OA
ATOM     14  N   UNL     1      -2.669   3.803  25.913  0.00  0.00    -0.189 NA
BRANCH  14  15
ATOM     15  C   UNL     1      -2.024   4.173  25.555  0.00  0.00    +0.097 C 
ATOM     16  C   UNL     1      -1.316   3.762  25.454  0.00  0.00    +0.022 C 
ATOM     17  C   UNL     1      -0.672   4.132  25.096  0.00  0.00    +0.002 C 
ATOM     18  C   UNL     1      -0.736   4.913  24.839  0.00  0.00    +0.000 C 
ATOM     19  C   UNL     1      -1.444   5.325  24.939  0.00  0.00    +0.002 C 
ATOM     20  C   UNL     1      -2.088   4.954  25.298  0.00  0.00    +0.022 C 
ENDBRANCH  14  15
ENDBRANCH  10  11
BRANCH   8   6
ATOM      5  N   UNL     1      -3.996  -0.233  24.735  0.00  0.00    -0.192 NA
ATOM      6  C   UNL     1      -3.985   0.484  24.328  0.00  0.00    +0.261 C 
ATOM      7  O   UNL     1      -3.623   0.532  23.587  0.00  0.00    -0.269 OA
BRANCH   5   4
ATOM      4  C   UNL     1      -3.645  -0.902  24.403  0.00  0.00    +0.203 C 
BRANCH   4   2
ATOM      1  N   UNL     1      -3.928  -2.303  24.359  0.00  0.00    -0.086 NA
ATOM      2  C   UNL     1      -3.704  -1.631  24.783  0.00  0.00    +0.283 C 
ATOM      3  O   UNL     1      -3.539  -1.690  25.590  0.00  0.00    -0.270 OA
ENDBRANCH   4   2
ENDBRANCH   5   4
ENDBRANCH   8   6
TORSDOF 5
ENDMDL
MODEL 4
REMARK VINA RESULT:     -10.4      2.357      4.623
REMARK  Name = 
REMARK  5 active torsions:
REMARK  status: ('A' for Active; 'I' for Inactive)
REMARK    1  A    between atoms: C_2  and  C_4
REMARK    2  A    between atoms: C_4  and  N_5
REMARK    3  A    between atoms: C_6  and  C_8
REMARK    4  A    between atoms: C_10  and  N_11
REMARK    5  A    between atoms: N_14  and  C_15
REMARK                            x       y       z     vdW  Elec       q    Type
REMARK                         _______ _______ _______ _____ _____    ______ ____
ROOT
ATOM      8  C   UNL     1      -0.604   1.405  24.703  0.00  0.00    +0.033 C 
ATOM      9  C   UNL     1      -1.276   1.839  24.501  0.00  0.00    -0.002 C 
ATOM     10  C   UNL     1      -1.400   2.586  24.829  0.00  0.00    +0.152 C 
ATOM     21  C   UNL     1      -0.851   2.899  25.359  0.00  0.00    +0.206 C 
ATOM     22  O   UNL     1      -0.974   3.646  25.688  0.00  0.00    -0.218 OA
ATOM     23  C   UNL     1      -0.178   2.465  25.562  0.00  0.00    +0.189 C 
ATOM     24  O   UNL     1       0.370   2.778  26.092  0.00  0.00    -0.220 OA
ATOM     25  C   UNL     1      -0.056   1.719  25.234  0.00  0.00    +0.066 C 
ENDROOT
BRANCH  10  11
ATOM     11  N   UNL     1      -2.071   3.019  24.627  0.00  0.00    -0.182 NA
ATOM     12  C   UNL     1      -2.819   2.754  24.856  0.00  0.00    +0.340 C 
ATOM     13  O   UNL     1      -2.893   2.055  25.288  0.00  0.00    -0.249 OA
ATOM     14  N   UNL     1      -3.490   3.188  24.655  0.00  0.00    -0.189 NA
BRANCH  14  15
ATOM     15  C   UNL     1      -4.237   2.923  24.884  0.00  0.00    +0.097 C 
ATOM     16  C   UNL     1      -4.629   2.354  24.435  0.00  0.00    +0.022 C 
ATOM     17  C   UNL     1      -5.376   2.090  24.665  0.00  0.00    +0.002 C 
ATOM     18  C   UNL     1      -5.731   2.395  25.344  0.00  0.00    +0.000 C 
ATOM     19  C   UNL     1      -5.339   2.965  25.793  0.00  0.00    +0.002 C 
ATOM     20  C   UNL     1      -4.592   3.229  25.563  0.00  0.00    +0.022 C 
ENDBRANCH  14  15
ENDBRANCH  10  11
BRANCH   8   6
ATOM      5  N   UNL     1      -0.689  -0.018  24.798  0.00  0.00    -0.192 NA
ATOM      6  C   UNL     1      -0.480   0.658  24.375  0.00  0.00    +0.261 C 
ATOM      7  O   UNL     1      -0.147   0.588  23.623  0.00  0.00    -0.269 OA
BRANCH   5   4
ATOM      4  C   UNL     1      -0.565  -0.765  24.470  0.00  0.00    +0.203 C 
BRANCH   4   2
ATOM      1  N   UNL     1      -1.512  -1.814  24.683  0.00  0.00    -0.086 NA
ATOM      2  C   UNL     1      -0.803  -1.440  24.879  0.00  0.00    +0.283 C 
ATOM      3  O   UNL     1      -0.332  -1.743  25.485  0.00  0.00    -0.270 OA
ENDBRANCH   4   2
ENDBRANCH   5   4
ENDBRANCH   8   6
TORSDOF 5
ENDMDL
MODEL 5
REMARK VINA RESULT:     -10.4      2.181      4.319
REMARK  Name = 
REMARK  5 active torsions:
REMARK  status: ('A' for Active; 'I' for Inactive)
REMARK    1  A    between atoms: C_2  and  C_4
REMARK    2  A    between atoms: C_4  and  N_5
REMARK    3  A    between atoms: C_6  and  C_8
REMARK    4  A    between atoms: C_10  and  N_11
REMARK    5  A    between atoms: N_14  and  C_15
REMARK                            x       y       z     vdW  Elec       q    Type
REMARK                         _______ _______ _______ _____ _____    ______ ____
ROOT
ATOM      8  C   UNL     1      -2.284  -1.012  24.689  0.00  0.00    +0.033 C 
ATOM      9  C   UNL     1      -2.825  -0.434  24.458  0.00  0.00    -0.002 C 
ATOM     10  C   UNL     1      -3.607  -0.642  24.295  0.00  0.00    +0.152 C 
ATOM     21  C   UNL     1      -3.848  -1.428  24.363  0.00  0.00    +0.206 C 
ATOM     22  O   UNL     1      -4.629  -1.636  24.201  0.00  0.00    -0.218 OA
ATOM     23  C   UNL     1      -3.306  -2.007  24.594  0.00  0.00    +0.189 C 
ATOM     24  O   UNL     1      -3.546  -2.792  24.662  0.00  0.00    -0.220 OA
ATOM     25  C   UNL     1      -2.525  -1.798  24.757  0.00  0.00    +0.066 C 
ENDROOT
BRANCH  10  11
ATOM     11  N   UNL     1      -4.148  -0.064  24.065  0.00  0.00    -0.182 NA
ATOM     12  C   UNL     1      -4.312   0.572  24.564  0.00  0.00    +0.340 C 
ATOM     13  O   UNL     1      -3.933   0.630  25.295  0.00  0.00    -0.249 OA
ATOM     14  N   UNL     1      -4.852   1.150  24.334  0.00  0.00    -0.189 NA
BRANCH  14  15
ATOM     15  C   UNL     1      -5.016   1.786  24.833  0.00  0.00    +0.097 C 
ATOM     16  C   UNL     1      -5.614   1.725  25.397  0.00  0.00    +0.022 C 
ATOM     17  C   UNL     1      -5.777   2.361  25.896  0.00  0.00    +0.002 C 
ATOM     18  C   UNL     1      -5.341   3.059  25.831  0.00  0.00    +0.000 C 
ATOM     19  C   UNL     1      -4.743   3.121  25.266  0.00  0.00    +0.002 C 
ATOM     20  C   UNL     1      -4.580   2.484  24.768  0.00  0.00    +0.022 C 
ENDBRANCH  14  15
ENDBRANCH  10  11
BRANCH   8   6
ATOM      5  N   UNL     1      -1.022  -0.501  24.254  0.00  0.00    -0.192 NA
ATOM      6  C   UNL     1      -1.502  -0.805  24.851  0.00  0.00    +0.261 C 
ATOM      7  O   UNL     1      -1.200  -0.901  25.614  0.00  0.00    -0.269 OA
BRANCH   5   4
ATOM      4  C   UNL     1      -0.240  -0.294  24.416  0.00  0.00    +0.203 C 
BRANCH   4   2
ATOM      1  N   UNL     1       0.622  -0.368  23.279  0.00  0.00    -0.086 NA
ATOM      2  C   UNL     1       0.216   0.080  23.841  0.00  0.00    +0.283 C 
ATOM      3  O   UNL     1       0.267   0.903  23.826  0.00  0.00    -0.270 OA
ENDBRANCH   4   2
ENDBRANCH   5   4
ENDBRANCH   8   6
TORSDOF 5
ENDMDL
MODEL 6
REMARK VINA RESULT:     -10.3      1.737      2.918
REMARK  Name = 
REMARK  5 active torsions:
REMARK  status: ('A' for Active; 'I' for Inactive)
REMARK    1  A    between atoms: C_2  and  C_4
REMARK    2  A    between atoms: C_4  and  N_5
REMARK    3  A    between atoms: C_6  and  C_8
REMARK    4  A    between atoms: C_10  and  N_11
REMARK    5  A    between atoms: N_14  and  C_15
REMARK                            x       y       z     vdW  Elec       q    Type
REMARK                         _______ _______ _______ _____ _____    ______ ____
ROOT
ATOM      8  C   UNL     1      -2.646   2.570  24.926  0.00  0.00    +0.033 C 
ATOM      9  C   UNL     1      -2.532   1.820  24.605  0.00  0.00    -0.002 C 
ATOM     10  C   UNL     1      -1.855   1.388  24.794  0.00  0.00    +0.152 C 
ATOM     21  C   UNL     1      -1.292   1.707  25.306  0.00  0.00    +0.206 C 
ATOM     22  O   UNL     1      -0.615   1.276  25.496  0.00  0.00    -0.218 OA
ATOM     23  C   UNL     1      -1.406   2.458  25.628  0.00  0.00    +0.189 C 
ATOM     24  O   UNL     1      -0.844   2.777  26.140  0.00  0.00    -0.220 OA
ATOM     25  C   UNL     1      -2.083   2.889  25.438  0.00  0.00    +0.066 C 
ENDROOT
BRANCH  10  11
ATOM     11  N   UNL     1      -1.740   0.637  24.472  0.00  0.00    -0.182 NA
ATOM     12  C   UNL     1      -2.293   0.040  24.609  0.00  0.00    +0.340 C 
ATOM     13  O   UNL     1      -2.962   0.195  25.067  0.00  0.00    -0.249 OA
ATOM     14  N   UNL     1      -2.179  -0.710  24.287  0.00  0.00    -0.189 NA
BRANCH  14  15
ATOM     15  C   UNL     1      -2.732  -1.307  24.423  0.00  0.00    +0.097 C 
ATOM     16  C   UNL     1      -3.406  -1.361  23.951  0.00  0.00    +0.022 C 
ATOM     17  C   UNL     1      -3.958  -1.958  24.087  0.00  0.00    +0.002 C 
ATOM     18  C   UNL     1      -3.837  -2.501  24.697  0.00  0.00    +0.000 C 
ATOM     19  C   UNL     1      -3.163  -2.447  25.169  0.00  0.00    +0.002 C 
ATOM     20  C   UNL     1      -2.611  -1.850  25.032  0.00  0.00    +0.022 C 
ENDBRANCH  14  15
ENDBRANCH  10  11
BRANCH   8   6
ATOM      5  N   UNL     1      -3.984   2.971  25.229  0.00  0.00    -0.192 NA
ATOM      6  C   UNL     1      -3.323   3.002  24.737  0.00  0.00    +0.261 C 
ATOM      7  O   UNL     1      -3.338   3.466  24.054  0.00  0.00    -0.269 OA
BRANCH   5   4
ATOM      4  C   UNL     1      -4.661   3.404  25.040  0.00  0.00    +0.203 C 
BRANCH   4   2
ATOM      1  N   UNL     1      -5.636   4.038  25.869  0.00  0.00    -0.086 NA
ATOM      2  C   UNL     1      -5.329   3.356  25.520  0.00  0.00    +0.283 C 
ATOM      3  O   UNL     1      -5.691   2.627  25.653  0.00  0.00    -0.270 OA
ENDBRANCH   4   2
ENDBRANCH   5   4
ENDBRANCH   8   6
TORSDOF 5
ENDMDL
MODEL 7
REMARK VINA RESULT:     -10.2      2.361      5.573
REMARK  Name = 
REMARK  5 active torsions:
REMARK  status: ('A' for Active; 'I' for Inactive)
REMARK    1  A    between atoms: C_2  and  C_4
REMARK    2  A    between atoms: C_4  and  N_5
REMARK    3  A    between atoms: C_6  and  C_8
REMARK    4  A    between atoms: C_10  and  N_11
REMARK    5  A    between atoms: N_14  and  C_15
REMARK                            x       y       z     vdW  Elec       q    Type
REMARK                         _______ _______ _______ _____ _____    ______ ____
ROOT
ATOM      8  C   UNL     1      -1.449  -0.267  24.912  0.00  0.00    +0.033 C 
ATOM      9  C   UNL     1      -1.278   0.440  25.299  0.00  0.00    -0.002 C 
ATOM     10  C   UNL     1      -0.612   0.877  25.086  0.00  0.00    +0.152 C 
ATOM     21  C   UNL     1      -0.115   0.606  24.486  0.00  0.00    +0.206 C 
ATOM     22  O   UNL     1       0.552   1.042  24.272  0.00  0.00    -0.218 OA
ATOM     23  C   UNL     1      -0.286  -0.103  24.098  0.00  0.00    +0.189 C 
ATOM     24  O   UNL     1       0.210  -0.374  23.498  0.00  0.00    -0.220 OA
ATOM     25  C   UNL     1      -0.953  -0.539  24.311  0.00  0.00    +0.066 C 
ENDROOT
BRANCH  10  11
ATOM     11  N   UNL     1      -0.441   1.585  25.473  0.00  0.00    -0.182 NA
ATOM     12  C   UNL     1      -0.902   2.255  25.333  0.00  0.00    +0.340 C 
ATOM     13  O   UNL     1      -1.535   2.216  24.805  0.00  0.00    -0.249 OA
ATOM     14  N   UNL     1      -0.732   2.962  25.720  0.00  0.00    -0.189 NA
BRANCH  14  15
ATOM     15  C   UNL     1      -1.193   3.632  25.580  0.00  0.00    +0.097 C 
ATOM     16  C   UNL     1      -1.946   3.691  25.909  0.00  0.00    +0.022 C 
ATOM     17  C   UNL     1      -2.407   4.360  25.768  0.00  0.00    +0.002 C 
ATOM     18  C   UNL     1      -2.113   4.971  25.298  0.00  0.00    +0.000 C 
ATOM     19  C   UNL     1      -1.359   4.913  24.968  0.00  0.00    +0.002 C 
ATOM     20  C   UNL     1      -0.899   4.243  25.109  0.00  0.00    +0.022 C 
ENDBRANCH  14  15
ENDBRANCH  10  11
BRANCH   8   6
ATOM      5  N   UNL     1      -2.761  -0.748  24.613  0.00  0.00    -0.192 NA
ATOM      6  C   UNL     1      -2.116  -0.705  25.124  0.00  0.00    +0.261 C 
ATOM      7  O   UNL     1      -2.136  -1.099  25.850  0.00  0.00    -0.269 OA
BRANCH   5   4
ATOM      4  C   UNL     1      -3.428  -1.186  24.826  0.00  0.00    +0.203 C 
BRANCH   4   2
ATOM      1  N   UNL     1      -4.257  -1.902  23.908  0.00  0.00    -0.086 NA
ATOM      2  C   UNL     1      -4.082  -1.211  24.325  0.00  0.00    +0.283 C 
ATOM      3  O   UNL     1      -4.562  -0.546  24.239  0.00  0.00    -0.270 OA
ENDBRANCH   4   2
ENDBRANCH   5   4
ENDBRANCH   8   6
TORSDOF 5
ENDMDL
