MODEL 1
REMARK VINA RESULT:     -12.0      0.000      0.000
REMARK  Name = 
REMARK  4 active torsions:
REMARK  status: ('A' for Active; 'I' for Inactive)
REMARK    1  A    between atoms: C_7  and  C_8
REMARK    2  A    between atoms: C_8  and  N_9
REMARK    3  A    between atoms: C_12  and  C_14
REMARK    4  A    between atoms: C_17  and  C_19
REMARK                            x       y       z     vdW  Elec       q    Type
REMARK                         _______ _______ _______ _____ _____    ______ ____
ROOT
ATOM      9  N   UNL     1      -3.270   3.391  25.101  0.00  0.00    -0.268 NA
ATOM     10  C   UNL     1      -3.606   3.475  24.352  0.00  0.00    +0.073 C 
ATOM     11  C   UNL     1      -3.987   2.768  24.164  0.00  0.00    +0.028 C 
ATOM     12  C   UNL     1      -3.886   2.247  24.796  0.00  0.00    +0.096 C 
ATOM     13  C   UNL     1      -3.443   2.633  25.376  0.00  0.00    +0.082 C 
ENDROOT
BRANCH  12  14
ATOM     14  C   UNL     1      -4.177   1.477  24.842  0.00  0.00    +0.227 A 
ATOM     15  N   UNL     1      -4.955   1.262  25.016  0.00  0.00    -0.111 NA
ATOM     16  N   UNL     1      -5.001   0.439  25.003  0.00  0.00    -0.107 NA
ATOM     17  C   UNL     1      -4.252   0.144  24.822  0.00  0.00    +0.250 A 
ATOM     18  O   UNL     1      -3.743   0.786  24.722  0.00  0.00    -0.419 OA
BRANCH  17  19
ATOM     19  C   UNL     1      -4.047  -0.652  24.752  0.00  0.00    +0.058 A 
ATOM     20  C   UNL     1      -4.238  -1.068  24.065  0.00  0.00    +0.025 A 
ATOM     21  C   UNL     1      -4.034  -1.865  23.996  0.00  0.00    +0.099 A 
ATOM     22  N   UNL     1      -3.639  -2.245  24.612  0.00  0.00    -0.242 NA
ATOM     23  C   UNL     1      -3.448  -1.828  25.298  0.00  0.00    +0.099 A 
ATOM     24  C   UNL     1      -3.652  -1.032  25.368  0.00  0.00    +0.025 A 
ENDBRANCH  17  19
ENDBRANCH  12  14
BRANCH   9   8
ATOM      8  C   UNL     1      -2.836   3.965  25.504  0.00  0.00    +0.101 C 
BRANCH   8   7
ATOM      1  F   UNL     1      -2.255   5.472  25.168  0.00  0.00    -0.204 F 
ATOM      2  C   UNL     1      -1.744   4.825  25.169  0.00  0.00    +0.137 A 
ATOM      3  C   UNL     1      -0.944   4.930  25.001  0.00  0.00    +0.029 A 
ATOM      4  C   UNL     1      -0.433   4.282  25.002  0.00  0.00    +0.002 A 
ATOM      5  C   UNL     1      -0.723   3.528  25.171  0.00  0.00    -0.000 A 
ATOM      6  C   UNL     1      -1.525   3.423  25.338  0.00  0.00    -0.001 A 
ATOM      7  C   UNL     1      -2.035   4.071  25.337  0.00  0.00    +0.021 A 
ENDBRANCH   8   7
ENDBRANCH   9   8
TORSDOF 4
ENDMDL
MODEL 2
REMARK VINA RESULT:     -11.8      2.476      5.589
REMARK  Name = 
REMARK  4 active torsions:
REMARK  status: ('A' for Active; 'I' for Inactive)
REMARK    1  A    between atoms: C_7  and  C_8
REMARK    2  A    between atoms: C_8  and  N_9
REMARK    3  A    between atoms: C_12  and  C_14
REMARK    4  A    between atoms: C_17  and  C_19
REMARK                            x       y       z     vdW  Elec       q    Type
REMARK                         _______ _______ _______ _____ _____    ______ ____
ROOT
ATOM      9  N   UNL     1      -1.888  -0.666  25.287  0.00  0.00    -0.268 NA
ATOM     10  C   UNL     1      -1.273  -0.706  24.738  0.00  0.00    +0.073 C 
ATOM     11  C   UNL     1      -0.884   0.021  24.739  0.00  0.00    +0.028 C 
ATOM     12  C   UNL     1      -1.257   0.510  25.289  0.00  0.00    +0.096 C 
ATOM     13  C   UNL     1      -1.879   0.085  25.627  0.00  0.00    +0.082 C 
ENDROOT
BRANCH  12  14
ATOM     14  C   UNL     1      -1.048   1.287  25.468  0.00  0.00    +0.227 A 
ATOM     15  N   UNL     1      -0.390   1.523  25.907  0.00  0.00    -0.111 NA
ATOM     16  N   UNL     1      -0.394   2.346  25.951  0.00  0.00    -0.107 NA
ATOM     17  C   UNL     1      -1.054   2.620  25.539  0.00  0.00    +0.250 A 
ATOM     18  O   UNL     1      -1.458   1.965  25.240  0.00  0.00    -0.419 OA
BRANCH  17  19
ATOM     19  C   UNL     1      -1.273   3.410  25.442  0.00  0.00    +0.058 A 
ATOM     20  C   UNL     1      -0.761   3.936  25.064  0.00  0.00    +0.025 A 
ATOM     21  C   UNL     1      -0.980   4.726  24.967  0.00  0.00    +0.099 A 
ATOM     22  N   UNL     1      -1.709   4.990  25.248  0.00  0.00    -0.242 NA
ATOM     23  C   UNL     1      -2.220   4.464  25.626  0.00  0.00    +0.099 A 
ATOM     24  C   UNL     1      -2.002   3.674  25.723  0.00  0.00    +0.025 A 
ENDBRANCH  17  19
ENDBRANCH  12  14
BRANCH   9   8
ATOM      8  C   UNL     1      -2.419  -1.272  25.465  0.00  0.00    +0.101 C 
BRANCH   8   7
ATOM      1  F   UNL     1      -2.664  -2.820  24.949  0.00  0.00    -0.204 F 
ATOM      2  C   UNL     1      -3.162  -2.215  24.689  0.00  0.00    +0.137 A 
ATOM      3  C   UNL     1      -3.782  -2.384  24.173  0.00  0.00    +0.029 A 
ATOM      4  C   UNL     1      -4.281  -1.780  23.914  0.00  0.00    +0.002 A 
ATOM      5  C   UNL     1      -4.158  -1.006  24.172  0.00  0.00    -0.000 A 
ATOM      6  C   UNL     1      -3.538  -0.836  24.689  0.00  0.00    -0.001 A 
ATOM      7  C   UNL     1      -3.040  -1.441  24.947  0.00  0.00    +0.021 A 
ENDBRANCH   8   7
ENDBRANCH   9   8
TORSDOF 4
ENDMDL
MODEL 3
REMARK VINA RESULT:     -11.7      1.875      5.167
REMARK  Name = 
REMARK  4 active torsions:
REMARK  status: ('A' for Active; 'I' for Inactive)
REMARK    1  A    between atoms: C_7  and  C_8
REMARK    2  A    between atoms: C_8  and  N_9
REMARK    3  A    between atoms: C_12  and  C_14
REMARK    4  A    between atoms: C_17  and  C_19
REMARK                            x       y       z     vdW  Elec       q    Type
REMARK                         _______ _______ _______ _____ _____    ______ ____
ROOT
ATOM      9  N   UNL     1      -4.362   0.193  24.377  0.00  0.00    -0.268 NA
ATOM     10  C   UNL     1      -4.837   0.450  25.001  0.00  0.00    +0.073 C 
ATOM     11  C   UNL     1      -4.656   1.241  25.148  0.00  0.00    +0.028 C 
ATOM     12  C   UNL     1      -4.071   1.473  24.616  0.00  0.00    +0.096 C 
ATOM     13  C   UNL     1      -3.889   0.825  24.139  0.00  0.00    +0.082 C 
ENDROOT
BRANCH  12  14
ATOM     14  C   UNL     1      -3.727   2.221  24.568  0.00  0.00    +0.227 A 
ATOM     15  N   UNL     1      -4.083   2.900  24.261  0.00  0.00    -0.111 NA
ATOM     16  N   UNL     1      -3.544   3.521  24.322  0.00  0.00    -0.107 NA
ATOM     17  C   UNL     1      -2.854   3.227  24.667  0.00  0.00    +0.250 A 
ATOM     18  O   UNL     1      -2.968   2.423  24.819  0.00  0.00    -0.419 OA
BRANCH  17  19
ATOM     19  C   UNL     1      -2.171   3.659  24.831  0.00  0.00    +0.058 A 
ATOM     20  C   UNL     1      -2.230   4.417  25.153  0.00  0.00    +0.025 A 
ATOM     21  C   UNL     1      -1.547   4.850  25.317  0.00  0.00    +0.099 A 
ATOM     22  N   UNL     1      -0.805   4.525  25.160  0.00  0.00    -0.242 NA
ATOM     23  C   UNL     1      -0.747   3.767  24.839  0.00  0.00    +0.099 A 
ATOM     24  C   UNL     1      -1.429   3.335  24.674  0.00  0.00    +0.025 A 
ENDBRANCH  17  19
ENDBRANCH  12  14
BRANCH   9   8
ATOM      8  C   UNL     1      -4.361  -0.564  24.048  0.00  0.00    +0.101 C 
BRANCH   8   7
ATOM      1  F   UNL     1      -4.351  -2.075  23.388  0.00  0.00    -0.204 F 
ATOM      2  C   UNL     1      -3.992  -1.943  24.118  0.00  0.00    +0.137 A 
ATOM      3  C   UNL     1      -3.628  -2.565  24.519  0.00  0.00    +0.029 A 
ATOM      4  C   UNL     1      -3.269  -2.433  25.249  0.00  0.00    +0.002 A 
ATOM      5  C   UNL     1      -3.273  -1.677  25.580  0.00  0.00    -0.000 A 
ATOM      6  C   UNL     1      -3.637  -1.053  25.179  0.00  0.00    -0.001 A 
ATOM      7  C   UNL     1      -3.997  -1.187  24.449  0.00  0.00    +0.021 A 
ENDBRANCH   8   7
ENDBRANCH   9   8
TORSDOF 4
ENDMDL
MODEL 4
REMARK VINA RESULT:     -11.6      1.173      1.503
REMARK  Name = 
REMARK  4 active torsions:
REMARK  status: ('A' for Active; 'I' for Inactive)
REMARK    1  A    between atoms: C_7  and  C_8
REMARK    2  A    between atoms: C_8  and  N_9
REMARK    3  A    between atoms: C_12  and  C_14
REMARK    4  A    between atoms: C_17  and  C_19
REMARK                            x       y       z     vdW  Elec       q    Type
REMARK                         _______ _______ _______ _____ _____    ______ ____
ROOT
ATOM      9  N   UNL     1      -1.754   2.333  24.502  0.00  0.00    -0.268 NA
ATOM     10  C   UNL     1      -2.000   2.387  23.717  0.00  0.00    +0.073 C 
ATOM     11  C   UNL     1      -2.567   1.802  23.587  0.00  0.00    +0.028 C 
ATOM     12  C   UNL     1      -2.670   1.386  24.293  0.00  0.00    +0.096 C 
ATOM     13  C   UNL     1      -2.167   1.715  24.858  0.00  0.00    +0.082 C 
ENDROOT
BRANCH  12  14
ATOM     14  C   UNL     1      -3.186   0.754  24.412  0.00  0.00    +0.227 A 
ATOM     15  N   UNL     1      -3.975   0.809  24.646  0.00  0.00    -0.111 NA
ATOM     16  N   UNL     1      -4.280   0.044  24.697  0.00  0.00    -0.107 NA
ATOM     17  C   UNL     1      -3.679  -0.484  24.495  0.00  0.00    +0.250 A 
ATOM     18  O   UNL     1      -3.002  -0.045  24.319  0.00  0.00    -0.419 OA
BRANCH  17  19
ATOM     19  C   UNL     1      -3.743  -1.307  24.473  0.00  0.00    +0.058 A 
ATOM     20  C   UNL     1      -3.369  -1.765  25.048  0.00  0.00    +0.025 A 
ATOM     21  C   UNL     1      -3.432  -2.587  25.026  0.00  0.00    +0.099 A 
ATOM     22  N   UNL     1      -3.870  -2.951  24.429  0.00  0.00    -0.242 NA
ATOM     23  C   UNL     1      -4.244  -2.492  23.854  0.00  0.00    +0.099 A 
ATOM     24  C   UNL     1      -4.181  -1.671  23.876  0.00  0.00    +0.025 A 
ENDBRANCH  17  19
ENDBRANCH  12  14
BRANCH   9   8
ATOM      8  C   UNL     1      -1.192   2.814  24.867  0.00  0.00    +0.101 C 
BRANCH   8   7
ATOM      1  F   UNL     1      -0.156   3.993  24.357  0.00  0.00    -0.204 F 
ATOM      2  C   UNL     1      -0.845   4.197  24.764  0.00  0.00    +0.137 A 
ATOM      3  C   UNL     1      -1.016   4.989  24.915  0.00  0.00    +0.029 A 
ATOM      4  C   UNL     1      -1.704   5.193  25.322  0.00  0.00    +0.002 A 
ATOM      5  C   UNL     1      -2.222   4.604  25.577  0.00  0.00    -0.000 A 
ATOM      6  C   UNL     1      -2.051   3.810  25.425  0.00  0.00    -0.001 A 
ATOM      7  C   UNL     1      -1.363   3.607  25.019  0.00  0.00    +0.021 A 
ENDBRANCH   8   7
ENDBRANCH   9   8
TORSDOF 4
ENDMDL
