MODEL 1
REMARK VINA RESULT:     -11.9      0.000      0.000
REMARK  Name = 
REMARK  3 active torsions:
REMARK  status: ('A' for Active; 'I' for Inactive)
REMARK    1  A    between atoms: C_2  and  C_20
REMARK    2  A    between atoms: N_10  and  C_11
REMARK    3  A    between atoms: C_11  and  C_12
REMARK                            x       y       z     vdW  Elec       q    Type
REMARK                         _______ _______ _______ _____ _____    ______ ____
ROOT
ATOM      1  O   UNL     1      -2.713   0.258  23.806  0.00  0.00    -0.270 OA
ATOM      2  C   UNL     1      -3.379   0.047  24.246  0.00  0.00    +0.249 C 
ATOM      3  N   UNL     1      -3.878   0.631  24.546  0.00  0.00    -0.272 N 
ATOM      4  C   UNL     1      -4.560   0.504  24.994  0.00  0.00    +0.125 C 
ATOM      5  C   UNL     1      -4.885   1.239  25.175  0.00  0.00    +0.155 C 
ATOM      6  O   UNL     1      -5.558   1.455  25.602  0.00  0.00    -0.343 OA
ATOM      7  C   UNL     1      -5.750   2.252  25.695  0.00  0.00    +0.227 C 
ATOM      8  C   UNL     1      -5.270   2.833  25.360  0.00  0.00    +0.256 C 
ATOM      9  O   UNL     1      -5.462   3.631  25.453  0.00  0.00    -0.272 OA
ATOM     10  N   UNL     1      -4.598   2.618  24.933  0.00  0.00    -0.271 N 
ATOM     18  C   UNL     1      -4.405   1.821  24.841  0.00  0.00    +0.124 C 
ATOM     19  C   UNL     1      -3.783   1.445  24.452  0.00  0.00    +0.116 C 
ENDROOT
BRANCH   2  20
ATOM     20  C   UNL     1      -3.545  -0.750  24.386  0.00  0.00    +0.057 A 
ATOM     21  C   UNL     1      -3.254  -1.119  25.064  0.00  0.00    +0.025 A 
ATOM     22  C   UNL     1      -3.420  -1.914  25.203  0.00  0.00    +0.099 A 
ATOM     23  N   UNL     1      -3.877  -2.342  24.665  0.00  0.00    -0.242 NA
ATOM     24  C   UNL     1      -4.168  -1.972  23.987  0.00  0.00    +0.099 A 
ATOM     25  C   UNL     1      -4.002  -1.176  23.847  0.00  0.00    +0.025 A 
ENDBRANCH   2  20
BRANCH  10  11
ATOM     11  C   UNL     1      -4.118   3.200  24.598  0.00  0.00    +0.122 C 
BRANCH  11  12
ATOM     12  C   UNL     1      -3.502   3.528  25.037  0.00  0.00    +0.017 A 
ATOM     13  C   UNL     1      -2.740   3.559  24.721  0.00  0.00    +0.001 A 
ATOM     14  C   UNL     1      -2.124   3.887  25.159  0.00  0.00    +0.020 A 
ATOM     15  C   UNL     1      -2.269   4.185  25.915  0.00  0.00    +0.099 A 
ATOM     16  N   UNL     1      -3.029   4.155  26.232  0.00  0.00    -0.243 NA
ATOM     17  C   UNL     1      -3.646   3.826  25.793  0.00  0.00    +0.096 A 
ENDBRANCH  11  12
ENDBRANCH  10  11
TORSDOF 3
ENDMDL
MODEL 2
REMARK VINA RESULT:     -11.1      1.348      2.273
REMARK  Name = 
REMARK  3 active torsions:
REMARK  status: ('A' for Active; 'I' for Inactive)
REMARK    1  A    between atoms: C_2  and  C_20
REMARK    2  A    between atoms: N_10  and  C_11
REMARK    3  A    between atoms: C_11  and  C_12
REMARK                            x       y       z     vdW  Elec       q    Type
REMARK                         _______ _______ _______ _____ _____    ______ ____
ROOT
ATOM      1  O   UNL     1      -4.711   0.167  24.624  0.00  0.00    -0.270 OA
ATOM      2  C   UNL     1      -3.958  -0.163  24.553  0.00  0.00    +0.249 C 
ATOM      3  N   UNL     1      -3.305   0.322  24.421  0.00  0.00    -0.272 N 
ATOM      4  C   UNL     1      -2.523   0.071  24.339  0.00  0.00    +0.125 C 
ATOM      5  C   UNL     1      -2.054   0.738  24.215  0.00  0.00    +0.155 C 
ATOM      6  O   UNL     1      -1.242   0.828  24.098  0.00  0.00    -0.343 OA
ATOM      7  C   UNL     1      -0.922   1.579  23.985  0.00  0.00    +0.227 C 
ATOM      8  C   UNL     1      -1.413   2.242  23.990  0.00  0.00    +0.256 C 
ATOM      9  O   UNL     1      -1.093   2.994  23.878  0.00  0.00    -0.272 OA
ATOM     10  N   UNL     1      -2.225   2.153  24.107  0.00  0.00    -0.271 N 
ATOM     18  C   UNL     1      -2.545   1.400  24.219  0.00  0.00    +0.124 C 
ATOM     19  C   UNL     1      -3.318   1.144  24.347  0.00  0.00    +0.116 C 
ENDROOT
BRANCH   2  20
ATOM     20  C   UNL     1      -3.860  -0.981  24.615  0.00  0.00    +0.057 A 
ATOM     21  C   UNL     1      -3.610  -1.313  25.328  0.00  0.00    +0.025 A 
ATOM     22  C   UNL     1      -3.511  -2.129  25.390  0.00  0.00    +0.099 A 
ATOM     23  N   UNL     1      -3.662  -2.614  24.739  0.00  0.00    -0.242 NA
ATOM     24  C   UNL     1      -3.913  -2.282  24.027  0.00  0.00    +0.099 A 
ATOM     25  C   UNL     1      -4.011  -1.464  23.965  0.00  0.00    +0.025 A 
ENDBRANCH   2  20
BRANCH  10  11
ATOM     11  C   UNL     1      -2.716   2.816  24.112  0.00  0.00    +0.122 C 
BRANCH  11  12
ATOM     12  C   UNL     1      -2.830   3.239  24.810  0.00  0.00    +0.017 A 
ATOM     13  C   UNL     1      -3.591   3.345  25.110  0.00  0.00    +0.001 A 
ATOM     14  C   UNL     1      -3.705   3.768  25.808  0.00  0.00    +0.020 A 
ATOM     15  C   UNL     1      -3.057   4.087  26.207  0.00  0.00    +0.099 A 
ATOM     16  N   UNL     1      -2.296   3.983  25.908  0.00  0.00    -0.243 NA
ATOM     17  C   UNL     1      -2.182   3.558  25.209  0.00  0.00    +0.096 A 
ENDBRANCH  11  12
ENDBRANCH  10  11
TORSDOF 3
ENDMDL
MODEL 3
REMARK VINA RESULT:     -10.7      1.164      4.865
REMARK  Name = 
REMARK  3 active torsions:
REMARK  status: ('A' for Active; 'I' for Inactive)
REMARK    1  A    between atoms: C_2  and  C_20
REMARK    2  A    between atoms: N_10  and  C_11
REMARK    3  A    between atoms: C_11  and  C_12
REMARK                            x       y       z     vdW  Elec       q    Type
REMARK                         _______ _______ _______ _____ _____    ______ ____
ROOT
ATOM      1  O   UNL     1      -5.030   1.584  25.074  0.00  0.00    -0.270 OA
ATOM      2  C   UNL     1      -4.253   1.812  24.919  0.00  0.00    +0.249 C 
ATOM      3  N   UNL     1      -3.643   1.258  24.966  0.00  0.00    -0.272 N 
ATOM      4  C   UNL     1      -2.843   1.405  24.826  0.00  0.00    +0.125 C 
ATOM      5  C   UNL     1      -2.432   0.698  24.934  0.00  0.00    +0.155 C 
ATOM      6  O   UNL     1      -1.631   0.510  24.871  0.00  0.00    -0.343 OA
ATOM      7  C   UNL     1      -1.375  -0.261  25.014  0.00  0.00    +0.227 C 
ATOM      8  C   UNL     1      -1.921  -0.844  25.221  0.00  0.00    +0.256 C 
ATOM      9  O   UNL     1      -1.665  -1.616  25.364  0.00  0.00    -0.272 OA
ATOM     10  N   UNL     1      -2.722  -0.657  25.284  0.00  0.00    -0.271 N 
ATOM     18  C   UNL     1      -2.977   0.115  25.140  0.00  0.00    +0.124 C 
ATOM     19  C   UNL     1      -3.725   0.461  25.160  0.00  0.00    +0.116 C 
ENDROOT
BRANCH   2  20
ATOM     20  C   UNL     1      -4.085   2.594  24.717  0.00  0.00    +0.057 A 
ATOM     21  C   UNL     1      -4.058   2.819  23.923  0.00  0.00    +0.025 A 
ATOM     22  C   UNL     1      -3.890   3.600  23.722  0.00  0.00    +0.099 A 
ATOM     23  N   UNL     1      -3.750   4.159  24.313  0.00  0.00    -0.242 NA
ATOM     24  C   UNL     1      -3.778   3.934  25.106  0.00  0.00    +0.099 A 
ATOM     25  C   UNL     1      -3.945   3.152  25.309  0.00  0.00    +0.025 A 
ENDBRANCH   2  20
BRANCH  10  11
ATOM     11  C   UNL     1      -3.267  -1.241  25.490  0.00  0.00    +0.122 C 
BRANCH  11  12
ATOM     12  C   UNL     1      -3.517  -1.788  24.927  0.00  0.00    +0.017 A 
ATOM     13  C   UNL     1      -4.067  -1.569  24.352  0.00  0.00    +0.001 A 
ATOM     14  C   UNL     1      -4.317  -2.116  23.789  0.00  0.00    +0.020 A 
ATOM     15  C   UNL     1      -4.018  -2.885  23.801  0.00  0.00    +0.099 A 
ATOM     16  N   UNL     1      -3.469  -3.106  24.375  0.00  0.00    -0.243 NA
ATOM     17  C   UNL     1      -3.218  -2.557  24.939  0.00  0.00    +0.096 A 
ENDBRANCH  11  12
ENDBRANCH  10  11
TORSDOF 3
ENDMDL
MODEL 4
REMARK VINA RESULT:     -10.5      1.701      2.655
REMARK  Name = 
REMARK  3 active torsions:
REMARK  status: ('A' for Active; 'I' for Inactive)
REMARK    1  A    between atoms: C_2  and  C_20
REMARK    2  A    between atoms: N_10  and  C_11
REMARK    3  A    between atoms: C_11  and  C_12
REMARK                            x       y       z     vdW  Elec       q    Type
REMARK                         _______ _______ _______ _____ _____    ______ ____
ROOT
ATOM      1  O   UNL     1      -3.064  -0.437  24.250  0.00  0.00    -0.270 OA
ATOM      2  C   UNL     1      -2.414  -0.039  24.565  0.00  0.00    +0.249 C 
ATOM      3  N   UNL     1      -2.443   0.778  24.676  0.00  0.00    -0.272 N 
ATOM      4  C   UNL     1      -1.838   1.247  24.984  0.00  0.00    +0.125 C 
ATOM      5  C   UNL     1      -2.104   2.028  24.996  0.00  0.00    +0.155 C 
ATOM      6  O   UNL     1      -1.745   2.729  25.242  0.00  0.00    -0.343 OA
ATOM      7  C   UNL     1      -2.154   3.443  25.188  0.00  0.00    +0.227 C 
ATOM      8  C   UNL     1      -2.922   3.456  24.888  0.00  0.00    +0.256 C 
ATOM      9  O   UNL     1      -3.332   4.171  24.833  0.00  0.00    -0.272 OA
ATOM     10  N   UNL     1      -3.282   2.756  24.642  0.00  0.00    -0.271 N 
ATOM     18  C   UNL     1      -2.872   2.041  24.696  0.00  0.00    +0.124 C 
ATOM     19  C   UNL     1      -3.082   1.269  24.498  0.00  0.00    +0.116 C 
ENDROOT
BRANCH   2  20
ATOM     20  C   UNL     1      -1.734  -0.460  24.770  0.00  0.00    +0.057 A 
ATOM     21  C   UNL     1      -1.121  -0.546  24.224  0.00  0.00    +0.025 A 
ATOM     22  C   UNL     1      -0.442  -0.965  24.428  0.00  0.00    +0.099 A 
ATOM     23  N   UNL     1      -0.374  -1.300  25.180  0.00  0.00    -0.242 NA
ATOM     24  C   UNL     1      -0.986  -1.214  25.726  0.00  0.00    +0.099 A 
ATOM     25  C   UNL     1      -1.667  -0.794  25.521  0.00  0.00    +0.025 A 
ENDBRANCH   2  20
BRANCH  10  11
ATOM     11  C   UNL     1      -4.050   2.769  24.341  0.00  0.00    +0.122 C 
BRANCH  11  12
ATOM     12  C   UNL     1      -4.693   2.691  24.851  0.00  0.00    +0.017 A 
ATOM     13  C   UNL     1      -5.244   2.088  24.732  0.00  0.00    +0.001 A 
ATOM     14  C   UNL     1      -5.887   2.010  25.242  0.00  0.00    +0.020 A 
ATOM     15  C   UNL     1      -5.980   2.534  25.872  0.00  0.00    +0.099 A 
ATOM     16  N   UNL     1      -5.430   3.137  25.992  0.00  0.00    -0.243 NA
ATOM     17  C   UNL     1      -4.786   3.215  25.481  0.00  0.00    +0.096 A 
ENDBRANCH  11  12
ENDBRANCH  10  11
TORSDOF 3
ENDMDL
