MODEL 1
REMARK VINA RESULT:     -11.9      0.000      0.000
REMARK  Name = 
REMARK  4 active torsions:
REMARK  status: ('A' for Active; 'I' for Inactive)
REMARK    1  A    between atoms: C_4  and  C_13
REMARK    2  A    between atoms: N_5  and  C_7
REMARK    3  A    between atoms: C_15  and  C_18
REMARK    4  A    between atoms: C_22  and  N_24
REMARK                            x       y       z     vdW  Elec       q    Type
REMARK                         _______ _______ _______ _____ _____    ______ ____
ROOT
ATOM     13  C   UNL     1      -3.713  -0.344  24.232  0.00  0.00    +0.251 A 
ATOM     14  N   UNL     1      -4.135   0.136  24.754  0.00  0.00    -0.190 NA
ATOM     15  C   UNL     1      -4.153   0.899  24.441  0.00  0.00    +0.203 A 
ATOM     16  N   UNL     1      -3.743   0.892  23.726  0.00  0.00    -0.056 NA
ATOM     17  O   UNL     1      -3.471   0.124  23.596  0.00  0.00    -0.336 OA
ENDROOT
BRANCH  13   4
ATOM      1  O   UNL     1      -4.001  -3.232  24.196  0.00  0.00    -0.222 OA
ATOM      2  C   UNL     1      -3.692  -2.476  24.311  0.00  0.00    +0.170 C 
ATOM      3  C   UNL     1      -4.065  -1.766  24.119  0.00  0.00    +0.060 C 
ATOM      4  C   UNL     1      -3.560  -1.148  24.327  0.00  0.00    +0.140 C 
ATOM      5  N   UNL     1      -2.875  -1.477  24.649  0.00  0.00    -0.265 NA
ATOM      6  C   UNL     1      -2.957  -2.298  24.639  0.00  0.00    +0.106 C 
BRANCH   5   7
ATOM      7  C   UNL     1      -2.222  -1.059  24.931  0.00  0.00    +0.058 C 
ATOM      8  C   UNL     1      -1.610  -0.855  24.417  0.00  0.00    +0.016 C 
ATOM      9  C   UNL     1      -0.956  -0.436  24.698  0.00  0.00    +0.001 C 
ATOM     10  C   UNL     1      -0.916  -0.222  25.495  0.00  0.00    +0.000 C 
ATOM     11  C   UNL     1      -1.528  -0.426  26.008  0.00  0.00    +0.001 C 
ATOM     12  C   UNL     1      -2.182  -0.844  25.726  0.00  0.00    +0.016 C 
ENDBRANCH   5   7
ENDBRANCH  13   4
BRANCH  15  18
ATOM     18  C   UNL     1      -4.518   1.555  24.784  0.00  0.00    +0.041 A 
ATOM     19  C   UNL     1      -5.306   1.510  25.024  0.00  0.00    +0.003 A 
ATOM     20  C   UNL     1      -5.671   2.165  25.367  0.00  0.00    +0.002 A 
ATOM     21  C   UNL     1      -5.248   2.866  25.470  0.00  0.00    +0.024 A 
ATOM     22  C   UNL     1      -4.460   2.912  25.230  0.00  0.00    +0.143 A 
ATOM     23  C   UNL     1      -4.095   2.256  24.887  0.00  0.00    +0.027 A 
BRANCH  22  24
ATOM     24  N   UNL     1      -4.037   3.612  25.332  0.00  0.00    +0.058 N 
ATOM     25  O   UNL     1      -3.714   3.794  26.069  0.00  0.00    -0.126 OA
ATOM     26  O   UNL     1      -3.936   4.130  24.698  0.00  0.00    -0.126 OA
ENDBRANCH  22  24
ENDBRANCH  15  18
TORSDOF 4
ENDMDL
MODEL 2
REMARK VINA RESULT:     -11.8      1.066      2.023
REMARK  Name = 
REMARK  4 active torsions:
REMARK  status: ('A' for Active; 'I' for Inactive)
REMARK    1  A    between atoms: C_4  and  C_13
REMARK    2  A    between atoms: N_5  and  C_7
REMARK    3  A    between atoms: C_15  and  C_18
REMARK    4  A    between atoms: C_22  and  N_24
REMARK                            x       y       z     vdW  Elec       q    Type
REMARK                         _______ _______ _______ _____ _____    ______ ____
ROOT
ATOM     13  C   UNL     1      -2.743   0.489  24.310  0.00  0.00    +0.251 A 
ATOM     14  N   UNL     1      -3.161   0.925  24.872  0.00  0.00    -0.190 NA
ATOM     15  C   UNL     1      -3.866   1.179  24.526  0.00  0.00    +0.203 A 
ATOM     16  N   UNL     1      -3.884   0.900  23.750  0.00  0.00    -0.056 NA
ATOM     17  O   UNL     1      -3.190   0.473  23.616  0.00  0.00    -0.336 OA
ENDROOT
BRANCH  13   4
ATOM      1  O   UNL     1       0.125   0.061  24.459  0.00  0.00    -0.222 OA
ATOM      2  C   UNL     1      -0.690  -0.065  24.490  0.00  0.00    +0.170 C 
ATOM      3  C   UNL     1      -1.273   0.493  24.320  0.00  0.00    +0.060 C 
ATOM      4  C   UNL     1      -2.008   0.132  24.421  0.00  0.00    +0.140 C 
ATOM      5  N   UNL     1      -1.879  -0.649  24.654  0.00  0.00    -0.265 NA
ATOM      6  C   UNL     1      -1.063  -0.770  24.696  0.00  0.00    +0.106 C 
BRANCH   5   7
ATOM      7  C   UNL     1      -2.461  -1.210  24.815  0.00  0.00    +0.058 C 
ATOM      8  C   UNL     1      -2.752  -1.688  24.209  0.00  0.00    +0.016 C 
ATOM      9  C   UNL     1      -3.336  -2.250  24.370  0.00  0.00    +0.001 C 
ATOM     10  C   UNL     1      -3.627  -2.332  25.139  0.00  0.00    +0.000 C 
ATOM     11  C   UNL     1      -3.336  -1.854  25.744  0.00  0.00    +0.001 C 
ATOM     12  C   UNL     1      -2.752  -1.293  25.582  0.00  0.00    +0.016 C 
ENDBRANCH   5   7
ENDBRANCH  13   4
BRANCH  15  18
ATOM     18  C   UNL     1      -4.450   1.632  24.892  0.00  0.00    +0.041 A 
ATOM     19  C   UNL     1      -5.175   1.290  25.089  0.00  0.00    +0.003 A 
ATOM     20  C   UNL     1      -5.758   1.744  25.454  0.00  0.00    +0.002 A 
ATOM     21  C   UNL     1      -5.619   2.539  25.623  0.00  0.00    +0.024 A 
ATOM     22  C   UNL     1      -4.894   2.881  25.426  0.00  0.00    +0.143 A 
ATOM     23  C   UNL     1      -4.310   2.427  25.060  0.00  0.00    +0.027 A 
BRANCH  22  24
ATOM     24  N   UNL     1      -4.753   3.676  25.595  0.00  0.00    +0.058 N 
ATOM     25  O   UNL     1      -5.310   4.247  25.384  0.00  0.00    -0.126 OA
ATOM     26  O   UNL     1      -4.056   3.900  25.975  0.00  0.00    -0.126 OA
ENDBRANCH  22  24
ENDBRANCH  15  18
TORSDOF 4
ENDMDL
MODEL 3
REMARK VINA RESULT:     -11.7      1.454      2.332
REMARK  Name = 
REMARK  4 active torsions:
REMARK  status: ('A' for Active; 'I' for Inactive)
REMARK    1  A    between atoms: C_4  and  C_13
REMARK    2  A    between atoms: N_5  and  C_7
REMARK    3  A    between atoms: C_15  and  C_18
REMARK    4  A    between atoms: C_22  and  N_24
REMARK                            x       y       z     vdW  Elec       q    Type
REMARK                         _______ _______ _______ _____ _____    ______ ____
ROOT
ATOM     13  C   UNL     1      -2.449   0.719  24.150  0.00  0.00    +0.251 A 
ATOM     14  N   UNL     1      -2.741   1.303  24.653  0.00  0.00    -0.190 NA
ATOM     15  C   UNL     1      -3.427   1.613  24.314  0.00  0.00    +0.203 A 
ATOM     16  N   UNL     1      -3.558   1.221  23.600  0.00  0.00    -0.056 NA
ATOM     17  O   UNL     1      -2.953   0.668  23.498  0.00  0.00    -0.336 OA
ENDROOT
BRANCH  13   4
ATOM      1  O   UNL     1       0.324  -0.139  24.225  0.00  0.00    -0.222 OA
ATOM      2  C   UNL     1      -0.497  -0.129  24.309  0.00  0.00    +0.170 C 
ATOM      3  C   UNL     1      -0.998   0.490  24.093  0.00  0.00    +0.060 C 
ATOM      4  C   UNL     1      -1.771   0.266  24.275  0.00  0.00    +0.140 C 
ATOM      5  N   UNL     1      -1.747  -0.491  24.603  0.00  0.00    -0.265 NA
ATOM      6  C   UNL     1      -0.959  -0.734  24.624  0.00  0.00    +0.106 C 
BRANCH   5   7
ATOM      7  C   UNL     1      -2.396  -0.927  24.863  0.00  0.00    +0.058 C 
ATOM      8  C   UNL     1      -2.805  -1.414  24.336  0.00  0.00    +0.016 C 
ATOM      9  C   UNL     1      -3.455  -1.851  24.597  0.00  0.00    +0.001 C 
ATOM     10  C   UNL     1      -3.696  -1.800  25.385  0.00  0.00    +0.000 C 
ATOM     11  C   UNL     1      -3.288  -1.314  25.911  0.00  0.00    +0.001 C 
ATOM     12  C   UNL     1      -2.638  -0.877  25.650  0.00  0.00    +0.016 C 
ENDBRANCH   5   7
ENDBRANCH  13   4
BRANCH  15  18
ATOM     18  C   UNL     1      -3.898   2.211  24.632  0.00  0.00    +0.041 A 
ATOM     19  C   UNL     1      -3.660   2.998  24.576  0.00  0.00    +0.003 A 
ATOM     20  C   UNL     1      -4.131   3.595  24.894  0.00  0.00    +0.002 A 
ATOM     21  C   UNL     1      -4.842   3.405  25.268  0.00  0.00    +0.024 A 
ATOM     22  C   UNL     1      -5.080   2.618  25.324  0.00  0.00    +0.143 A 
ATOM     23  C   UNL     1      -4.609   2.020  25.006  0.00  0.00    +0.027 A 
BRANCH  22  24
ATOM     24  N   UNL     1      -5.791   2.427  25.698  0.00  0.00    +0.058 N 
ATOM     25  O   UNL     1      -6.392   2.053  25.274  0.00  0.00    -0.126 OA
ATOM     26  O   UNL     1      -5.900   2.610  26.495  0.00  0.00    -0.126 OA
ENDBRANCH  22  24
ENDBRANCH  15  18
TORSDOF 4
ENDMDL
MODEL 4
REMARK VINA RESULT:     -11.6      1.572      4.373
REMARK  Name = 
REMARK  4 active torsions:
REMARK  status: ('A' for Active; 'I' for Inactive)
REMARK    1  A    between atoms: C_4  and  C_13
REMARK    2  A    between atoms: N_5  and  C_7
REMARK    3  A    between atoms: C_15  and  C_18
REMARK    4  A    between atoms: C_22  and  N_24
REMARK                            x       y       z     vdW  Elec       q    Type
REMARK                         _______ _______ _______ _____ _____    ______ ____
ROOT
ATOM     13  C   UNL     1      -3.983   1.837  24.561  0.00  0.00    +0.251 A 
ATOM     14  N   UNL     1      -3.923   1.088  24.900  0.00  0.00    -0.190 NA
ATOM     15  C   UNL     1      -3.636   0.570  24.324  0.00  0.00    +0.203 A 
ATOM     16  N   UNL     1      -3.520   1.000  23.630  0.00  0.00    -0.056 NA
ATOM     17  O   UNL     1      -3.735   1.783  23.776  0.00  0.00    -0.336 OA
ENDROOT
BRANCH  13   4
ATOM      1  O   UNL     1      -5.712   3.850  25.739  0.00  0.00    -0.222 OA
ATOM      2  C   UNL     1      -5.041   3.447  25.481  0.00  0.00    +0.170 C 
ATOM      3  C   UNL     1      -5.033   2.718  25.095  0.00  0.00    +0.060 C 
ATOM      4  C   UNL     1      -4.246   2.521  24.940  0.00  0.00    +0.140 C 
ATOM      5  N   UNL     1      -3.769   3.129  25.230  0.00  0.00    -0.265 NA
ATOM      6  C   UNL     1      -4.261   3.701  25.565  0.00  0.00    +0.106 C 
BRANCH   5   7
ATOM      7  C   UNL     1      -2.946   3.159  25.193  0.00  0.00    +0.058 C 
ATOM      8  C   UNL     1      -2.494   2.872  25.821  0.00  0.00    +0.016 C 
ATOM      9  C   UNL     1      -1.670   2.902  25.784  0.00  0.00    +0.001 C 
ATOM     10  C   UNL     1      -1.299   3.220  25.118  0.00  0.00    +0.000 C 
ATOM     11  C   UNL     1      -1.751   3.507  24.491  0.00  0.00    +0.001 C 
ATOM     12  C   UNL     1      -2.575   3.477  24.528  0.00  0.00    +0.016 C 
ENDBRANCH   5   7
ENDBRANCH  13   4
BRANCH  15  18
ATOM     18  C   UNL     1      -3.492  -0.236  24.426  0.00  0.00    +0.041 A 
ATOM     19  C   UNL     1      -4.112  -0.777  24.365  0.00  0.00    +0.003 A 
ATOM     20  C   UNL     1      -3.967  -1.582  24.467  0.00  0.00    +0.002 A 
ATOM     21  C   UNL     1      -3.203  -1.848  24.629  0.00  0.00    +0.024 A 
ATOM     22  C   UNL     1      -2.583  -1.307  24.689  0.00  0.00    +0.143 A 
ATOM     23  C   UNL     1      -2.727  -0.500  24.587  0.00  0.00    +0.027 A 
BRANCH  22  24
ATOM     24  N   UNL     1      -1.818  -1.571  24.851  0.00  0.00    +0.058 N 
ATOM     25  O   UNL     1      -1.453  -2.111  24.344  0.00  0.00    -0.126 OA
ATOM     26  O   UNL     1      -1.419  -1.296  25.518  0.00  0.00    -0.126 OA
ENDBRANCH  22  24
ENDBRANCH  15  18
TORSDOF 4
ENDMDL
MODEL 5
REMARK VINA RESULT:     -11.6      2.381      3.578
REMARK  Name = 
REMARK  4 active torsions:
REMARK  status: ('A' for Active; 'I' for Inactive)
REMARK    1  A    between atoms: C_4  and  C_13
REMARK    2  A    between atoms: N_5  and  C_7
REMARK    3  A    between atoms: C_15  and  C_18
REMARK    4  A    between atoms: C_22  and  N_24
REMARK                            x       y       z     vdW  Elec       q    Type
REMARK                         _______ _______ _______ _____ _____    ______ ____
ROOT
ATOM     13  C   UNL     1      -3.776   2.063  24.497  0.00  0.00    +0.251 A 
ATOM     14  N   UNL     1      -3.235   2.434  24.997  0.00  0.00    -0.190 NA
ATOM     15  C   UNL     1      -2.556   2.601  24.558  0.00  0.00    +0.203 A 
ATOM     16  N   UNL     1      -2.678   2.333  23.788  0.00  0.00    -0.056 NA
ATOM     17  O   UNL     1      -3.432   2.000  23.750  0.00  0.00    -0.336 OA
ENDROOT
BRANCH  13   4
ATOM      1  O   UNL     1      -6.600   2.028  25.174  0.00  0.00    -0.222 OA
ATOM      2  C   UNL     1      -5.827   1.784  25.019  0.00  0.00    +0.170 C 
ATOM      3  C   UNL     1      -5.197   2.275  24.811  0.00  0.00    +0.060 C 
ATOM      4  C   UNL     1      -4.529   1.800  24.708  0.00  0.00    +0.140 C 
ATOM      5  N   UNL     1      -4.748   1.018  24.852  0.00  0.00    -0.265 NA
ATOM      6  C   UNL     1      -5.550   1.008  25.044  0.00  0.00    +0.106 C 
BRANCH   5   7
ATOM      7  C   UNL     1      -4.251   0.361  24.811  0.00  0.00    +0.058 C 
ATOM      8  C   UNL     1      -4.145  -0.031  24.092  0.00  0.00    +0.016 C 
ATOM      9  C   UNL     1      -3.648  -0.689  24.050  0.00  0.00    +0.001 C 
ATOM     10  C   UNL     1      -3.259  -0.955  24.728  0.00  0.00    +0.000 C 
ATOM     11  C   UNL     1      -3.366  -0.564  25.445  0.00  0.00    +0.001 C 
ATOM     12  C   UNL     1      -3.862   0.094  25.487  0.00  0.00    +0.016 C 
ENDBRANCH   5   7
ENDBRANCH  13   4
BRANCH  15  18
ATOM     18  C   UNL     1      -1.875   2.971  24.841  0.00  0.00    +0.041 A 
ATOM     19  C   UNL     1      -1.855   3.792  24.923  0.00  0.00    +0.003 A 
ATOM     20  C   UNL     1      -1.174   4.161  25.206  0.00  0.00    +0.002 A 
ATOM     21  C   UNL     1      -0.512   3.711  25.406  0.00  0.00    +0.024 A 
ATOM     22  C   UNL     1      -0.532   2.890  25.323  0.00  0.00    +0.143 A 
ATOM     23  C   UNL     1      -1.213   2.520  25.040  0.00  0.00    +0.027 A 
BRANCH  22  24
ATOM     24  N   UNL     1       0.129   2.439  25.523  0.00  0.00    +0.058 N 
ATOM     25  O   UNL     1       0.394   2.420  26.304  0.00  0.00    -0.126 OA
ATOM     26  O   UNL     1       0.525   2.008  24.942  0.00  0.00    -0.126 OA
ENDBRANCH  22  24
ENDBRANCH  15  18
TORSDOF 4
ENDMDL
MODEL 6
REMARK VINA RESULT:     -11.3      1.827      2.347
REMARK  Name = 
REMARK  4 active torsions:
REMARK  status: ('A' for Active; 'I' for Inactive)
REMARK    1  A    between atoms: C_4  and  C_13
REMARK    2  A    between atoms: N_5  and  C_7
REMARK    3  A    between atoms: C_15  and  C_18
REMARK    4  A    between atoms: C_22  and  N_24
REMARK                            x       y       z     vdW  Elec       q    Type
REMARK                         _______ _______ _______ _____ _____    ______ ____
ROOT
ATOM     13  C   UNL     1      -2.360   0.729  24.418  0.00  0.00    +0.251 A 
ATOM     14  N   UNL     1      -2.920   1.096  24.899  0.00  0.00    -0.190 NA
ATOM     15  C   UNL     1      -3.324   1.653  24.442  0.00  0.00    +0.203 A 
ATOM     16  N   UNL     1      -3.013   1.629  23.679  0.00  0.00    -0.056 NA
ATOM     17  O   UNL     1      -2.417   1.059  23.663  0.00  0.00    -0.336 OA
ENDROOT
BRANCH  13   4
ATOM      1  O   UNL     1      -1.218  -1.876  25.000  0.00  0.00    -0.222 OA
ATOM      2  C   UNL     1      -1.310  -1.061  24.917  0.00  0.00    +0.170 C 
ATOM      3  C   UNL     1      -1.985  -0.675  24.642  0.00  0.00    +0.060 C 
ATOM      4  C   UNL     1      -1.835   0.137  24.650  0.00  0.00    +0.140 C 
ATOM      5  N   UNL     1      -1.067   0.251  24.930  0.00  0.00    -0.265 NA
ATOM      6  C   UNL     1      -0.743  -0.489  25.095  0.00  0.00    +0.106 C 
BRANCH   5   7
ATOM      7  C   UNL     1      -0.690   0.978  25.028  0.00  0.00    +0.058 C 
ATOM      8  C   UNL     1      -0.730   1.369  25.754  0.00  0.00    +0.016 C 
ATOM      9  C   UNL     1      -0.353   2.097  25.852  0.00  0.00    +0.001 C 
ATOM     10  C   UNL     1       0.065   2.433  25.224  0.00  0.00    +0.000 C 
ATOM     11  C   UNL     1       0.104   2.042  24.500  0.00  0.00    +0.001 C 
ATOM     12  C   UNL     1      -0.273   1.315  24.401  0.00  0.00    +0.016 C 
ENDBRANCH   5   7
ENDBRANCH  13   4
BRANCH  15  18
ATOM     18  C   UNL     1      -3.932   2.146  24.704  0.00  0.00    +0.041 A 
ATOM     19  C   UNL     1      -3.813   2.961  24.744  0.00  0.00    +0.003 A 
ATOM     20  C   UNL     1      -4.420   3.453  25.006  0.00  0.00    +0.002 A 
ATOM     21  C   UNL     1      -5.147   3.131  25.226  0.00  0.00    +0.024 A 
ATOM     22  C   UNL     1      -5.266   2.316  25.185  0.00  0.00    +0.143 A 
ATOM     23  C   UNL     1      -4.658   1.823  24.924  0.00  0.00    +0.027 A 
BRANCH  22  24
ATOM     24  N   UNL     1      -5.993   1.993  25.405  0.00  0.00    +0.058 N 
ATOM     25  O   UNL     1      -6.173   1.891  26.204  0.00  0.00    -0.126 OA
ATOM     26  O   UNL     1      -6.538   1.772  24.828  0.00  0.00    -0.126 OA
ENDBRANCH  22  24
ENDBRANCH  15  18
TORSDOF 4
ENDMDL
MODEL 7
REMARK VINA RESULT:     -11.3      1.808      4.861
REMARK  Name = 
REMARK  4 active torsions:
REMARK  status: ('A' for Active; 'I' for Inactive)
REMARK    1  A    between atoms: C_4  and  C_13
REMARK    2  A    between atoms: N_5  and  C_7
REMARK    3  A    between atoms: C_15  and  C_18
REMARK    4  A    between atoms: C_22  and  N_24
REMARK                            x       y       z     vdW  Elec       q    Type
REMARK                         _______ _______ _______ _____ _____    ______ ____
ROOT
ATOM     13  C   UNL     1      -2.380   2.084  24.490  0.00  0.00    +0.251 A 
ATOM     14  N   UNL     1      -2.415   1.405  24.958  0.00  0.00    -0.190 NA
ATOM     15  C   UNL     1      -2.743   0.799  24.504  0.00  0.00    +0.203 A 
ATOM     16  N   UNL     1      -2.910   1.103  23.755  0.00  0.00    -0.056 NA
ATOM     17  O   UNL     1      -2.685   1.897  23.746  0.00  0.00    -0.336 OA
ENDROOT
BRANCH  13   4
ATOM      1  O   UNL     1      -0.572   4.271  25.105  0.00  0.00    -0.222 OA
ATOM      2  C   UNL     1      -1.259   3.825  25.007  0.00  0.00    +0.170 C 
ATOM      3  C   UNL     1      -1.296   3.047  24.736  0.00  0.00    +0.060 C 
ATOM      4  C   UNL     1      -2.090   2.820  24.724  0.00  0.00    +0.140 C 
ATOM      5  N   UNL     1      -2.542   3.458  24.986  0.00  0.00    -0.265 NA
ATOM      6  C   UNL     1      -2.028   4.080  25.161  0.00  0.00    +0.106 C 
BRANCH   5   7
ATOM      7  C   UNL     1      -3.363   3.473  25.060  0.00  0.00    +0.058 C 
ATOM      8  C   UNL     1      -3.713   3.314  25.791  0.00  0.00    +0.016 C 
ATOM      9  C   UNL     1      -4.535   3.329  25.866  0.00  0.00    +0.001 C 
ATOM     10  C   UNL     1      -5.006   3.503  25.210  0.00  0.00    +0.000 C 
ATOM     11  C   UNL     1      -4.656   3.661  24.481  0.00  0.00    +0.001 C 
ATOM     12  C   UNL     1      -3.834   3.647  24.406  0.00  0.00    +0.016 C 
ENDBRANCH   5   7
ENDBRANCH  13   4
BRANCH  15  18
ATOM     18  C   UNL     1      -2.879   0.025  24.754  0.00  0.00    +0.041 A 
ATOM     19  C   UNL     1      -3.593  -0.171  25.120  0.00  0.00    +0.003 A 
ATOM     20  C   UNL     1      -3.729  -0.944  25.370  0.00  0.00    +0.002 A 
ATOM     21  C   UNL     1      -3.152  -1.523  25.255  0.00  0.00    +0.024 A 
ATOM     22  C   UNL     1      -2.439  -1.328  24.890  0.00  0.00    +0.143 A 
ATOM     23  C   UNL     1      -2.302  -0.553  24.639  0.00  0.00    +0.027 A 
BRANCH  22  24
ATOM     24  N   UNL     1      -1.862  -1.906  24.775  0.00  0.00    +0.058 N 
ATOM     25  O   UNL     1      -2.005  -2.533  24.258  0.00  0.00    -0.126 OA
ATOM     26  O   UNL     1      -1.143  -1.857  25.176  0.00  0.00    -0.126 OA
ENDBRANCH  22  24
ENDBRANCH  15  18
TORSDOF 4
ENDMDL
