MODEL 1
REMARK VINA RESULT:     -11.2      0.000      0.000
REMARK  Name = 
REMARK  5 active torsions:
REMARK  status: ('A' for Active; 'I' for Inactive)
REMARK    1  A    between atoms: O_2  and  C_3
REMARK    2  A    between atoms: C_3  and  C_4
REMARK    3  A    between atoms: C_4  and  N_5
REMARK    4  A    between atoms: N_8  and  C_9
REMARK    5  A    between atoms: C_9  and  C_10
REMARK                            x       y       z     vdW  Elec       q    Type
REMARK                         _______ _______ _______ _____ _____    ______ ____
ROOT
ATOM      5  N   UNL     1      -4.230   2.946  25.006  0.00  0.00    -0.273 N 
ATOM      6  C   UNL     1      -4.401   2.147  24.886  0.00  0.00    +0.120 C 
ATOM      7  C   UNL     1      -3.998   1.550  24.484  0.00  0.00    +0.095 C 
ATOM      8  N   UNL     1      -4.439   0.856  24.551  0.00  0.00    -0.265 NA
ATOM     19  C   UNL     1      -5.114   1.024  24.992  0.00  0.00    +0.104 C 
ATOM     20  C   UNL     1      -5.091   1.822  25.200  0.00  0.00    +0.151 C 
ATOM     21  O   UNL     1      -5.610   2.296  25.634  0.00  0.00    -0.344 OA
ATOM     22  C   UNL     1      -5.438   3.093  25.754  0.00  0.00    +0.227 C 
ATOM     23  C   UNL     1      -4.748   3.418  25.440  0.00  0.00    +0.256 C 
ATOM     24  O   UNL     1      -4.576   4.216  25.561  0.00  0.00    -0.272 OA
ENDROOT
BRANCH   5   4
ATOM      4  C   UNL     1      -3.540   3.271  24.693  0.00  0.00    +0.126 C 
BRANCH   4   3
ATOM      3  C   UNL     1      -2.908   3.458  25.189  0.00  0.00    +0.164 C 
BRANCH   3   2
ATOM      1  C   UNL     1      -1.549   3.863  25.366  0.00  0.00    +0.174 C 
ATOM      2  O   UNL     1      -2.185   3.690  24.868  0.00  0.00    -0.349 OA
ENDBRANCH   3   2
ENDBRANCH   4   3
ENDBRANCH   5   4
BRANCH   8   9
ATOM      9  C   UNL     1      -4.239   0.122  24.231  0.00  0.00    +0.101 C 
BRANCH   9  10
ATOM     10  C   UNL     1      -3.910  -0.462  24.711  0.00  0.00    +0.014 A 
ATOM     11  C   UNL     1      -3.557  -0.341  25.448  0.00  0.00    +0.096 A 
ATOM     12  N   UNL     1      -3.305  -1.074  25.732  0.00  0.00    -0.244 NA
ATOM     13  C   UNL     1      -3.502  -1.646  25.171  0.00  0.00    +0.081 A 
ATOM     14  C   UNL     1      -3.875  -1.269  24.541  0.00  0.00    +0.016 A 
ATOM     15  C   UNL     1      -4.135  -1.706  23.893  0.00  0.00    +0.001 A 
ATOM     16  C   UNL     1      -4.023  -2.523  23.874  0.00  0.00    +0.000 A 
ATOM     17  C   UNL     1      -3.648  -2.902  24.506  0.00  0.00    +0.002 A 
ATOM     18  C   UNL     1      -3.388  -2.464  25.153  0.00  0.00    +0.019 A 
ENDBRANCH   9  10
ENDBRANCH   8   9
TORSDOF 5
ENDMDL
MODEL 2
REMARK VINA RESULT:     -10.2      0.755      1.852
REMARK  Name = 
REMARK  5 active torsions:
REMARK  status: ('A' for Active; 'I' for Inactive)
REMARK    1  A    between atoms: O_2  and  C_3
REMARK    2  A    between atoms: C_3  and  C_4
REMARK    3  A    between atoms: C_4  and  N_5
REMARK    4  A    between atoms: N_8  and  C_9
REMARK    5  A    between atoms: C_9  and  C_10
REMARK                            x       y       z     vdW  Elec       q    Type
REMARK                         _______ _______ _______ _____ _____    ______ ____
ROOT
ATOM      5  N   UNL     1      -3.343   2.833  24.966  0.00  0.00    -0.273 N 
ATOM      6  C   UNL     1      -3.392   2.068  24.662  0.00  0.00    +0.120 C 
ATOM      7  C   UNL     1      -3.927   1.453  24.793  0.00  0.00    +0.095 C 
ATOM      8  N   UNL     1      -3.694   0.811  24.331  0.00  0.00    -0.265 NA
ATOM     19  C   UNL     1      -3.017   1.027  23.914  0.00  0.00    +0.104 C 
ATOM     20  C   UNL     1      -2.830   1.804  24.118  0.00  0.00    +0.151 C 
ATOM     21  O   UNL     1      -2.219   2.306  23.879  0.00  0.00    -0.344 OA
ATOM     22  C   UNL     1      -2.172   3.071  24.184  0.00  0.00    +0.227 C 
ATOM     23  C   UNL     1      -2.734   3.335  24.728  0.00  0.00    +0.256 C 
ATOM     24  O   UNL     1      -2.685   4.100  25.032  0.00  0.00    -0.272 OA
ENDROOT
BRANCH   5   4
ATOM      4  C   UNL     1      -3.905   3.097  25.510  0.00  0.00    +0.126 C 
BRANCH   4   3
ATOM      3  C   UNL     1      -4.538   3.561  25.257  0.00  0.00    +0.164 C 
BRANCH   3   2
ATOM      1  C   UNL     1      -5.823   4.133  25.506  0.00  0.00    +0.174 C 
ATOM      2  O   UNL     1      -5.145   3.753  25.782  0.00  0.00    -0.349 OA
ENDBRANCH   3   2
ENDBRANCH   4   3
ENDBRANCH   5   4
BRANCH   8   9
ATOM      9  C   UNL     1      -4.075   0.079  24.293  0.00  0.00    +0.101 C 
BRANCH   9  10
ATOM     10  C   UNL     1      -3.790  -0.557  24.733  0.00  0.00    +0.014 A 
ATOM     11  C   UNL     1      -3.413  -0.509  25.466  0.00  0.00    +0.096 A 
ATOM     12  N   UNL     1      -3.222  -1.276  25.705  0.00  0.00    -0.244 NA
ATOM     13  C   UNL     1      -3.480  -1.797  25.119  0.00  0.00    +0.081 A 
ATOM     14  C   UNL     1      -3.831  -1.354  24.520  0.00  0.00    +0.016 A 
ATOM     15  C   UNL     1      -4.142  -1.730  23.856  0.00  0.00    +0.001 A 
ATOM     16  C   UNL     1      -4.104  -2.552  23.791  0.00  0.00    +0.000 A 
ATOM     17  C   UNL     1      -3.752  -2.997  24.392  0.00  0.00    +0.002 A 
ATOM     18  C   UNL     1      -3.441  -2.619  25.055  0.00  0.00    +0.019 A 
ENDBRANCH   9  10
ENDBRANCH   8   9
TORSDOF 5
ENDMDL
MODEL 3
REMARK VINA RESULT:     -10.0      2.076      3.244
REMARK  Name = 
REMARK  5 active torsions:
REMARK  status: ('A' for Active; 'I' for Inactive)
REMARK    1  A    between atoms: O_2  and  C_3
REMARK    2  A    between atoms: C_3  and  C_4
REMARK    3  A    between atoms: C_4  and  N_5
REMARK    4  A    between atoms: N_8  and  C_9
REMARK    5  A    between atoms: C_9  and  C_10
REMARK                            x       y       z     vdW  Elec       q    Type
REMARK                         _______ _______ _______ _____ _____    ______ ____
ROOT
ATOM      5  N   UNL     1      -0.541   1.811  25.218  0.00  0.00    -0.273 N 
ATOM      6  C   UNL     1      -0.875   1.065  25.104  0.00  0.00    +0.120 C 
ATOM      7  C   UNL     1      -1.525   0.692  25.449  0.00  0.00    +0.095 C 
ATOM      8  N   UNL     1      -1.596  -0.058  25.113  0.00  0.00    -0.265 NA
ATOM     19  C   UNL     1      -0.991  -0.149  24.561  0.00  0.00    +0.104 C 
ATOM     20  C   UNL     1      -0.545   0.545  24.555  0.00  0.00    +0.151 C 
ATOM     21  O   UNL     1       0.120   0.771  24.120  0.00  0.00    -0.344 OA
ATOM     22  C   UNL     1       0.453   1.517  24.235  0.00  0.00    +0.227 C 
ATOM     23  C   UNL     1       0.122   2.037  24.784  0.00  0.00    +0.256 C 
ATOM     24  O   UNL     1       0.457   2.783  24.898  0.00  0.00    -0.272 OA
ENDROOT
BRANCH   5   4
ATOM      4  C   UNL     1      -0.871   2.330  25.767  0.00  0.00    +0.126 C 
BRANCH   4   3
ATOM      3  C   UNL     1      -1.310   2.980  25.509  0.00  0.00    +0.164 C 
BRANCH   3   2
ATOM      1  C   UNL     1      -2.250   4.020  25.785  0.00  0.00    +0.174 C 
ATOM      2  O   UNL     1      -1.736   3.432  26.052  0.00  0.00    -0.349 OA
ENDBRANCH   3   2
ENDBRANCH   4   3
ENDBRANCH   5   4
BRANCH   8   9
ATOM      9  C   UNL     1      -2.172  -0.620  25.298  0.00  0.00    +0.101 C 
BRANCH   9  10
ATOM     10  C   UNL     1      -2.840  -0.698  24.820  0.00  0.00    +0.014 A 
ATOM     11  C   UNL     1      -3.254  -0.081  24.461  0.00  0.00    +0.096 A 
ATOM     12  N   UNL     1      -3.882  -0.409  24.036  0.00  0.00    -0.244 NA
ATOM     13  C   UNL     1      -3.854  -1.228  24.133  0.00  0.00    +0.081 A 
ATOM     14  C   UNL     1      -3.211  -1.407  24.616  0.00  0.00    +0.016 A 
ATOM     15  C   UNL     1      -3.046  -2.190  24.810  0.00  0.00    +0.001 A 
ATOM     16  C   UNL     1      -3.524  -2.797  24.520  0.00  0.00    +0.000 A 
ATOM     17  C   UNL     1      -4.168  -2.618  24.035  0.00  0.00    +0.002 A 
ATOM     18  C   UNL     1      -4.333  -1.834  23.842  0.00  0.00    +0.019 A 
ENDBRANCH   9  10
ENDBRANCH   8   9
TORSDOF 5
ENDMDL
MODEL 4
REMARK VINA RESULT:      -9.9      1.783      2.311
REMARK  Name = 
REMARK  5 active torsions:
REMARK  status: ('A' for Active; 'I' for Inactive)
REMARK    1  A    between atoms: O_2  and  C_3
REMARK    2  A    between atoms: C_3  and  C_4
REMARK    3  A    between atoms: C_4  and  N_5
REMARK    4  A    between atoms: N_8  and  C_9
REMARK    5  A    between atoms: C_9  and  C_10
REMARK                            x       y       z     vdW  Elec       q    Type
REMARK                         _______ _______ _______ _____ _____    ______ ____
ROOT
ATOM      5  N   UNL     1      -1.769   2.006  24.022  0.00  0.00    -0.273 N 
ATOM      6  C   UNL     1      -2.464   1.628  24.256  0.00  0.00    +0.120 C 
ATOM      7  C   UNL     1      -2.769   0.879  24.090  0.00  0.00    +0.095 C 
ATOM      8  N   UNL     1      -3.492   0.807  24.482  0.00  0.00    -0.265 NA
ATOM     19  C   UNL     1      -3.633   1.509  24.889  0.00  0.00    +0.104 C 
ATOM     20  C   UNL     1      -2.998   2.017  24.750  0.00  0.00    +0.151 C 
ATOM     21  O   UNL     1      -2.837   2.784  25.010  0.00  0.00    -0.344 OA
ATOM     22  C   UNL     1      -2.142   3.161  24.775  0.00  0.00    +0.227 C 
ATOM     23  C   UNL     1      -1.607   2.772  24.281  0.00  0.00    +0.256 C 
ATOM     24  O   UNL     1      -0.912   3.149  24.047  0.00  0.00    -0.272 OA
ENDROOT
BRANCH   5   4
ATOM      4  C   UNL     1      -1.235   1.616  23.528  0.00  0.00    +0.126 C 
BRANCH   4   3
ATOM      3  C   UNL     1      -0.598   1.204  23.852  0.00  0.00    +0.164 C 
BRANCH   3   2
ATOM      1  C   UNL     1       0.559   0.403  23.604  0.00  0.00    +0.174 C 
ATOM      2  O   UNL     1      -0.211   0.627  23.408  0.00  0.00    -0.349 OA
ENDBRANCH   3   2
ENDBRANCH   4   3
ENDBRANCH   5   4
BRANCH   8   9
ATOM      9  C   UNL     1      -3.987   0.146  24.468  0.00  0.00    +0.101 C 
BRANCH   9  10
ATOM     10  C   UNL     1      -3.773  -0.538  24.875  0.00  0.00    +0.014 A 
ATOM     11  C   UNL     1      -3.446  -0.569  25.633  0.00  0.00    +0.096 A 
ATOM     12  N   UNL     1      -3.319  -1.362  25.823  0.00  0.00    -0.244 NA
ATOM     13  C   UNL     1      -3.567  -1.820  25.183  0.00  0.00    +0.081 A 
ATOM     14  C   UNL     1      -3.847  -1.312  24.598  0.00  0.00    +0.016 A 
ATOM     15  C   UNL     1      -4.134  -1.617  23.888  0.00  0.00    +0.001 A 
ATOM     16  C   UNL     1      -4.141  -2.433  23.763  0.00  0.00    +0.000 A 
ATOM     17  C   UNL     1      -3.860  -2.943  24.349  0.00  0.00    +0.002 A 
ATOM     18  C   UNL     1      -3.574  -2.636  25.058  0.00  0.00    +0.019 A 
ENDBRANCH   9  10
ENDBRANCH   8   9
TORSDOF 5
ENDMDL
MODEL 5
REMARK VINA RESULT:      -9.5      2.314      4.744
REMARK  Name = 
REMARK  5 active torsions:
REMARK  status: ('A' for Active; 'I' for Inactive)
REMARK    1  A    between atoms: O_2  and  C_3
REMARK    2  A    between atoms: C_3  and  C_4
REMARK    3  A    between atoms: C_4  and  N_5
REMARK    4  A    between atoms: N_8  and  C_9
REMARK    5  A    between atoms: C_9  and  C_10
REMARK                            x       y       z     vdW  Elec       q    Type
REMARK                         _______ _______ _______ _____ _____    ______ ____
ROOT
ATOM      5  N   UNL     1      -1.451  -0.219  24.570  0.00  0.00    -0.273 N 
ATOM      6  C   UNL     1      -1.827   0.454  24.276  0.00  0.00    +0.120 C 
ATOM      7  C   UNL     1      -2.607   0.720  24.327  0.00  0.00    +0.095 C 
ATOM      8  N   UNL     1      -2.658   1.436  23.921  0.00  0.00    -0.265 NA
ATOM     19  C   UNL     1      -1.912   1.614  23.620  0.00  0.00    +0.104 C 
ATOM     20  C   UNL     1      -1.398   1.007  23.839  0.00  0.00    +0.151 C 
ATOM     21  O   UNL     1      -0.593   0.887  23.697  0.00  0.00    -0.344 OA
ATOM     22  C   UNL     1      -0.219   0.213  23.992  0.00  0.00    +0.227 C 
ATOM     23  C   UNL     1      -0.648  -0.340  24.429  0.00  0.00    +0.256 C 
ATOM     24  O   UNL     1      -0.273  -1.013  24.723  0.00  0.00    -0.272 OA
ENDROOT
BRANCH   5   4
ATOM      4  C   UNL     1      -1.881  -0.772  25.007  0.00  0.00    +0.126 C 
BRANCH   4   3
ATOM      3  C   UNL     1      -2.148  -1.465  24.648  0.00  0.00    +0.164 C 
BRANCH   3   2
ATOM      1  C   UNL     1      -3.072  -2.554  24.667  0.00  0.00    +0.174 C 
ATOM      2  O   UNL     1      -2.621  -1.992  25.070  0.00  0.00    -0.349 OA
ENDBRANCH   3   2
ENDBRANCH   4   3
ENDBRANCH   5   4
BRANCH   8   9
ATOM      9  C   UNL     1      -3.340   1.895  23.833  0.00  0.00    +0.101 C 
BRANCH   9  10
ATOM     10  C   UNL     1      -3.530   2.463  24.399  0.00  0.00    +0.014 A 
ATOM     11  C   UNL     1      -3.011   3.015  24.726  0.00  0.00    +0.096 A 
ATOM     12  N   UNL     1      -3.434   3.473  25.267  0.00  0.00    -0.244 NA
ATOM     13  C   UNL     1      -4.213   3.203  25.275  0.00  0.00    +0.081 A 
ATOM     14  C   UNL     1      -4.273   2.580  24.739  0.00  0.00    +0.016 A 
ATOM     15  C   UNL     1      -4.995   2.198  24.629  0.00  0.00    +0.001 A 
ATOM     16  C   UNL     1      -5.659   2.439  25.055  0.00  0.00    +0.000 A 
ATOM     17  C   UNL     1      -5.600   3.064  25.592  0.00  0.00    +0.002 A 
ATOM     18  C   UNL     1      -4.877   3.445  25.702  0.00  0.00    +0.019 A 
ENDBRANCH   9  10
ENDBRANCH   8   9
TORSDOF 5
ENDMDL
MODEL 6
REMARK VINA RESULT:      -9.5      2.171      4.630
REMARK  Name = 
REMARK  5 active torsions:
REMARK  status: ('A' for Active; 'I' for Inactive)
REMARK    1  A    between atoms: O_2  and  C_3
REMARK    2  A    between atoms: C_3  and  C_4
REMARK    3  A    between atoms: C_4  and  N_5
REMARK    4  A    between atoms: N_8  and  C_9
REMARK    5  A    between atoms: C_9  and  C_10
REMARK                            x       y       z     vdW  Elec       q    Type
REMARK                         _______ _______ _______ _____ _____    ______ ____
ROOT
ATOM      5  N   UNL     1      -3.014  -1.661  24.734  0.00  0.00    -0.273 N 
ATOM      6  C   UNL     1      -3.542  -1.027  24.710  0.00  0.00    +0.120 C 
ATOM      7  C   UNL     1      -3.511  -0.269  25.036  0.00  0.00    +0.095 C 
ATOM      8  N   UNL     1      -4.204   0.126  24.825  0.00  0.00    -0.265 NA
ATOM     19  C   UNL     1      -4.663  -0.386  24.370  0.00  0.00    +0.104 C 
ATOM     20  C   UNL     1      -4.254  -1.099  24.299  0.00  0.00    +0.151 C 
ATOM     21  O   UNL     1      -4.437  -1.805  23.912  0.00  0.00    -0.344 OA
ATOM     22  C   UNL     1      -3.909  -2.438  23.937  0.00  0.00    +0.227 C 
ATOM     23  C   UNL     1      -3.197  -2.366  24.348  0.00  0.00    +0.256 C 
ATOM     24  O   UNL     1      -2.669  -3.000  24.372  0.00  0.00    -0.272 OA
ENDROOT
BRANCH   5   4
ATOM      4  C   UNL     1      -2.303  -1.589  25.145  0.00  0.00    +0.126 C 
BRANCH   4   3
ATOM      3  C   UNL     1      -1.595  -1.488  24.733  0.00  0.00    +0.164 C 
BRANCH   3   2
ATOM      1  C   UNL     1      -0.243  -1.026  24.742  0.00  0.00    +0.174 C 
ATOM      2  O   UNL     1      -0.896  -1.333  25.142  0.00  0.00    -0.349 OA
ENDBRANCH   3   2
ENDBRANCH   4   3
ENDBRANCH   5   4
BRANCH   8   9
ATOM      9  C   UNL     1      -4.404   0.900  25.034  0.00  0.00    +0.101 C 
BRANCH   9  10
ATOM     10  C   UNL     1      -4.118   1.533  24.590  0.00  0.00    +0.014 A 
ATOM     11  C   UNL     1      -3.683   1.478  23.891  0.00  0.00    +0.096 A 
ATOM     12  N   UNL     1      -3.513   2.245  23.636  0.00  0.00    -0.244 NA
ATOM     13  C   UNL     1      -3.844   2.772  24.177  0.00  0.00    +0.081 A 
ATOM     14  C   UNL     1      -4.218   2.333  24.766  0.00  0.00    +0.016 A 
ATOM     15  C   UNL     1      -4.600   2.717  25.387  0.00  0.00    +0.001 A 
ATOM     16  C   UNL     1      -4.610   3.541  25.420  0.00  0.00    +0.000 A 
ATOM     17  C   UNL     1      -4.236   3.982  24.830  0.00  0.00    +0.002 A 
ATOM     18  C   UNL     1      -3.853   3.597  24.209  0.00  0.00    +0.019 A 
ENDBRANCH   9  10
ENDBRANCH   8   9
TORSDOF 5
ENDMDL
