MODEL 1
REMARK VINA RESULT:     -10.8      0.000      0.000
REMARK  Name = 
REMARK  6 active torsions:
REMARK  status: ('A' for Active; 'I' for Inactive)
REMARK    1  A    between atoms: C_3  and  N_18
REMARK    2  A    between atoms: C_6  and  C_7
REMARK    3  A    between atoms: C_7  and  N_8
REMARK    4  A    between atoms: C_9  and  C_11
REMARK    5  A    between atoms: N_18  and  C_19
REMARK    6  A    between atoms: C_19  and  C_20
REMARK                            x       y       z     vdW  Elec       q    Type
REMARK                         _______ _______ _______ _____ _____    ______ ____
ROOT
ATOM      1  O   UNL     1      -4.119   1.000  25.601  0.00  0.00    -0.219 OA
ATOM      2  C   UNL     1      -3.868   1.138  24.827  0.00  0.00    +0.199 C 
ATOM      3  C   UNL     1      -3.826   0.577  24.224  0.00  0.00    +0.135 C 
ATOM      4  C   UNL     1      -3.546   0.952  23.546  0.00  0.00    +0.162 C 
ATOM      5  O   UNL     1      -3.414   1.746  23.729  0.00  0.00    -0.350 OA
ATOM      6  C   UNL     1      -3.613   1.861  24.521  0.00  0.00    +0.169 C 
ENDROOT
BRANCH   6   7
ATOM      7  C   UNL     1      -3.565   2.572  24.935  0.00  0.00    +0.148 C 
BRANCH   7   8
ATOM      8  N   UNL     1      -2.917   3.070  24.825  0.00  0.00    -0.199 NA
ATOM      9  C   UNL     1      -2.800   3.713  25.330  0.00  0.00    +0.265 C 
ATOM     10  O   UNL     1      -3.332   3.857  25.944  0.00  0.00    -0.268 OA
BRANCH   9  11
ATOM     11  C   UNL     1      -2.151   4.210  25.221  0.00  0.00    +0.055 A 
ATOM     12  C   UNL     1      -2.264   5.024  25.146  0.00  0.00    +0.007 A 
ATOM     13  C   UNL     1      -1.615   5.522  25.037  0.00  0.00    +0.030 A 
ATOM     14  C   UNL     1      -0.854   5.206  25.003  0.00  0.00    +0.140 A 
ATOM     15  F   UNL     1      -0.205   5.703  24.894  0.00  0.00    -0.204 F 
ATOM     16  C   UNL     1      -0.741   4.392  25.078  0.00  0.00    +0.030 A 
ATOM     17  C   UNL     1      -1.390   3.894  25.187  0.00  0.00    +0.007 A 
ENDBRANCH   9  11
ENDBRANCH   7   8
ENDBRANCH   6   7
BRANCH   3  18
ATOM     18  N   UNL     1      -4.029  -0.221  24.289  0.00  0.00    -0.209 NA
BRANCH  18  19
ATOM     19  C   UNL     1      -3.629  -0.786  23.840  0.00  0.00    +0.115 C 
BRANCH  19  20
ATOM     20  C   UNL     1      -3.665  -1.582  24.053  0.00  0.00    -0.005 A 
ATOM     21  C   UNL     1      -3.096  -1.901  24.558  0.00  0.00    -0.003 A 
ATOM     22  C   UNL     1      -3.132  -2.697  24.770  0.00  0.00    -0.000 A 
ATOM     23  C   UNL     1      -3.737  -3.175  24.477  0.00  0.00    -0.000 A 
ATOM     24  C   UNL     1      -4.307  -2.857  23.972  0.00  0.00    -0.000 A 
ATOM     25  C   UNL     1      -4.271  -2.060  23.760  0.00  0.00    -0.003 A 
ENDBRANCH  19  20
ENDBRANCH  18  19
ENDBRANCH   3  18
TORSDOF 6
ENDMDL
MODEL 2
REMARK VINA RESULT:     -10.7      1.828      2.187
REMARK  Name = 
REMARK  6 active torsions:
REMARK  status: ('A' for Active; 'I' for Inactive)
REMARK    1  A    between atoms: C_3  and  N_18
REMARK    2  A    between atoms: C_6  and  C_7
REMARK    3  A    between atoms: C_7  and  N_8
REMARK    4  A    between atoms: C_9  and  C_11
REMARK    5  A    between atoms: N_18  and  C_19
REMARK    6  A    between atoms: C_19  and  C_20
REMARK                            x       y       z     vdW  Elec       q    Type
REMARK                         _______ _______ _______ _____ _____    ______ ____
ROOT
ATOM      1  O   UNL     1      -1.256   0.452  23.904  0.00  0.00    -0.219 OA
ATOM      2  C   UNL     1      -1.277   0.307  24.716  0.00  0.00    +0.199 C 
ATOM      3  C   UNL     1      -1.668  -0.317  25.087  0.00  0.00    +0.135 C 
ATOM      4  C   UNL     1      -1.544  -0.249  25.899  0.00  0.00    +0.162 C 
ATOM      5  O   UNL     1      -1.077   0.418  26.031  0.00  0.00    -0.350 OA
ATOM      6  C   UNL     1      -0.912   0.762  25.300  0.00  0.00    +0.169 C 
ENDROOT
BRANCH   6   7
ATOM      7  C   UNL     1      -0.461   1.441  25.174  0.00  0.00    +0.148 C 
BRANCH   7   8
ATOM      8  N   UNL     1      -0.827   2.180  25.146  0.00  0.00    -0.199 NA
ATOM      9  C   UNL     1      -0.382   2.866  25.256  0.00  0.00    +0.265 C 
ATOM     10  O   UNL     1       0.430   2.812  25.394  0.00  0.00    -0.268 OA
BRANCH   9  11
ATOM     11  C   UNL     1      -0.748   3.604  25.229  0.00  0.00    +0.055 A 
ATOM     12  C   UNL     1      -0.408   4.217  24.792  0.00  0.00    +0.007 A 
ATOM     13  C   UNL     1      -0.775   4.955  24.765  0.00  0.00    +0.030 A 
ATOM     14  C   UNL     1      -1.481   5.082  25.174  0.00  0.00    +0.140 A 
ATOM     15  F   UNL     1      -1.847   5.820  25.146  0.00  0.00    -0.204 F 
ATOM     16  C   UNL     1      -1.820   4.469  25.610  0.00  0.00    +0.030 A 
ATOM     17  C   UNL     1      -1.454   3.730  25.637  0.00  0.00    +0.007 A 
ENDBRANCH   9  11
ENDBRANCH   7   8
ENDBRANCH   6   7
BRANCH   3  18
ATOM     18  N   UNL     1      -2.105  -0.907  24.711  0.00  0.00    -0.209 NA
BRANCH  18  19
ATOM     19  C   UNL     1      -2.762  -1.237  25.086  0.00  0.00    +0.115 C 
BRANCH  19  20
ATOM     20  C   UNL     1      -3.265  -1.742  24.671  0.00  0.00    -0.005 A 
ATOM     21  C   UNL     1      -3.146  -2.558  24.698  0.00  0.00    -0.003 A 
ATOM     22  C   UNL     1      -3.648  -3.062  24.283  0.00  0.00    -0.000 A 
ATOM     23  C   UNL     1      -4.271  -2.751  23.840  0.00  0.00    -0.000 A 
ATOM     24  C   UNL     1      -4.390  -1.936  23.812  0.00  0.00    -0.000 A 
ATOM     25  C   UNL     1      -3.887  -1.431  24.228  0.00  0.00    -0.003 A 
ENDBRANCH  19  20
ENDBRANCH  18  19
ENDBRANCH   3  18
TORSDOF 6
ENDMDL
MODEL 3
REMARK VINA RESULT:     -10.4      2.053      5.948
REMARK  Name = 
REMARK  6 active torsions:
REMARK  status: ('A' for Active; 'I' for Inactive)
REMARK    1  A    between atoms: C_3  and  N_18
REMARK    2  A    between atoms: C_6  and  C_7
REMARK    3  A    between atoms: C_7  and  N_8
REMARK    4  A    between atoms: C_9  and  C_11
REMARK    5  A    between atoms: N_18  and  C_19
REMARK    6  A    between atoms: C_19  and  C_20
REMARK                            x       y       z     vdW  Elec       q    Type
REMARK                         _______ _______ _______ _____ _____    ______ ____
ROOT
ATOM      1  O   UNL     1      -3.137   1.956  23.581  0.00  0.00    -0.219 OA
ATOM      2  C   UNL     1      -3.484   2.051  24.323  0.00  0.00    +0.199 C 
ATOM      3  C   UNL     1      -3.354   2.679  24.842  0.00  0.00    +0.135 C 
ATOM      4  C   UNL     1      -3.812   2.551  25.516  0.00  0.00    +0.162 C 
ATOM      5  O   UNL     1      -4.224   1.844  25.414  0.00  0.00    -0.350 OA
ATOM      6  C   UNL     1      -4.022   1.535  24.677  0.00  0.00    +0.169 C 
ENDROOT
BRANCH   6   7
ATOM      7  C   UNL     1      -4.307   0.834  24.351  0.00  0.00    +0.148 C 
BRANCH   7   8
ATOM      8  N   UNL     1      -3.972   0.112  24.568  0.00  0.00    -0.199 NA
ATOM      9  C   UNL     1      -4.343  -0.595  24.359  0.00  0.00    +0.265 C 
ATOM     10  O   UNL     1      -5.049  -0.580  23.934  0.00  0.00    -0.268 OA
BRANCH   9  11
ATOM     11  C   UNL     1      -4.007  -1.317  24.576  0.00  0.00    +0.055 A 
ATOM     12  C   UNL     1      -4.012  -1.949  24.046  0.00  0.00    +0.007 A 
ATOM     13  C   UNL     1      -3.676  -2.671  24.263  0.00  0.00    +0.030 A 
ATOM     14  C   UNL     1      -3.336  -2.760  25.010  0.00  0.00    +0.140 A 
ATOM     15  F   UNL     1      -3.001  -3.482  25.227  0.00  0.00    -0.204 F 
ATOM     16  C   UNL     1      -3.332  -2.128  25.540  0.00  0.00    +0.030 A 
ATOM     17  C   UNL     1      -3.667  -1.406  25.323  0.00  0.00    +0.007 A 
ENDBRANCH   9  11
ENDBRANCH   7   8
ENDBRANCH   6   7
BRANCH   3  18
ATOM     18  N   UNL     1      -2.855   3.322  24.709  0.00  0.00    -0.209 NA
BRANCH  18  19
ATOM     19  C   UNL     1      -2.407   3.632  25.329  0.00  0.00    +0.115 C 
BRANCH  19  20
ATOM     20  C   UNL     1      -1.825   4.196  25.177  0.00  0.00    -0.005 A 
ATOM     21  C   UNL     1      -2.014   4.999  25.196  0.00  0.00    -0.003 A 
ATOM     22  C   UNL     1      -1.433   5.564  25.043  0.00  0.00    -0.000 A 
ATOM     23  C   UNL     1      -0.662   5.325  24.872  0.00  0.00    -0.000 A 
ATOM     24  C   UNL     1      -0.472   4.523  24.854  0.00  0.00    -0.000 A 
ATOM     25  C   UNL     1      -1.054   3.958  25.006  0.00  0.00    -0.003 A 
ENDBRANCH  19  20
ENDBRANCH  18  19
ENDBRANCH   3  18
TORSDOF 6
ENDMDL
MODEL 4
REMARK VINA RESULT:     -10.3      2.824      6.255
REMARK  Name = 
REMARK  6 active torsions:
REMARK  status: ('A' for Active; 'I' for Inactive)
REMARK    1  A    between atoms: C_3  and  N_18
REMARK    2  A    between atoms: C_6  and  C_7
REMARK    3  A    between atoms: C_7  and  N_8
REMARK    4  A    between atoms: C_9  and  C_11
REMARK    5  A    between atoms: N_18  and  C_19
REMARK    6  A    between atoms: C_19  and  C_20
REMARK                            x       y       z     vdW  Elec       q    Type
REMARK                         _______ _______ _______ _____ _____    ______ ____
ROOT
ATOM      1  O   UNL     1      -0.822   1.188  25.963  0.00  0.00    -0.219 OA
ATOM      2  C   UNL     1      -0.685   1.160  25.150  0.00  0.00    +0.199 C 
ATOM      3  C   UNL     1      -0.579   1.809  24.653  0.00  0.00    +0.135 C 
ATOM      4  C   UNL     1      -0.458   1.527  23.888  0.00  0.00    +0.162 C 
ATOM      5  O   UNL     1      -0.490   0.703  23.911  0.00  0.00    -0.350 OA
ATOM      6  C   UNL     1      -0.629   0.475  24.691  0.00  0.00    +0.169 C 
ENDROOT
BRANCH   6   7
ATOM      7  C   UNL     1      -0.701  -0.299  24.965  0.00  0.00    +0.148 C 
BRANCH   7   8
ATOM      8  N   UNL     1      -1.381  -0.734  24.796  0.00  0.00    -0.199 NA
ATOM      9  C   UNL     1      -1.430  -1.527  25.021  0.00  0.00    +0.265 C 
ATOM     10  O   UNL     1      -0.799  -1.883  25.415  0.00  0.00    -0.268 OA
BRANCH   9  11
ATOM     11  C   UNL     1      -2.110  -1.963  24.851  0.00  0.00    +0.055 A 
ATOM     12  C   UNL     1      -2.080  -2.576  24.300  0.00  0.00    +0.007 A 
ATOM     13  C   UNL     1      -2.759  -3.012  24.131  0.00  0.00    +0.030 A 
ATOM     14  C   UNL     1      -3.469  -2.834  24.512  0.00  0.00    +0.140 A 
ATOM     15  F   UNL     1      -4.149  -3.269  24.343  0.00  0.00    -0.204 F 
ATOM     16  C   UNL     1      -3.500  -2.220  25.063  0.00  0.00    +0.030 A 
ATOM     17  C   UNL     1      -2.820  -1.785  25.233  0.00  0.00    +0.007 A 
ENDBRANCH   9  11
ENDBRANCH   7   8
ENDBRANCH   6   7
BRANCH   3  18
ATOM     18  N   UNL     1      -0.592   2.602  24.882  0.00  0.00    -0.209 NA
BRANCH  18  19
ATOM     19  C   UNL     1      -0.902   3.173  24.374  0.00  0.00    +0.115 C 
BRANCH  19  20
ATOM     20  C   UNL     1      -1.109   3.916  24.666  0.00  0.00    -0.005 A 
ATOM     21  C   UNL     1      -0.575   4.543  24.617  0.00  0.00    -0.003 A 
ATOM     22  C   UNL     1      -0.782   5.285  24.909  0.00  0.00    -0.000 A 
ATOM     23  C   UNL     1      -1.525   5.402  25.249  0.00  0.00    -0.000 A 
ATOM     24  C   UNL     1      -2.060   4.776  25.298  0.00  0.00    -0.000 A 
ATOM     25  C   UNL     1      -1.852   4.033  25.006  0.00  0.00    -0.003 A 
ENDBRANCH  19  20
ENDBRANCH  18  19
ENDBRANCH   3  18
TORSDOF 6
ENDMDL
MODEL 5
REMARK VINA RESULT:      -7.3     15.001     16.988
REMARK  Name = 
REMARK  6 active torsions:
REMARK  status: ('A' for Active; 'I' for Inactive)
REMARK    1  A    between atoms: C_3  and  N_18
REMARK    2  A    between atoms: C_6  and  C_7
REMARK    3  A    between atoms: C_7  and  N_8
REMARK    4  A    between atoms: C_9  and  C_11
REMARK    5  A    between atoms: N_18  and  C_19
REMARK    6  A    between atoms: C_19  and  C_20
REMARK                            x       y       z     vdW  Elec       q    Type
REMARK                         _______ _______ _______ _____ _____    ______ ____
ROOT
ATOM      1  O   UNL     1      -2.919 -10.781  14.380  0.00  0.00    -0.219 OA
ATOM      2  C   UNL     1      -3.689 -10.631  14.125  0.00  0.00    +0.199 C 
ATOM      3  C   UNL     1      -4.354 -10.562  14.607  0.00  0.00    +0.135 C 
ATOM      4  C   UNL     1      -5.005 -10.411  14.124  0.00  0.00    +0.162 C 
ATOM      5  O   UNL     1      -4.742 -10.387  13.342  0.00  0.00    -0.350 OA
ATOM      6  C   UNL     1      -3.929 -10.523  13.343  0.00  0.00    +0.169 C 
ENDROOT
BRANCH   6   7
ATOM      7  C   UNL     1      -3.441 -10.547  12.679  0.00  0.00    +0.148 C 
BRANCH   7   8
ATOM      8  N   UNL     1      -3.714 -10.257  11.956  0.00  0.00    -0.199 NA
ATOM      9  C   UNL     1      -3.233 -10.299  11.287  0.00  0.00    +0.265 C 
ATOM     10  O   UNL     1      -2.479 -10.629  11.341  0.00  0.00    -0.268 OA
BRANCH   9  11
ATOM     11  C   UNL     1      -3.506 -10.009  10.564  0.00  0.00    +0.055 A 
ATOM     12  C   UNL     1      -3.937 -10.500  10.060  0.00  0.00    +0.007 A 
ATOM     13  C   UNL     1      -4.210 -10.211   9.337  0.00  0.00    +0.030 A 
ATOM     14  C   UNL     1      -4.052  -9.431   9.119  0.00  0.00    +0.140 A 
ATOM     15  F   UNL     1      -4.325  -9.141   8.396  0.00  0.00    -0.204 F 
ATOM     16  C   UNL     1      -3.621  -8.940   9.623  0.00  0.00    +0.030 A 
ATOM     17  C   UNL     1      -3.348  -9.229  10.345  0.00  0.00    +0.007 A 
ENDBRANCH   9  11
ENDBRANCH   7   8
ENDBRANCH   6   7
BRANCH   3  18
ATOM     18  N   UNL     1      -4.367 -10.631  15.430  0.00  0.00    -0.209 NA
BRANCH  18  19
ATOM     19  C   UNL     1      -4.991 -10.309  15.862  0.00  0.00    +0.115 C 
BRANCH  19  20
ATOM     20  C   UNL     1      -5.056 -10.461  16.670  0.00  0.00    -0.005 A 
ATOM     21  C   UNL     1      -4.377 -10.580  17.123  0.00  0.00    -0.003 A 
ATOM     22  C   UNL     1      -4.442 -10.732  17.931  0.00  0.00    -0.000 A 
ATOM     23  C   UNL     1      -5.186 -10.766  18.286  0.00  0.00    -0.000 A 
ATOM     24  C   UNL     1      -5.865 -10.647  17.833  0.00  0.00    -0.000 A 
ATOM     25  C   UNL     1      -5.800 -10.495  17.025  0.00  0.00    -0.003 A 
ENDBRANCH  19  20
ENDBRANCH  18  19
ENDBRANCH   3  18
TORSDOF 6
ENDMDL
