MODEL 1
REMARK VINA RESULT:      -6.7      0.000      0.000
REMARK  Name = 
REMARK  6 active torsions:
REMARK  status: ('A' for Active; 'I' for Inactive)
REMARK    1  A    between atoms: S_2  and  N_5
REMARK    2  A    between atoms: N_5  and  C_6
REMARK    3  A    between atoms: C_6  and  C_7
REMARK    4  A    between atoms: C_10  and  N_11
REMARK    5  A    between atoms: N_11  and  C_12
REMARK    6  A    between atoms: C_12  and  C_13
REMARK                            x       y       z     vdW  Elec       q    Type
REMARK                         _______ _______ _______ _____ _____    ______ ____
ROOT
ATOM      7  C   UNL     1      -3.085   2.024  24.744  0.00  0.00    +0.166 C 
ATOM      8  O   UNL     1      -3.855   1.948  25.032  0.00  0.00    -0.350 OA
ATOM      9  C   UNL     1      -4.105   1.174  24.892  0.00  0.00    +0.162 C 
ATOM     10  C   UNL     1      -3.490   0.771  24.518  0.00  0.00    +0.136 C 
ATOM     18  C   UNL     1      -2.860   1.296  24.427  0.00  0.00    +0.199 C 
ATOM     19  O   UNL     1      -2.132   1.124  24.079  0.00  0.00    -0.219 OA
ENDROOT
BRANCH   7   6
ATOM      6  C   UNL     1      -2.623   2.706  24.769  0.00  0.00    +0.147 C 
BRANCH   6   5
ATOM      5  N   UNL     1      -2.801   3.305  25.308  0.00  0.00    -0.079 NA
BRANCH   5   2
ATOM      1  C   UNL     1      -1.848   4.649  25.392  0.00  0.00    +0.197 C 
ATOM      2  S   UNL     1      -2.324   3.977  25.350  0.00  0.00    +0.059 S 
ATOM      3  O   UNL     1      -2.708   4.290  24.690  0.00  0.00    -0.156 OA
ATOM      4  O   UNL     1      -1.941   3.664  26.010  0.00  0.00    -0.156 OA
ENDBRANCH   5   2
ENDBRANCH   6   5
ENDBRANCH   7   6
BRANCH  10  11
ATOM     11  N   UNL     1      -3.502  -0.017  24.278  0.00  0.00    -0.206 NA
BRANCH  11  12
ATOM     12  C   UNL     1      -4.006  -0.554  24.650  0.00  0.00    +0.154 C 
BRANCH  12  13
ATOM     13  C   UNL     1      -3.951  -1.359  24.479  0.00  0.00    +0.157 A 
ATOM     14  N   UNL     1      -4.274  -1.740  23.823  0.00  0.00    -0.226 NA
ATOM     15  C   UNL     1      -4.086  -2.541  23.873  0.00  0.00    +0.121 A 
ATOM     16  C   UNL     1      -3.646  -2.656  24.561  0.00  0.00    +0.121 A 
ATOM     17  N   UNL     1      -3.563  -1.926  24.936  0.00  0.00    -0.226 NA
ENDBRANCH  12  13
ENDBRANCH  11  12
ENDBRANCH  10  11
TORSDOF 6
ENDMDL
MODEL 2
REMARK VINA RESULT:      -6.4      2.100      5.055
REMARK  Name = 
REMARK  6 active torsions:
REMARK  status: ('A' for Active; 'I' for Inactive)
REMARK    1  A    between atoms: S_2  and  N_5
REMARK    2  A    between atoms: N_5  and  C_6
REMARK    3  A    between atoms: C_6  and  C_7
REMARK    4  A    between atoms: C_10  and  N_11
REMARK    5  A    between atoms: N_11  and  C_12
REMARK    6  A    between atoms: C_12  and  C_13
REMARK                            x       y       z     vdW  Elec       q    Type
REMARK                         _______ _______ _______ _____ _____    ______ ____
ROOT
ATOM      7  C   UNL     1      -2.364   0.179  24.944  0.00  0.00    +0.166 C 
ATOM      8  O   UNL     1      -1.653   0.198  25.363  0.00  0.00    -0.350 OA
ATOM      9  C   UNL     1      -1.399   0.983  25.398  0.00  0.00    +0.162 C 
ATOM     10  C   UNL     1      -1.953   1.448  25.001  0.00  0.00    +0.136 C 
ATOM     18  C   UNL     1      -2.549   0.951  24.721  0.00  0.00    +0.199 C 
ATOM     19  O   UNL     1      -3.214   1.185  24.292  0.00  0.00    -0.219 OA
ENDROOT
BRANCH   7   6
ATOM      6  C   UNL     1      -2.811  -0.495  24.778  0.00  0.00    +0.147 C 
BRANCH   6   5
ATOM      5  N   UNL     1      -2.607  -1.218  25.118  0.00  0.00    -0.079 NA
BRANCH   5   2
ATOM      1  C   UNL     1      -3.495  -2.567  24.779  0.00  0.00    +0.197 C 
ATOM      2  S   UNL     1      -3.051  -1.893  24.948  0.00  0.00    +0.059 S 
ATOM      3  O   UNL     1      -3.526  -1.745  25.606  0.00  0.00    -0.156 OA
ATOM      4  O   UNL     1      -2.575  -2.041  24.290  0.00  0.00    -0.156 OA
ENDBRANCH   5   2
ENDBRANCH   6   5
ENDBRANCH   7   6
BRANCH  10  11
ATOM     11  N   UNL     1      -1.917   2.266  24.902  0.00  0.00    -0.206 NA
BRANCH  11  12
ATOM     12  C   UNL     1      -1.417   2.718  25.378  0.00  0.00    +0.154 C 
BRANCH  12  13
ATOM     13  C   UNL     1      -1.377   3.535  25.275  0.00  0.00    +0.157 A 
ATOM     14  N   UNL     1      -1.946   4.083  25.511  0.00  0.00    -0.226 NA
ATOM     15  C   UNL     1      -1.681   4.835  25.301  0.00  0.00    +0.121 A 
ATOM     16  C   UNL     1      -0.947   4.752  24.934  0.00  0.00    +0.121 A 
ATOM     17  N   UNL     1      -0.758   3.948  24.918  0.00  0.00    -0.226 NA
ENDBRANCH  12  13
ENDBRANCH  11  12
ENDBRANCH  10  11
TORSDOF 6
ENDMDL
MODEL 3
REMARK VINA RESULT:      -6.1     17.101     18.811
REMARK  Name = 
REMARK  6 active torsions:
REMARK  status: ('A' for Active; 'I' for Inactive)
REMARK    1  A    between atoms: S_2  and  N_5
REMARK    2  A    between atoms: N_5  and  C_6
REMARK    3  A    between atoms: C_6  and  C_7
REMARK    4  A    between atoms: C_10  and  N_11
REMARK    5  A    between atoms: N_11  and  C_12
REMARK    6  A    between atoms: C_12  and  C_13
REMARK                            x       y       z     vdW  Elec       q    Type
REMARK                         _______ _______ _______ _____ _____    ______ ____
ROOT
ATOM      7  C   UNL     1      12.891   7.129  20.695  0.00  0.00    +0.166 C 
ATOM      8  O   UNL     1      12.821   6.995  19.884  0.00  0.00    -0.350 OA
ATOM      9  C   UNL     1      13.577   6.859  19.582  0.00  0.00    +0.162 C 
ATOM     10  C   UNL     1      14.114   6.909  20.206  0.00  0.00    +0.136 C 
ATOM     18  C   UNL     1      13.690   7.076  20.894  0.00  0.00    +0.199 C 
ATOM     19  O   UNL     1      14.009   7.172  21.649  0.00  0.00    -0.219 OA
ENDROOT
BRANCH   7   6
ATOM      6  C   UNL     1      12.271   7.288  21.215  0.00  0.00    +0.147 C 
BRANCH   6   5
ATOM      5  N   UNL     1      11.490   7.217  20.959  0.00  0.00    -0.079 NA
BRANCH   5   2
ATOM      1  C   UNL     1      10.249   7.512  22.007  0.00  0.00    +0.197 C 
ATOM      2  S   UNL     1      10.870   7.365  21.483  0.00  0.00    +0.059 S 
ATOM      3  O   UNL     1      10.849   8.152  21.238  0.00  0.00    -0.156 OA
ATOM      4  O   UNL     1      10.890   6.577  21.728  0.00  0.00    -0.156 OA
ENDBRANCH   5   2
ENDBRANCH   6   5
ENDBRANCH   7   6
BRANCH  10  11
ATOM     11  N   UNL     1      14.931   6.809  20.153  0.00  0.00    -0.206 NA
BRANCH  11  12
ATOM     12  C   UNL     1      15.289   6.725  19.414  0.00  0.00    +0.154 C 
BRANCH  12  13
ATOM     13  C   UNL     1      16.081   6.503  19.362  0.00  0.00    +0.157 A 
ATOM     14  N   UNL     1      16.716   6.876  19.733  0.00  0.00    -0.226 NA
ATOM     15  C   UNL     1      17.405   6.472  19.530  0.00  0.00    +0.121 A 
ATOM     16  C   UNL     1      17.197   5.848  19.033  0.00  0.00    +0.121 A 
ATOM     17  N   UNL     1      16.378   5.867  18.929  0.00  0.00    -0.226 NA
ENDBRANCH  12  13
ENDBRANCH  11  12
ENDBRANCH  10  11
TORSDOF 6
ENDMDL
MODEL 4
REMARK VINA RESULT:      -6.1     17.904     18.873
REMARK  Name = 
REMARK  6 active torsions:
REMARK  status: ('A' for Active; 'I' for Inactive)
REMARK    1  A    between atoms: S_2  and  N_5
REMARK    2  A    between atoms: N_5  and  C_6
REMARK    3  A    between atoms: C_6  and  C_7
REMARK    4  A    between atoms: C_10  and  N_11
REMARK    5  A    between atoms: N_11  and  C_12
REMARK    6  A    between atoms: C_12  and  C_13
REMARK                            x       y       z     vdW  Elec       q    Type
REMARK                         _______ _______ _______ _____ _____    ______ ____
ROOT
ATOM      7  C   UNL     1      12.337   7.878  18.214  0.00  0.00    +0.166 C 
ATOM      8  O   UNL     1      12.181   7.090  18.404  0.00  0.00    -0.350 OA
ATOM      9  C   UNL     1      12.741   6.845  18.958  0.00  0.00    +0.162 C 
ATOM     10  C   UNL     1      13.244   7.482  19.110  0.00  0.00    +0.136 C 
ATOM     18  C   UNL     1      12.994   8.120  18.650  0.00  0.00    +0.199 C 
ATOM     19  O   UNL     1      13.341   8.868  18.630  0.00  0.00    -0.219 OA
ENDROOT
BRANCH   7   6
ATOM      6  C   UNL     1      11.912   8.342  17.680  0.00  0.00    +0.147 C 
BRANCH   6   5
ATOM      5  N   UNL     1      11.384   7.986  17.155  0.00  0.00    -0.079 NA
BRANCH   5   2
ATOM      1  C   UNL     1      10.520   8.915  16.100  0.00  0.00    +0.197 C 
ATOM      2  S   UNL     1      10.952   8.450  16.628  0.00  0.00    +0.059 S 
ATOM      3  O   UNL     1      10.323   8.471  17.161  0.00  0.00    -0.156 OA
ATOM      4  O   UNL     1      11.581   8.430  16.094  0.00  0.00    -0.156 OA
ENDBRANCH   5   2
ENDBRANCH   6   5
ENDBRANCH   7   6
BRANCH  10  11
ATOM     11  N   UNL     1      13.884   7.481  19.631  0.00  0.00    -0.206 NA
BRANCH  11  12
ATOM     12  C   UNL     1      14.133   6.775  19.977  0.00  0.00    +0.154 C 
BRANCH  12  13
ATOM     13  C   UNL     1      14.810   6.762  20.447  0.00  0.00    +0.157 A 
ATOM     14  N   UNL     1      14.896   7.120  21.185  0.00  0.00    -0.226 NA
ATOM     15  C   UNL     1      15.660   6.967  21.456  0.00  0.00    +0.121 A 
ATOM     16  C   UNL     1      16.047   6.515  20.885  0.00  0.00    +0.121 A 
ATOM     17  N   UNL     1      15.522   6.388  20.261  0.00  0.00    -0.226 NA
ENDBRANCH  12  13
ENDBRANCH  11  12
ENDBRANCH  10  11
TORSDOF 6
ENDMDL
MODEL 5
REMARK VINA RESULT:      -6.1     18.238     19.585
REMARK  Name = 
REMARK  6 active torsions:
REMARK  status: ('A' for Active; 'I' for Inactive)
REMARK    1  A    between atoms: S_2  and  N_5
REMARK    2  A    between atoms: N_5  and  C_6
REMARK    3  A    between atoms: C_6  and  C_7
REMARK    4  A    between atoms: C_10  and  N_11
REMARK    5  A    between atoms: N_11  and  C_12
REMARK    6  A    between atoms: C_12  and  C_13
REMARK                            x       y       z     vdW  Elec       q    Type
REMARK                         _______ _______ _______ _____ _____    ______ ____
ROOT
ATOM      7  C   UNL     1      14.390   7.301  18.505  0.00  0.00    +0.166 C 
ATOM      8  O   UNL     1      13.795   7.345  19.076  0.00  0.00    -0.350 OA
ATOM      9  C   UNL     1      13.101   7.588  18.703  0.00  0.00    +0.162 C 
ATOM     10  C   UNL     1      13.266   7.695  17.901  0.00  0.00    +0.136 C 
ATOM     18  C   UNL     1      14.063   7.518  17.780  0.00  0.00    +0.199 C 
ATOM     19  O   UNL     1      14.462   7.551  17.058  0.00  0.00    -0.219 OA
ENDROOT
BRANCH   7   6
ATOM      6  C   UNL     1      15.174   7.080  18.637  0.00  0.00    +0.147 C 
BRANCH   6   5
ATOM      5  N   UNL     1      15.423   6.884  19.399  0.00  0.00    -0.079 NA
BRANCH   5   2
ATOM      1  C   UNL     1      16.996   6.463  19.667  0.00  0.00    +0.197 C 
ATOM      2  S   UNL     1      16.210   6.673  19.533  0.00  0.00    +0.059 S 
ATOM      3  O   UNL     1      16.042   5.900  19.301  0.00  0.00    -0.156 OA
ATOM      4  O   UNL     1      16.377   7.447  19.765  0.00  0.00    -0.156 OA
ENDBRANCH   5   2
ENDBRANCH   6   5
ENDBRANCH   7   6
BRANCH  10  11
ATOM     11  N   UNL     1      12.730   7.937  17.324  0.00  0.00    -0.206 NA
BRANCH  11  12
ATOM     12  C   UNL     1      11.994   8.239  17.544  0.00  0.00    +0.154 C 
BRANCH  12  13
ATOM     13  C   UNL     1      11.452   8.468  16.967  0.00  0.00    +0.157 A 
ATOM     14  N   UNL     1      11.591   9.002  16.354  0.00  0.00    -0.226 NA
ATOM     15  C   UNL     1      10.899   9.067  15.909  0.00  0.00    +0.121 A 
ATOM     16  C   UNL     1      10.333   8.572  16.246  0.00  0.00    +0.121 A 
ATOM     17  N   UNL     1      10.674   8.202  16.900  0.00  0.00    -0.226 NA
ENDBRANCH  12  13
ENDBRANCH  11  12
ENDBRANCH  10  11
TORSDOF 6
ENDMDL
MODEL 6
REMARK VINA RESULT:      -6.0     16.643     18.242
REMARK  Name = 
REMARK  6 active torsions:
REMARK  status: ('A' for Active; 'I' for Inactive)
REMARK    1  A    between atoms: S_2  and  N_5
REMARK    2  A    between atoms: N_5  and  C_6
REMARK    3  A    between atoms: C_6  and  C_7
REMARK    4  A    between atoms: C_10  and  N_11
REMARK    5  A    between atoms: N_11  and  C_12
REMARK    6  A    between atoms: C_12  and  C_13
REMARK                            x       y       z     vdW  Elec       q    Type
REMARK                         _______ _______ _______ _____ _____    ______ ____
ROOT
ATOM      7  C   UNL     1      13.017   7.721  18.047  0.00  0.00    +0.166 C 
ATOM      8  O   UNL     1      13.600   7.344  18.493  0.00  0.00    -0.350 OA
ATOM      9  C   UNL     1      13.249   7.063  19.186  0.00  0.00    +0.162 C 
ATOM     10  C   UNL     1      12.450   7.268  19.168  0.00  0.00    +0.136 C 
ATOM     18  C   UNL     1      12.307   7.675  18.464  0.00  0.00    +0.199 C 
ATOM     19  O   UNL     1      11.580   7.981  18.220  0.00  0.00    -0.219 OA
ENDROOT
BRANCH   7   6
ATOM      6  C   UNL     1      13.126   8.082  17.313  0.00  0.00    +0.147 C 
BRANCH   6   5
ATOM      5  N   UNL     1      13.872   8.084  16.962  0.00  0.00    -0.079 NA
BRANCH   5   2
ATOM      1  C   UNL     1      14.145   8.991  15.611  0.00  0.00    +0.197 C 
ATOM      2  S   UNL     1      14.008   8.537  16.286  0.00  0.00    +0.059 S 
ATOM      3  O   UNL     1      13.604   7.981  15.831  0.00  0.00    -0.156 OA
ATOM      4  O   UNL     1      14.413   9.094  16.741  0.00  0.00    -0.156 OA
ENDBRANCH   5   2
ENDBRANCH   6   5
ENDBRANCH   7   6
BRANCH  10  11
ATOM     11  N   UNL     1      11.892   7.096  19.750  0.00  0.00    -0.206 NA
BRANCH  11  12
ATOM     12  C   UNL     1      12.132   6.762  20.466  0.00  0.00    +0.154 C 
BRANCH  12  13
ATOM     13  C   UNL     1      11.569   6.509  21.012  0.00  0.00    +0.157 A 
ATOM     14  N   UNL     1      11.119   6.993  21.506  0.00  0.00    -0.226 NA
ATOM     15  C   UNL     1      10.629   6.510  21.961  0.00  0.00    +0.121 A 
ATOM     16  C   UNL     1      10.776   5.727  21.748  0.00  0.00    +0.121 A 
ATOM     17  N   UNL     1      11.357   5.726  21.162  0.00  0.00    -0.226 NA
ENDBRANCH  12  13
ENDBRANCH  11  12
ENDBRANCH  10  11
TORSDOF 6
ENDMDL
