MODEL 1
REMARK VINA RESULT:     -13.1      0.000      0.000
REMARK  Name = 
REMARK  5 active torsions:
REMARK  status: ('A' for Active; 'I' for Inactive)
REMARK    1  A    between atoms: C_2  and  O_5
REMARK    2  A    between atoms: O_5  and  C_6
REMARK    3  A    between atoms: C_9  and  C_12
REMARK    4  A    between atoms: C_20  and  C_22
REMARK    5  A    between atoms: C_25  and  C_28
REMARK                            x       y       z     vdW  Elec       q    Type
REMARK                         _______ _______ _______ _____ _____    ______ ____
ROOT
ATOM     12  C   UNL     1      -3.146   2.401  25.052  0.00  0.00    +0.012 A 
ATOM     13  C   UNL     1      -2.681   1.744  24.870  0.00  0.00    +0.041 A 
ATOM     14  C   UNL     1      -1.807   1.511  24.712  0.00  0.00    +0.058 C 
ATOM     15  C   UNL     1      -1.161   1.784  24.677  0.00  0.00    +0.011 C 
ATOM     16  C   UNL     1      -1.511   1.054  24.589  0.00  0.00    +0.043 C 
ATOM     17  C   UNL     1      -1.743   0.104  24.446  0.00  0.00    +0.096 C 
ATOM     18  N   UNL     1      -2.569   0.142  24.562  0.00  0.00    -0.276 N 
ATOM     19  C   UNL     1      -2.015   0.589  24.571  0.00  0.00    +0.099 C 
ATOM     20  C   UNL     1      -3.351  -0.115  24.618  0.00  0.00    +0.249 C 
ATOM     21  O   UNL     1      -3.951   0.423  24.796  0.00  0.00    -0.270 OA
ATOM     30  C   UNL     1      -2.428   1.289  24.753  0.00  0.00    +0.110 C 
ATOM     31  N   UNL     1      -3.032   1.003  24.781  0.00  0.00    -0.299 N 
ATOM     32  C   UNL     1      -3.848   0.918  24.873  0.00  0.00    +0.261 A 
ATOM     33  O   UNL     1      -4.409   0.316  24.836  0.00  0.00    -0.267 OA
ATOM     34  C   UNL     1      -4.312   1.575  25.054  0.00  0.00    +0.061 A 
ATOM     35  C   UNL     1      -3.961   2.317  25.144  0.00  0.00    +0.006 A 
ENDROOT
BRANCH  12   9
ATOM      6  C   UNL     1      -2.093   4.626  25.320  0.00  0.00    +0.147 A 
ATOM      7  C   UNL     1      -2.160   4.120  25.968  0.00  0.00    +0.037 A 
ATOM      8  C   UNL     1      -2.511   3.378  25.879  0.00  0.00    +0.003 A 
ATOM      9  C   UNL     1      -2.795   3.143  25.141  0.00  0.00    +0.001 A 
ATOM     10  C   UNL     1      -2.729   3.649  24.493  0.00  0.00    +0.003 A 
ATOM     11  C   UNL     1      -2.378   4.390  24.583  0.00  0.00    +0.037 A 
BRANCH   6   5
ATOM      5  O   UNL     1      -1.743   5.366  25.410  0.00  0.00    -0.404 OA
BRANCH   5   2
ATOM      1  F   UNL     1      -0.390   5.750  24.546  0.00  0.00    -0.133 F 
ATOM      2  C   UNL     1      -1.066   5.558  24.978  0.00  0.00    +0.575 C 
ATOM      3  F   UNL     1      -1.507   6.089  24.525  0.00  0.00    -0.133 F 
ATOM      4  F   UNL     1      -0.626   5.028  25.431  0.00  0.00    -0.133 F 
ENDBRANCH   5   2
ENDBRANCH   6   5
ENDBRANCH  12   9
BRANCH  20  22
ATOM     22  C   UNL     1      -3.533  -0.910  24.496  0.00  0.00    +0.054 A 
ATOM     23  C   UNL     1      -3.370  -1.466  25.083  0.00  0.00    +0.005 A 
ATOM     24  C   UNL     1      -3.552  -2.262  24.962  0.00  0.00    +0.010 A 
ATOM     25  C   UNL     1      -3.898  -2.501  24.252  0.00  0.00    +0.068 A 
ATOM     26  C   UNL     1      -4.061  -1.946  23.665  0.00  0.00    +0.010 A 
ATOM     27  C   UNL     1      -3.879  -1.150  23.786  0.00  0.00    +0.005 A 
BRANCH  25  28
ATOM     28  C   UNL     1      -4.080  -3.297  24.130  0.00  0.00    +0.100 C 
ATOM     29  N   UNL     1      -4.262  -4.092  24.009  0.00  0.00    -0.191 NA
ENDBRANCH  25  28
ENDBRANCH  20  22
TORSDOF 5
ENDMDL
MODEL 2
REMARK VINA RESULT:     -12.8      3.183      5.842
REMARK  Name = 
REMARK  5 active torsions:
REMARK  status: ('A' for Active; 'I' for Inactive)
REMARK    1  A    between atoms: C_2  and  O_5
REMARK    2  A    between atoms: O_5  and  C_6
REMARK    3  A    between atoms: C_9  and  C_12
REMARK    4  A    between atoms: C_20  and  C_22
REMARK    5  A    between atoms: C_25  and  C_28
REMARK                            x       y       z     vdW  Elec       q    Type
REMARK                         _______ _______ _______ _____ _____    ______ ____
ROOT
ATOM     12  C   UNL     1      -2.157  -0.203  25.219  0.00  0.00    +0.012 A 
ATOM     13  C   UNL     1      -2.500   0.454  24.858  0.00  0.00    +0.041 A 
ATOM     14  C   UNL     1      -3.207   0.683  24.317  0.00  0.00    +0.058 C 
ATOM     15  C   UNL     1      -3.756   0.404  23.980  0.00  0.00    +0.011 C 
ATOM     16  C   UNL     1      -3.423   1.140  24.082  0.00  0.00    +0.043 C 
ATOM     17  C   UNL     1      -3.174   2.097  24.084  0.00  0.00    +0.096 C 
ATOM     18  N   UNL     1      -2.495   2.064  24.570  0.00  0.00    -0.276 N 
ATOM     19  C   UNL     1      -2.980   1.611  24.310  0.00  0.00    +0.099 C 
ATOM     20  C   UNL     1      -1.835   2.328  24.989  0.00  0.00    +0.249 C 
ATOM     21  O   UNL     1      -1.373   1.790  25.412  0.00  0.00    -0.270 OA
ATOM     30  C   UNL     1      -2.682   0.910  24.647  0.00  0.00    +0.110 C 
ATOM     31  N   UNL     1      -2.166   1.202  24.959  0.00  0.00    -0.299 N 
ATOM     32  C   UNL     1      -1.489   1.292  25.421  0.00  0.00    +0.261 A 
ATOM     33  O   UNL     1      -0.989   1.902  25.663  0.00  0.00    -0.267 OA
ATOM     34  C   UNL     1      -1.146   0.635  25.782  0.00  0.00    +0.061 A 
ATOM     35  C   UNL     1      -1.480  -0.113  25.681  0.00  0.00    +0.006 A 
ENDROOT
BRANCH  12   9
ATOM      6  C   UNL     1      -3.160  -2.446  24.917  0.00  0.00    +0.147 A 
ATOM      7  C   UNL     1      -3.439  -1.946  25.510  0.00  0.00    +0.037 A 
ATOM      8  C   UNL     1      -3.105  -1.199  25.611  0.00  0.00    +0.003 A 
ATOM      9  C   UNL     1      -2.492  -0.951  25.118  0.00  0.00    +0.001 A 
ATOM     10  C   UNL     1      -2.212  -1.451  24.525  0.00  0.00    +0.003 A 
ATOM     11  C   UNL     1      -2.546  -2.199  24.424  0.00  0.00    +0.037 A 
BRANCH   6   5
ATOM      5  O   UNL     1      -3.494  -3.193  24.816  0.00  0.00    -0.404 OA
BRANCH   5   2
ATOM      1  F   UNL     1      -4.329  -3.546  23.437  0.00  0.00    -0.133 F 
ATOM      2  C   UNL     1      -3.912  -3.369  24.126  0.00  0.00    +0.575 C 
ATOM      3  F   UNL     1      -3.270  -3.809  23.852  0.00  0.00    -0.133 F 
ATOM      4  F   UNL     1      -4.553  -2.929  24.402  0.00  0.00    -0.133 F 
ENDBRANCH   5   2
ENDBRANCH   6   5
ENDBRANCH  12   9
BRANCH  20  22
ATOM     22  C   UNL     1      -1.637   3.128  24.984  0.00  0.00    +0.054 A 
ATOM     23  C   UNL     1      -1.052   3.405  24.473  0.00  0.00    +0.005 A 
ATOM     24  C   UNL     1      -0.853   4.207  24.468  0.00  0.00    +0.010 A 
ATOM     25  C   UNL     1      -1.241   4.730  24.975  0.00  0.00    +0.068 A 
ATOM     26  C   UNL     1      -1.826   4.453  25.486  0.00  0.00    +0.010 A 
ATOM     27  C   UNL     1      -2.024   3.652  25.491  0.00  0.00    +0.005 A 
BRANCH  25  28
ATOM     28  C   UNL     1      -1.042   5.531  24.970  0.00  0.00    +0.100 C 
ATOM     29  N   UNL     1      -0.844   6.332  24.965  0.00  0.00    -0.191 NA
ENDBRANCH  25  28
ENDBRANCH  20  22
TORSDOF 5
ENDMDL
MODEL 3
REMARK VINA RESULT:     -11.1      2.945      4.239
REMARK  Name = 
REMARK  5 active torsions:
REMARK  status: ('A' for Active; 'I' for Inactive)
REMARK    1  A    between atoms: C_2  and  O_5
REMARK    2  A    between atoms: O_5  and  C_6
REMARK    3  A    between atoms: C_9  and  C_12
REMARK    4  A    between atoms: C_20  and  C_22
REMARK    5  A    between atoms: C_25  and  C_28
REMARK                            x       y       z     vdW  Elec       q    Type
REMARK                         _______ _______ _______ _____ _____    ______ ____
ROOT
ATOM     12  C   UNL     1      -3.163   1.888  24.145  0.00  0.00    +0.012 A 
ATOM     13  C   UNL     1      -2.643   1.326  24.450  0.00  0.00    +0.041 A 
ATOM     14  C   UNL     1      -2.583   0.698  25.118  0.00  0.00    +0.058 C 
ATOM     15  C   UNL     1      -2.948   0.426  25.652  0.00  0.00    +0.011 C 
ATOM     16  C   UNL     1      -2.216   0.323  25.309  0.00  0.00    +0.043 C 
ATOM     17  C   UNL     1      -1.304   0.055  25.038  0.00  0.00    +0.096 C 
ATOM     18  N   UNL     1      -1.194   0.570  24.390  0.00  0.00    -0.276 N 
ATOM     19  C   UNL     1      -1.701   0.427  24.869  0.00  0.00    +0.099 C 
ATOM     20  C   UNL     1      -0.819   0.932  23.749  0.00  0.00    +0.249 C 
ATOM     21  O   UNL     1      -1.207   1.526  23.326  0.00  0.00    -0.270 OA
ATOM     30  C   UNL     1      -2.270   0.977  24.608  0.00  0.00    +0.110 C 
ATOM     31  N   UNL     1      -1.901   1.219  24.105  0.00  0.00    -0.299 N 
ATOM     32  C   UNL     1      -1.679   1.675  23.454  0.00  0.00    +0.261 A 
ATOM     33  O   UNL     1      -1.027   1.756  22.955  0.00  0.00    -0.267 OA
ATOM     34  C   UNL     1      -2.199   2.238  23.149  0.00  0.00    +0.061 A 
ATOM     35  C   UNL     1      -2.941   2.344  23.494  0.00  0.00    +0.006 A 
ENDROOT
BRANCH  12   9
ATOM      6  C   UNL     1      -5.388   2.208  25.181  0.00  0.00    +0.147 A 
ATOM      7  C   UNL     1      -4.763   2.707  25.383  0.00  0.00    +0.037 A 
ATOM      8  C   UNL     1      -4.022   2.601  25.038  0.00  0.00    +0.003 A 
ATOM      9  C   UNL     1      -3.904   1.995  24.490  0.00  0.00    +0.001 A 
ATOM     10  C   UNL     1      -4.529   1.496  24.288  0.00  0.00    +0.003 A 
ATOM     11  C   UNL     1      -5.271   1.602  24.634  0.00  0.00    +0.037 A 
BRANCH   6   5
ATOM      5  O   UNL     1      -6.129   2.315  25.526  0.00  0.00    -0.404 OA
BRANCH   5   2
ATOM      1  F   UNL     1      -6.487   1.577  26.958  0.00  0.00    -0.133 F 
ATOM      2  C   UNL     1      -6.308   1.946  26.243  0.00  0.00    +0.575 C 
ATOM      3  F   UNL     1      -6.626   1.305  25.832  0.00  0.00    -0.133 F 
ATOM      4  F   UNL     1      -5.990   2.587  26.653  0.00  0.00    -0.133 F 
ENDBRANCH   5   2
ENDBRANCH   6   5
ENDBRANCH  12   9
BRANCH  20  22
ATOM     22  C   UNL     1      -0.058   0.701  23.532  0.00  0.00    +0.054 A 
ATOM     23  C   UNL     1       0.052   0.029  23.067  0.00  0.00    +0.005 A 
ATOM     24  C   UNL     1       0.814  -0.203  22.849  0.00  0.00    +0.010 A 
ATOM     25  C   UNL     1       1.465   0.238  23.098  0.00  0.00    +0.068 A 
ATOM     26  C   UNL     1       1.356   0.909  23.563  0.00  0.00    +0.010 A 
ATOM     27  C   UNL     1       0.594   1.141  23.781  0.00  0.00    +0.005 A 
BRANCH  25  28
ATOM     28  C   UNL     1       2.227   0.006  22.881  0.00  0.00    +0.100 C 
ATOM     29  N   UNL     1       2.988  -0.225  22.663  0.00  0.00    -0.191 NA
ENDBRANCH  25  28
ENDBRANCH  20  22
TORSDOF 5
ENDMDL
