MODEL 1
REMARK VINA RESULT:      -9.2      0.000      0.000
REMARK  Name = 
REMARK  7 active torsions:
REMARK  status: ('A' for Active; 'I' for Inactive)
REMARK    1  A    between atoms: C_2  and  C_4
REMARK    2  A    between atoms: C_7  and  N_8
REMARK    3  A    between atoms: C_9  and  O_11
REMARK    4  A    between atoms: O_11  and  C_12
REMARK    5  A    between atoms: C_16  and  N_20
REMARK    6  A    between atoms: N_20  and  S_21
REMARK    7  A    between atoms: S_21  and  C_24
REMARK                            x       y       z     vdW  Elec       q    Type
REMARK                         _______ _______ _______ _____ _____    ______ ____
ROOT
ATOM     12  C   UNL     1       0.230   0.204  23.411  0.00  0.00    +0.229 C 
ATOM     13  C   UNL     1       0.287  -0.422  23.945  0.00  0.00    +0.188 C 
ATOM     14  O   UNL     1      -0.401  -0.432  24.400  0.00  0.00    -0.348 OA
ATOM     15  C   UNL     1      -0.882   0.188  24.149  0.00  0.00    +0.166 C 
ATOM     16  C   UNL     1      -1.605   0.566  24.274  0.00  0.00    +0.157 C 
ATOM     17  C   UNL     1      -1.662   1.193  23.740  0.00  0.00    +0.164 C 
ATOM     18  O   UNL     1      -0.974   1.202  23.285  0.00  0.00    -0.348 OA
ATOM     19  C   UNL     1      -0.492   0.581  23.537  0.00  0.00    +0.186 C 
ENDROOT
BRANCH  12  11
ATOM     11  O   UNL     1       0.796   0.415  22.850  0.00  0.00    -0.432 OA
BRANCH  11   9
ATOM      8  N   UNL     1       2.160   0.070  22.597  0.00  0.00    -0.142 NA
ATOM      9  C   UNL     1       1.593   0.450  23.060  0.00  0.00    +0.425 C 
ATOM     10  O   UNL     1       1.823   0.866  23.735  0.00  0.00    -0.224 OA
BRANCH   8   7
ATOM      4  C   UNL     1       4.551   0.174  23.230  0.00  0.00    -0.022 A 
ATOM      5  C   UNL     1       4.106  -0.499  23.405  0.00  0.00    -0.003 A 
ATOM      6  C   UNL     1       3.310  -0.533  23.194  0.00  0.00    +0.016 A 
ATOM      7  C   UNL     1       2.957   0.105  22.808  0.00  0.00    +0.077 A 
ATOM     31  C   UNL     1       3.401   0.777  22.633  0.00  0.00    +0.016 A 
ATOM     32  C   UNL     1       4.198   0.812  22.844  0.00  0.00    -0.003 A 
BRANCH   4   2
ATOM      1  C   UNL     1       5.583   0.661  24.089  0.00  0.00    +0.005 C 
ATOM      2  C   UNL     1       5.347   0.208  23.441  0.00  0.00    +0.022 C 
ATOM      3  C   UNL     1       5.908  -0.211  23.004  0.00  0.00    +0.005 C 
ENDBRANCH   4   2
ENDBRANCH   8   7
ENDBRANCH  11   9
ENDBRANCH  12  11
BRANCH  16  20
ATOM     20  N   UNL     1      -2.172   0.355  24.835  0.00  0.00    -0.074 NA
BRANCH  20  21
ATOM     21  S   UNL     1      -2.909   0.724  24.837  0.00  0.00    +0.077 S 
ATOM     22  O   UNL     1      -3.201   0.141  24.331  0.00  0.00    -0.152 OA
ATOM     23  O   UNL     1      -2.617   1.307  25.342  0.00  0.00    -0.152 OA
BRANCH  21  24
ATOM     24  C   UNL     1      -3.647   1.093  24.838  0.00  0.00    +0.124 A 
ATOM     25  C   UNL     1      -4.335   0.639  24.781  0.00  0.00    +0.021 A 
ATOM     26  C   UNL     1      -5.073   1.008  24.782  0.00  0.00    +0.013 A 
ATOM     27  C   UNL     1      -5.124   1.829  24.839  0.00  0.00    +0.058 A 
ATOM     28 CL   UNL     1      -5.863   2.197  24.840  0.00  0.00    -0.082 Cl
ATOM     29  C   UNL     1      -4.437   2.282  24.896  0.00  0.00    +0.013 A 
ATOM     30  C   UNL     1      -3.699   1.914  24.895  0.00  0.00    +0.021 A 
ENDBRANCH  21  24
ENDBRANCH  20  21
ENDBRANCH  16  20
TORSDOF 7
ENDMDL
MODEL 2
REMARK VINA RESULT:      -9.0      2.469      7.143
REMARK  Name = 
REMARK  7 active torsions:
REMARK  status: ('A' for Active; 'I' for Inactive)
REMARK    1  A    between atoms: C_2  and  C_4
REMARK    2  A    between atoms: C_7  and  N_8
REMARK    3  A    between atoms: C_9  and  O_11
REMARK    4  A    between atoms: O_11  and  C_12
REMARK    5  A    between atoms: C_16  and  N_20
REMARK    6  A    between atoms: N_20  and  S_21
REMARK    7  A    between atoms: S_21  and  C_24
REMARK                            x       y       z     vdW  Elec       q    Type
REMARK                         _______ _______ _______ _____ _____    ______ ____
ROOT
ATOM     12  C   UNL     1      -0.565   0.462  24.129  0.00  0.00    +0.229 C 
ATOM     13  C   UNL     1      -0.474   1.278  24.048  0.00  0.00    +0.188 C 
ATOM     14  O   UNL     1       0.212   1.416  23.612  0.00  0.00    -0.348 OA
ATOM     15  C   UNL     1       0.546   0.686  23.424  0.00  0.00    +0.166 C 
ATOM     16  C   UNL     1       1.176   0.319  23.038  0.00  0.00    +0.157 C 
ATOM     17  C   UNL     1       1.085  -0.497  23.119  0.00  0.00    +0.164 C 
ATOM     18  O   UNL     1       0.399  -0.634  23.554  0.00  0.00    -0.348 OA
ATOM     19  C   UNL     1       0.065   0.097  23.743  0.00  0.00    +0.186 C 
ENDROOT
BRANCH  12  11
ATOM     11  O   UNL     1      -1.179   0.079  24.526  0.00  0.00    -0.432 OA
BRANCH  11   9
ATOM      8  N   UNL     1      -2.577   0.282  24.314  0.00  0.00    -0.142 NA
ATOM      9  C   UNL     1      -1.876   0.485  24.698  0.00  0.00    +0.425 C 
ATOM     10  O   UNL     1      -1.871   1.096  25.253  0.00  0.00    -0.224 OA
BRANCH   8   7
ATOM      4  C   UNL     1      -4.670   1.499  24.829  0.00  0.00    -0.022 A 
ATOM      5  C   UNL     1      -4.496   0.793  25.220  0.00  0.00    -0.003 A 
ATOM      6  C   UNL     1      -3.799   0.388  25.048  0.00  0.00    +0.016 A 
ATOM      7  C   UNL     1      -3.275   0.688  24.486  0.00  0.00    +0.077 A 
ATOM     31  C   UNL     1      -3.448   1.393  24.096  0.00  0.00    +0.016 A 
ATOM     32  C   UNL     1      -4.146   1.800  24.267  0.00  0.00    -0.003 A 
BRANCH   4   2
ATOM      1  C   UNL     1      -5.335   2.681  25.279  0.00  0.00    +0.005 C 
ATOM      2  C   UNL     1      -5.367   1.905  25.001  0.00  0.00    +0.022 C 
ATOM      3  C   UNL     1      -6.097   1.534  24.896  0.00  0.00    +0.005 C 
ENDBRANCH   4   2
ENDBRANCH   8   7
ENDBRANCH  11   9
ENDBRANCH  12  11
BRANCH  16  20
ATOM     20  N   UNL     1       1.790   0.702  22.641  0.00  0.00    -0.074 NA
BRANCH  20  21
ATOM     21  S   UNL     1       2.574   0.519  22.819  0.00  0.00    +0.077 S 
ATOM     22  O   UNL     1       2.598   1.145  23.355  0.00  0.00    -0.152 OA
ATOM     23  O   UNL     1       2.550  -0.108  22.282  0.00  0.00    -0.152 OA
BRANCH  21  24
ATOM     24  C   UNL     1       3.359   0.337  22.997  0.00  0.00    +0.124 A 
ATOM     25  C   UNL     1       3.946   0.909  22.905  0.00  0.00    +0.021 A 
ATOM     26  C   UNL     1       4.731   0.727  23.084  0.00  0.00    +0.013 A 
ATOM     27  C   UNL     1       4.928  -0.027  23.354  0.00  0.00    +0.058 A 
ATOM     28 CL   UNL     1       5.713  -0.209  23.533  0.00  0.00    -0.082 Cl
ATOM     29  C   UNL     1       4.341  -0.599  23.446  0.00  0.00    +0.013 A 
ATOM     30  C   UNL     1       3.556  -0.417  23.267  0.00  0.00    +0.021 A 
ENDBRANCH  21  24
ENDBRANCH  20  21
ENDBRANCH  16  20
TORSDOF 7
ENDMDL
MODEL 3
REMARK VINA RESULT:      -9.0      4.821      6.160
REMARK  Name = 
REMARK  7 active torsions:
REMARK  status: ('A' for Active; 'I' for Inactive)
REMARK    1  A    between atoms: C_2  and  C_4
REMARK    2  A    between atoms: C_7  and  N_8
REMARK    3  A    between atoms: C_9  and  O_11
REMARK    4  A    between atoms: O_11  and  C_12
REMARK    5  A    between atoms: C_16  and  N_20
REMARK    6  A    between atoms: N_20  and  S_21
REMARK    7  A    between atoms: S_21  and  C_24
REMARK                            x       y       z     vdW  Elec       q    Type
REMARK                         _______ _______ _______ _____ _____    ______ ____
ROOT
ATOM     12  C   UNL     1      -5.109   1.650  25.051  0.00  0.00    +0.229 C 
ATOM     13  C   UNL     1      -5.247   1.873  25.833  0.00  0.00    +0.188 C 
ATOM     14  O   UNL     1      -4.896   2.609  25.952  0.00  0.00    -0.348 OA
ATOM     15  C   UNL     1      -4.541   2.841  25.246  0.00  0.00    +0.166 C 
ATOM     16  C   UNL     1      -4.104   3.439  24.881  0.00  0.00    +0.157 C 
ATOM     17  C   UNL     1      -3.966   3.215  24.100  0.00  0.00    +0.164 C 
ATOM     18  O   UNL     1      -4.318   2.479  23.980  0.00  0.00    -0.348 OA
ATOM     19  C   UNL     1      -4.673   2.247  24.688  0.00  0.00    +0.186 C 
ENDROOT
BRANCH  12  11
ATOM     11  O   UNL     1      -5.364   0.950  24.695  0.00  0.00    -0.432 OA
BRANCH  11   9
ATOM      8  N   UNL     1      -4.594  -0.111  24.126  0.00  0.00    -0.142 NA
ATOM      9  C   UNL     1      -4.925   0.257  24.786  0.00  0.00    +0.425 C 
ATOM     10  O   UNL     1      -4.818  -0.067  25.537  0.00  0.00    -0.224 OA
BRANCH   8   7
ATOM      4  C   UNL     1      -3.279  -2.190  24.398  0.00  0.00    -0.022 A 
ATOM      5  C   UNL     1      -4.033  -2.220  24.065  0.00  0.00    -0.003 A 
ATOM      6  C   UNL     1      -4.471  -1.527  23.975  0.00  0.00    +0.016 A 
ATOM      7  C   UNL     1      -4.155  -0.804  24.217  0.00  0.00    +0.077 A 
ATOM     31  C   UNL     1      -3.402  -0.775  24.550  0.00  0.00    +0.016 A 
ATOM     32  C   UNL     1      -2.963  -1.468  24.641  0.00  0.00    -0.003 A 
BRANCH   4   2
ATOM      1  C   UNL     1      -2.020  -2.866  24.407  0.00  0.00    +0.005 C 
ATOM      2  C   UNL     1      -2.841  -2.884  24.489  0.00  0.00    +0.022 C 
ATOM      3  C   UNL     1      -3.223  -3.594  24.660  0.00  0.00    +0.005 C 
ENDBRANCH   4   2
ENDBRANCH   8   7
ENDBRANCH  11   9
ENDBRANCH  12  11
BRANCH  16  20
ATOM     20  N   UNL     1      -3.849   4.138  25.238  0.00  0.00    -0.074 NA
BRANCH  20  21
ATOM     21  S   UNL     1      -3.062   4.375  25.168  0.00  0.00    +0.077 S 
ATOM     22  O   UNL     1      -2.934   4.178  25.959  0.00  0.00    -0.152 OA
ATOM     23  O   UNL     1      -3.191   4.572  24.377  0.00  0.00    -0.152 OA
BRANCH  21  24
ATOM     24  C   UNL     1      -2.275   4.611  25.099  0.00  0.00    +0.124 A 
ATOM     25  C   UNL     1      -1.672   4.047  25.123  0.00  0.00    +0.021 A 
ATOM     26  C   UNL     1      -0.884   4.283  25.055  0.00  0.00    +0.013 A 
ATOM     27  C   UNL     1      -0.699   5.082  24.961  0.00  0.00    +0.058 A 
ATOM     28 CL   UNL     1       0.089   5.317  24.893  0.00  0.00    -0.082 Cl
ATOM     29  C   UNL     1      -1.301   5.644  24.937  0.00  0.00    +0.013 A 
ATOM     30  C   UNL     1      -2.089   5.409  25.006  0.00  0.00    +0.021 A 
ENDBRANCH  21  24
ENDBRANCH  20  21
ENDBRANCH  16  20
TORSDOF 7
ENDMDL
MODEL 4
REMARK VINA RESULT:      -8.5      3.168      5.490
REMARK  Name = 
REMARK  7 active torsions:
REMARK  status: ('A' for Active; 'I' for Inactive)
REMARK    1  A    between atoms: C_2  and  C_4
REMARK    2  A    between atoms: C_7  and  N_8
REMARK    3  A    between atoms: C_9  and  O_11
REMARK    4  A    between atoms: O_11  and  C_12
REMARK    5  A    between atoms: C_16  and  N_20
REMARK    6  A    between atoms: N_20  and  S_21
REMARK    7  A    between atoms: S_21  and  C_24
REMARK                            x       y       z     vdW  Elec       q    Type
REMARK                         _______ _______ _______ _____ _____    ______ ____
ROOT
ATOM     12  C   UNL     1      -0.166   0.026  24.640  0.00  0.00    +0.229 C 
ATOM     13  C   UNL     1       0.145   0.187  23.893  0.00  0.00    +0.188 C 
ATOM     14  O   UNL     1       0.262   1.001  23.836  0.00  0.00    -0.348 OA
ATOM     15  C   UNL     1       0.023   1.344  24.547  0.00  0.00    +0.166 C 
ATOM     16  C   UNL     1      -0.053   2.058  24.952  0.00  0.00    +0.157 C 
ATOM     17  C   UNL     1      -0.364   1.898  25.699  0.00  0.00    +0.164 C 
ATOM     18  O   UNL     1      -0.481   1.083  25.756  0.00  0.00    -0.348 OA
ATOM     19  C   UNL     1      -0.241   0.741  25.044  0.00  0.00    +0.186 C 
ENDROOT
BRANCH  12  11
ATOM     11  O   UNL     1      -0.366  -0.720  24.931  0.00  0.00    -0.432 OA
BRANCH  11   9
ATOM      8  N   UNL     1      -1.680  -1.253  25.113  0.00  0.00    -0.142 NA
ATOM      9  C   UNL     1      -1.024  -1.117  24.631  0.00  0.00    +0.425 C 
ATOM     10  O   UNL     1      -1.026  -1.379  23.848  0.00  0.00    -0.224 OA
BRANCH   8   7
ATOM      4  C   UNL     1      -3.654  -2.444  24.213  0.00  0.00    -0.022 A 
ATOM      5  C   UNL     1      -3.677  -1.625  24.315  0.00  0.00    -0.003 A 
ATOM      6  C   UNL     1      -3.019  -1.229  24.616  0.00  0.00    +0.016 A 
ATOM      7  C   UNL     1      -2.338  -1.650  24.813  0.00  0.00    +0.077 A 
ATOM     31  C   UNL     1      -2.315  -2.468  24.710  0.00  0.00    +0.016 A 
ATOM     32  C   UNL     1      -2.973  -2.865  24.410  0.00  0.00    -0.003 A 
BRANCH   4   2
ATOM      1  C   UNL     1      -4.367  -3.661  23.983  0.00  0.00    +0.005 C 
ATOM      2  C   UNL     1      -4.312  -2.840  23.913  0.00  0.00    +0.022 C 
ATOM      3  C   UNL     1      -4.916  -2.417  23.542  0.00  0.00    +0.005 C 
ENDBRANCH   4   2
ENDBRANCH   8   7
ENDBRANCH  11   9
ENDBRANCH  12  11
BRANCH  16  20
ATOM     20  N   UNL     1       0.148   2.804  24.661  0.00  0.00    -0.074 NA
BRANCH  20  21
ATOM     21  S   UNL     1      -0.349   3.448  24.798  0.00  0.00    +0.077 S 
ATOM     22  O   UNL     1      -0.684   3.348  24.052  0.00  0.00    -0.152 OA
ATOM     23  O   UNL     1      -0.012   3.548  25.545  0.00  0.00    -0.152 OA
BRANCH  21  24
ATOM     24  C   UNL     1      -0.846   4.093  24.935  0.00  0.00    +0.124 A 
ATOM     25  C   UNL     1      -0.582   4.858  24.774  0.00  0.00    +0.021 A 
ATOM     26  C   UNL     1      -1.079   5.502  24.911  0.00  0.00    +0.013 A 
ATOM     27  C   UNL     1      -1.839   5.382  25.208  0.00  0.00    +0.058 A 
ATOM     28 CL   UNL     1      -2.335   6.027  25.344  0.00  0.00    -0.082 Cl
ATOM     29  C   UNL     1      -2.102   4.617  25.368  0.00  0.00    +0.013 A 
ATOM     30  C   UNL     1      -1.606   3.972  25.232  0.00  0.00    +0.021 A 
ENDBRANCH  21  24
ENDBRANCH  20  21
ENDBRANCH  16  20
TORSDOF 7
ENDMDL
MODEL 5
REMARK VINA RESULT:      -8.3      1.740      2.112
REMARK  Name = 
REMARK  7 active torsions:
REMARK  status: ('A' for Active; 'I' for Inactive)
REMARK    1  A    between atoms: C_2  and  C_4
REMARK    2  A    between atoms: C_7  and  N_8
REMARK    3  A    between atoms: C_9  and  O_11
REMARK    4  A    between atoms: O_11  and  C_12
REMARK    5  A    between atoms: C_16  and  N_20
REMARK    6  A    between atoms: N_20  and  S_21
REMARK    7  A    between atoms: S_21  and  C_24
REMARK                            x       y       z     vdW  Elec       q    Type
REMARK                         _______ _______ _______ _____ _____    ______ ____
ROOT
ATOM     12  C   UNL     1       0.565   0.645  23.447  0.00  0.00    +0.229 C 
ATOM     13  C   UNL     1       0.322   1.218  23.989  0.00  0.00    +0.188 C 
ATOM     14  O   UNL     1      -0.281   0.894  24.448  0.00  0.00    -0.348 OA
ATOM     15  C   UNL     1      -0.412   0.122  24.192  0.00  0.00    +0.166 C 
ATOM     16  C   UNL     1      -0.865  -0.556  24.316  0.00  0.00    +0.157 C 
ATOM     17  C   UNL     1      -0.623  -1.129  23.775  0.00  0.00    +0.164 C 
ATOM     18  O   UNL     1      -0.019  -0.805  23.315  0.00  0.00    -0.348 OA
ATOM     19  C   UNL     1       0.111  -0.032  23.573  0.00  0.00    +0.186 C 
ENDROOT
BRANCH  12  11
ATOM     11  O   UNL     1       1.157   0.734  22.880  0.00  0.00    -0.432 OA
BRANCH  11   9
ATOM      8  N   UNL     1       2.482   0.238  22.679  0.00  0.00    -0.142 NA
ATOM      9  C   UNL     1       1.951   0.703  23.104  0.00  0.00    +0.425 C 
ATOM     10  O   UNL     1       2.213   1.140  23.754  0.00  0.00    -0.224 OA
BRANCH   8   7
ATOM      4  C   UNL     1       4.863   0.145  23.350  0.00  0.00    -0.022 A 
ATOM      5  C   UNL     1       4.362  -0.490  23.515  0.00  0.00    -0.003 A 
ATOM      6  C   UNL     1       3.569  -0.459  23.291  0.00  0.00    +0.016 A 
ATOM      7  C   UNL     1       3.276   0.207  22.902  0.00  0.00    +0.077 A 
ATOM     31  C   UNL     1       3.776   0.841  22.737  0.00  0.00    +0.016 A 
ATOM     32  C   UNL     1       4.569   0.811  22.961  0.00  0.00    -0.003 A 
BRANCH   4   2
ATOM      1  C   UNL     1       5.903   0.484  24.269  0.00  0.00    +0.005 C 
ATOM      2  C   UNL     1       5.656   0.113  23.574  0.00  0.00    +0.022 C 
ATOM      3  C   UNL     1       6.202  -0.288  23.104  0.00  0.00    +0.005 C 
ENDBRANCH   4   2
ENDBRANCH   8   7
ENDBRANCH  11   9
ENDBRANCH  12  11
BRANCH  16  20
ATOM     20  N   UNL     1      -1.458  -0.645  24.883  0.00  0.00    -0.074 NA
BRANCH  20  21
ATOM     21  S   UNL     1      -2.148  -1.058  24.698  0.00  0.00    +0.077 S 
ATOM     22  O   UNL     1      -1.776  -1.767  24.897  0.00  0.00    -0.152 OA
ATOM     23  O   UNL     1      -2.520  -0.348  24.500  0.00  0.00    -0.152 OA
BRANCH  21  24
ATOM     24  C   UNL     1      -2.838  -1.471  24.514  0.00  0.00    +0.124 A 
ATOM     25  C   UNL     1      -3.473  -1.078  24.163  0.00  0.00    +0.021 A 
ATOM     26  C   UNL     1      -4.162  -1.492  23.978  0.00  0.00    +0.013 A 
ATOM     27  C   UNL     1      -4.217  -2.298  24.144  0.00  0.00    +0.058 A 
ATOM     28 CL   UNL     1      -4.907  -2.711  23.959  0.00  0.00    -0.082 Cl
ATOM     29  C   UNL     1      -3.582  -2.690  24.495  0.00  0.00    +0.013 A 
ATOM     30  C   UNL     1      -2.892  -2.277  24.680  0.00  0.00    +0.021 A 
ENDBRANCH  21  24
ENDBRANCH  20  21
ENDBRANCH  16  20
TORSDOF 7
ENDMDL
MODEL 6
REMARK VINA RESULT:      -8.2      3.147      4.868
REMARK  Name = 
REMARK  7 active torsions:
REMARK  status: ('A' for Active; 'I' for Inactive)
REMARK    1  A    between atoms: C_2  and  C_4
REMARK    2  A    between atoms: C_7  and  N_8
REMARK    3  A    between atoms: C_9  and  O_11
REMARK    4  A    between atoms: O_11  and  C_12
REMARK    5  A    between atoms: C_16  and  N_20
REMARK    6  A    between atoms: N_20  and  S_21
REMARK    7  A    between atoms: S_21  and  C_24
REMARK                            x       y       z     vdW  Elec       q    Type
REMARK                         _______ _______ _______ _____ _____    ______ ____
ROOT
ATOM     12  C   UNL     1       0.090   0.573  24.592  0.00  0.00    +0.229 C 
ATOM     13  C   UNL     1       0.180   0.309  23.816  0.00  0.00    +0.188 C 
ATOM     14  O   UNL     1      -0.176  -0.433  23.757  0.00  0.00    -0.348 OA
ATOM     15  C   UNL     1      -0.486  -0.626  24.496  0.00  0.00    +0.166 C 
ATOM     16  C   UNL     1      -0.898  -1.204  24.917  0.00  0.00    +0.157 C 
ATOM     17  C   UNL     1      -0.988  -0.939  25.693  0.00  0.00    +0.164 C 
ATOM     18  O   UNL     1      -0.632  -0.197  25.752  0.00  0.00    -0.348 OA
ATOM     19  C   UNL     1      -0.321  -0.004  25.012  0.00  0.00    +0.186 C 
ENDROOT
BRANCH  12  11
ATOM     11  O   UNL     1       0.364   1.291  24.894  0.00  0.00    -0.432 OA
BRANCH  11   9
ATOM      8  N   UNL     1      -0.174   2.479  25.478  0.00  0.00    -0.142 NA
ATOM      9  C   UNL     1      -0.101   1.969  24.834  0.00  0.00    +0.425 C 
ATOM     10  O   UNL     1      -0.495   2.137  24.128  0.00  0.00    -0.224 OA
BRANCH   8   7
ATOM      4  C   UNL     1      -1.572   4.513  25.298  0.00  0.00    -0.022 A 
ATOM      5  C   UNL     1      -1.862   3.846  25.687  0.00  0.00    -0.003 A 
ATOM      6  C   UNL     1      -1.396   3.168  25.747  0.00  0.00    +0.016 A 
ATOM      7  C   UNL     1      -0.639   3.157  25.418  0.00  0.00    +0.077 A 
ATOM     31  C   UNL     1      -0.350   3.824  25.029  0.00  0.00    +0.016 A 
ATOM     32  C   UNL     1      -0.815   4.502  24.969  0.00  0.00    -0.003 A 
BRANCH   4   2
ATOM      1  C   UNL     1      -2.830   5.168  25.470  0.00  0.00    +0.005 C 
ATOM      2  C   UNL     1      -2.038   5.191  25.238  0.00  0.00    +0.022 C 
ATOM      3  C   UNL     1      -1.713   5.892  24.947  0.00  0.00    +0.005 C 
ENDBRANCH   4   2
ENDBRANCH   8   7
ENDBRANCH  11   9
ENDBRANCH  12  11
BRANCH  16  20
ATOM     20  N   UNL     1      -1.172  -1.921  24.615  0.00  0.00    -0.074 NA
BRANCH  20  21
ATOM     21  S   UNL     1      -1.976  -2.022  24.456  0.00  0.00    +0.077 S 
ATOM     22  O   UNL     1      -1.803  -2.123  23.655  0.00  0.00    -0.152 OA
ATOM     23  O   UNL     1      -2.147  -1.922  25.257  0.00  0.00    -0.152 OA
BRANCH  21  24
ATOM     24  C   UNL     1      -2.778  -2.123  24.296  0.00  0.00    +0.124 A 
ATOM     25  C   UNL     1      -3.233  -1.481  24.046  0.00  0.00    +0.021 A 
ATOM     26  C   UNL     1      -4.036  -1.583  23.886  0.00  0.00    +0.013 A 
ATOM     27  C   UNL     1      -4.385  -2.325  23.976  0.00  0.00    +0.058 A 
ATOM     28 CL   UNL     1      -5.188  -2.425  23.816  0.00  0.00    -0.082 Cl
ATOM     29  C   UNL     1      -3.930  -2.966  24.225  0.00  0.00    +0.013 A 
ATOM     30  C   UNL     1      -3.127  -2.866  24.386  0.00  0.00    +0.021 A 
ENDBRANCH  21  24
ENDBRANCH  20  21
ENDBRANCH  16  20
TORSDOF 7
ENDMDL
MODEL 7
REMARK VINA RESULT:      -6.6     16.963     17.649
REMARK  Name = 
REMARK  7 active torsions:
REMARK  status: ('A' for Active; 'I' for Inactive)
REMARK    1  A    between atoms: C_2  and  C_4
REMARK    2  A    between atoms: C_7  and  N_8
REMARK    3  A    between atoms: C_9  and  O_11
REMARK    4  A    between atoms: O_11  and  C_12
REMARK    5  A    between atoms: C_16  and  N_20
REMARK    6  A    between atoms: N_20  and  S_21
REMARK    7  A    between atoms: S_21  and  C_24
REMARK                            x       y       z     vdW  Elec       q    Type
REMARK                         _______ _______ _______ _____ _____    ______ ____
ROOT
ATOM     12  C   UNL     1      16.835  -5.715  26.495  0.00  0.00    +0.229 C 
ATOM     13  C   UNL     1      17.373  -5.365  27.013  0.00  0.00    +0.188 C 
ATOM     14  O   UNL     1      17.158  -5.573  27.781  0.00  0.00    -0.348 OA
ATOM     15  C   UNL     1      16.488  -6.051  27.739  0.00  0.00    +0.166 C 
ATOM     16  C   UNL     1      15.941  -6.476  28.187  0.00  0.00    +0.157 C 
ATOM     17  C   UNL     1      15.403  -6.827  27.669  0.00  0.00    +0.164 C 
ATOM     18  O   UNL     1      15.618  -6.619  26.900  0.00  0.00    -0.348 OA
ATOM     19  C   UNL     1      16.289  -6.140  26.943  0.00  0.00    +0.186 C 
ENDROOT
BRANCH  12  11
ATOM     11  O   UNL     1      16.843  -5.653  25.672  0.00  0.00    -0.432 OA
BRANCH  11   9
ATOM      8  N   UNL     1      16.628  -4.771  24.568  0.00  0.00    -0.142 NA
ATOM      9  C   UNL     1      16.946  -4.916  25.315  0.00  0.00    +0.425 C 
ATOM     10  O   UNL     1      17.368  -4.324  25.706  0.00  0.00    -0.224 OA
BRANCH   8   7
ATOM      4  C   UNL     1      16.937  -2.560  23.498  0.00  0.00    -0.022 A 
ATOM      5  C   UNL     1      16.413  -2.643  24.130  0.00  0.00    -0.003 A 
ATOM      6  C   UNL     1      16.311  -3.380  24.486  0.00  0.00    +0.016 A 
ATOM      7  C   UNL     1      16.732  -4.034  24.211  0.00  0.00    +0.077 A 
ATOM     31  C   UNL     1      17.255  -3.951  23.580  0.00  0.00    +0.016 A 
ATOM     32  C   UNL     1      17.358  -3.214  23.223  0.00  0.00    -0.003 A 
BRANCH   4   2
ATOM      1  C   UNL     1      16.806  -1.138  23.538  0.00  0.00    +0.005 C 
ATOM      2  C   UNL     1      17.040  -1.823  23.142  0.00  0.00    +0.022 C 
ATOM      3  C   UNL     1      17.375  -1.771  22.390  0.00  0.00    +0.005 C 
ENDBRANCH   4   2
ENDBRANCH   8   7
ENDBRANCH  11   9
ENDBRANCH  12  11
BRANCH  16  20
ATOM     20  N   UNL     1      15.933  -6.539  29.010  0.00  0.00    -0.074 NA
BRANCH  20  21
ATOM     21  S   UNL     1      15.215  -6.560  29.415  0.00  0.00    +0.077 S 
ATOM     22  O   UNL     1      15.188  -7.380  29.322  0.00  0.00    -0.152 OA
ATOM     23  O   UNL     1      15.243  -5.741  29.509  0.00  0.00    -0.152 OA
BRANCH  21  24
ATOM     24  C   UNL     1      14.497  -6.583  29.821  0.00  0.00    +0.124 A 
ATOM     25  C   UNL     1      14.014  -7.250  29.768  0.00  0.00    +0.021 A 
ATOM     26  C   UNL     1      13.296  -7.273  30.173  0.00  0.00    +0.013 A 
ATOM     27  C   UNL     1      13.061  -6.629  30.632  0.00  0.00    +0.058 A 
ATOM     28 CL   UNL     1      12.342  -6.652  31.037  0.00  0.00    -0.082 Cl
ATOM     29  C   UNL     1      13.543  -5.962  30.684  0.00  0.00    +0.013 A 
ATOM     30  C   UNL     1      14.261  -5.939  30.279  0.00  0.00    +0.021 A 
ENDBRANCH  21  24
ENDBRANCH  20  21
ENDBRANCH  16  20
TORSDOF 7
ENDMDL
MODEL 8
REMARK VINA RESULT:      -5.6     14.728     16.185
REMARK  Name = 
REMARK  7 active torsions:
REMARK  status: ('A' for Active; 'I' for Inactive)
REMARK    1  A    between atoms: C_2  and  C_4
REMARK    2  A    between atoms: C_7  and  N_8
REMARK    3  A    between atoms: C_9  and  O_11
REMARK    4  A    between atoms: O_11  and  C_12
REMARK    5  A    between atoms: C_16  and  N_20
REMARK    6  A    between atoms: N_20  and  S_21
REMARK    7  A    between atoms: S_21  and  C_24
REMARK                            x       y       z     vdW  Elec       q    Type
REMARK                         _______ _______ _______ _____ _____    ______ ____
ROOT
ATOM     12  C   UNL     1      11.942  -7.165  32.103  0.00  0.00    +0.229 C 
ATOM     13  C   UNL     1      11.563  -6.562  32.518  0.00  0.00    +0.188 C 
ATOM     14  O   UNL     1      10.798  -6.815  32.693  0.00  0.00    -0.348 OA
ATOM     15  C   UNL     1      10.703  -7.574  32.386  0.00  0.00    +0.166 C 
ATOM     16  C   UNL     1      10.173  -8.200  32.303  0.00  0.00    +0.157 C 
ATOM     17  C   UNL     1      10.552  -8.804  31.888  0.00  0.00    +0.164 C 
ATOM     18  O   UNL     1      11.317  -8.550  31.713  0.00  0.00    -0.348 OA
ATOM     19  C   UNL     1      11.411  -7.790  32.021  0.00  0.00    +0.186 C 
ENDROOT
BRANCH  12  11
ATOM     11  O   UNL     1      12.717  -7.146  31.819  0.00  0.00    -0.432 OA
BRANCH  11   9
ATOM      8  N   UNL     1      13.898  -6.348  31.909  0.00  0.00    -0.142 NA
ATOM      9  C   UNL     1      13.101  -6.423  31.716  0.00  0.00    +0.425 C 
ATOM     10  O   UNL     1      12.685  -5.775  31.418  0.00  0.00    -0.224 OA
BRANCH   8   7
ATOM      4  C   UNL     1      15.051  -4.180  31.598  0.00  0.00    -0.022 A 
ATOM      5  C   UNL     1      14.994  -4.711  30.969  0.00  0.00    -0.003 A 
ATOM      6  C   UNL     1      14.609  -5.433  31.073  0.00  0.00    +0.016 A 
ATOM      7  C   UNL     1      14.283  -5.625  31.806  0.00  0.00    +0.077 A 
ATOM     31  C   UNL     1      14.340  -5.094  32.434  0.00  0.00    +0.016 A 
ATOM     32  C   UNL     1      14.724  -4.371  32.331  0.00  0.00    -0.003 A 
BRANCH   4   2
ATOM      1  C   UNL     1      15.788  -3.279  30.769  0.00  0.00    +0.005 C 
ATOM      2  C   UNL     1      15.435  -3.457  31.494  0.00  0.00    +0.022 C 
ATOM      3  C   UNL     1      15.466  -2.913  32.113  0.00  0.00    +0.005 C 
ENDBRANCH   4   2
ENDBRANCH   8   7
ENDBRANCH  11   9
ENDBRANCH  12  11
BRANCH  16  20
ATOM     20  N   UNL     1       9.398  -8.219  32.587  0.00  0.00    -0.074 NA
BRANCH  20  21
ATOM     21  S   UNL     1       8.820  -8.648  32.182  0.00  0.00    +0.077 S 
ATOM     22  O   UNL     1       8.997  -9.313  32.637  0.00  0.00    -0.152 OA
ATOM     23  O   UNL     1       8.645  -7.982  31.727  0.00  0.00    -0.152 OA
BRANCH  21  24
ATOM     24  C   UNL     1       8.243  -9.077  31.778  0.00  0.00    +0.124 A 
ATOM     25  C   UNL     1       7.712  -8.688  31.281  0.00  0.00    +0.021 A 
ATOM     26  C   UNL     1       7.135  -9.117  30.878  0.00  0.00    +0.013 A 
ATOM     27  C   UNL     1       7.089  -9.936  30.970  0.00  0.00    +0.058 A 
ATOM     28 CL   UNL     1       6.511 -10.364  30.565  0.00  0.00    -0.082 Cl
ATOM     29  C   UNL     1       7.620 -10.325  31.466  0.00  0.00    +0.013 A 
ATOM     30  C   UNL     1       8.198  -9.896  31.870  0.00  0.00    +0.021 A 
ENDBRANCH  21  24
ENDBRANCH  20  21
ENDBRANCH  16  20
TORSDOF 7
ENDMDL
MODEL 9
REMARK VINA RESULT:      -5.4     17.726     18.601
REMARK  Name = 
REMARK  7 active torsions:
REMARK  status: ('A' for Active; 'I' for Inactive)
REMARK    1  A    between atoms: C_2  and  C_4
REMARK    2  A    between atoms: C_7  and  N_8
REMARK    3  A    between atoms: C_9  and  O_11
REMARK    4  A    between atoms: O_11  and  C_12
REMARK    5  A    between atoms: C_16  and  N_20
REMARK    6  A    between atoms: N_20  and  S_21
REMARK    7  A    between atoms: S_21  and  C_24
REMARK                            x       y       z     vdW  Elec       q    Type
REMARK                         _______ _______ _______ _____ _____    ______ ____
ROOT
ATOM     12  C   UNL     1      15.393  -6.378  30.121  0.00  0.00    +0.229 C 
ATOM     13  C   UNL     1      14.602  -6.187  29.987  0.00  0.00    +0.188 C 
ATOM     14  O   UNL     1      14.468  -5.433  30.293  0.00  0.00    -0.348 OA
ATOM     15  C   UNL     1      15.174  -5.158  30.616  0.00  0.00    +0.166 C 
ATOM     16  C   UNL     1      15.530  -4.523  31.005  0.00  0.00    +0.157 C 
ATOM     17  C   UNL     1      16.320  -4.715  31.139  0.00  0.00    +0.164 C 
ATOM     18  O   UNL     1      16.455  -5.469  30.833  0.00  0.00    -0.348 OA
ATOM     19  C   UNL     1      15.746  -5.743  30.510  0.00  0.00    +0.186 C 
ENDROOT
BRANCH  12  11
ATOM     11  O   UNL     1      15.764  -7.083  29.905  0.00  0.00    -0.432 OA
BRANCH  11   9
ATOM      8  N   UNL     1      16.272  -7.626  28.684  0.00  0.00    -0.142 NA
ATOM      9  C   UNL     1      15.633  -7.406  29.157  0.00  0.00    +0.425 C 
ATOM     10  O   UNL     1      14.861  -7.509  28.883  0.00  0.00    -0.224 OA
BRANCH   8   7
ATOM      4  C   UNL     1      15.878  -8.594  26.441  0.00  0.00    -0.022 A 
ATOM      5  C   UNL     1      15.979  -7.780  26.527  0.00  0.00    -0.003 A 
ATOM      6  C   UNL     1      16.111  -7.457  27.275  0.00  0.00    +0.016 A 
ATOM      7  C   UNL     1      16.141  -7.949  27.936  0.00  0.00    +0.077 A 
ATOM     31  C   UNL     1      16.039  -8.763  27.850  0.00  0.00    +0.016 A 
ATOM     32  C   UNL     1      15.908  -9.086  27.103  0.00  0.00    -0.003 A 
BRANCH   4   2
ATOM      1  C   UNL     1      14.986  -9.145  25.470  0.00  0.00    +0.005 C 
ATOM      2  C   UNL     1      15.747  -8.916  25.693  0.00  0.00    +0.022 C 
ATOM      3  C   UNL     1      16.376  -9.011  25.168  0.00  0.00    +0.005 C 
ENDBRANCH   4   2
ENDBRANCH   8   7
ENDBRANCH  11   9
ENDBRANCH  12  11
BRANCH  16  20
ATOM     20  N   UNL     1      15.158  -3.819  31.221  0.00  0.00    -0.074 NA
BRANCH  20  21
ATOM     21  S   UNL     1      15.607  -3.141  31.362  0.00  0.00    +0.077 S 
ATOM     22  O   UNL     1      15.632  -2.991  30.551  0.00  0.00    -0.152 OA
ATOM     23  O   UNL     1      15.581  -3.292  32.173  0.00  0.00    -0.152 OA
BRANCH  21  24
ATOM     24  C   UNL     1      16.056  -2.463  31.502  0.00  0.00    +0.124 A 
ATOM     25  C   UNL     1      16.333  -2.014  30.867  0.00  0.00    +0.021 A 
ATOM     26  C   UNL     1      16.782  -1.337  31.007  0.00  0.00    +0.013 A 
ATOM     27  C   UNL     1      16.955  -1.108  31.781  0.00  0.00    +0.058 A 
ATOM     28 CL   UNL     1      17.404  -0.430  31.920  0.00  0.00    -0.082 Cl
ATOM     29  C   UNL     1      16.678  -1.557  32.414  0.00  0.00    +0.013 A 
ATOM     30  C   UNL     1      16.229  -2.235  32.275  0.00  0.00    +0.021 A 
ENDBRANCH  21  24
ENDBRANCH  20  21
ENDBRANCH  16  20
TORSDOF 7
ENDMDL
MODEL 10
REMARK VINA RESULT:      -5.3     14.762     17.317
REMARK  Name = 
REMARK  7 active torsions:
REMARK  status: ('A' for Active; 'I' for Inactive)
REMARK    1  A    between atoms: C_2  and  C_4
REMARK    2  A    between atoms: C_7  and  N_8
REMARK    3  A    between atoms: C_9  and  O_11
REMARK    4  A    between atoms: O_11  and  C_12
REMARK    5  A    between atoms: C_16  and  N_20
REMARK    6  A    between atoms: N_20  and  S_21
REMARK    7  A    between atoms: S_21  and  C_24
REMARK                            x       y       z     vdW  Elec       q    Type
REMARK                         _______ _______ _______ _____ _____    ______ ____
ROOT
ATOM     12  C   UNL     1      11.362  -7.297  32.567  0.00  0.00    +0.229 C 
ATOM     13  C   UNL     1      11.216  -6.490  32.648  0.00  0.00    +0.188 C 
ATOM     14  O   UNL     1      11.853  -6.082  32.321  0.00  0.00    -0.348 OA
ATOM     15  C   UNL     1      12.393  -6.636  32.038  0.00  0.00    +0.166 C 
ATOM     16  C   UNL     1      13.121  -6.727  31.660  0.00  0.00    +0.157 C 
ATOM     17  C   UNL     1      13.268  -7.535  31.579  0.00  0.00    +0.164 C 
ATOM     18  O   UNL     1      12.630  -7.943  31.906  0.00  0.00    -0.348 OA
ATOM     19  C   UNL     1      12.090  -7.388  32.190  0.00  0.00    +0.186 C 
ENDROOT
BRANCH  12  11
ATOM     11  O   UNL     1      10.867  -7.908  32.819  0.00  0.00    -0.432 OA
BRANCH  11   9
ATOM      8  N   UNL     1       9.655  -8.533  32.393  0.00  0.00    -0.142 NA
ATOM      9  C   UNL     1      10.056  -7.869  32.673  0.00  0.00    +0.425 C 
ATOM     10  O   UNL     1       9.647  -7.165  32.807  0.00  0.00    -0.224 OA
BRANCH   8   7
ATOM      4  C   UNL     1       7.222  -8.416  31.954  0.00  0.00    -0.022 A 
ATOM      5  C   UNL     1       7.505  -8.369  32.728  0.00  0.00    -0.003 A 
ATOM      6  C   UNL     1       8.316  -8.408  32.873  0.00  0.00    +0.016 A 
ATOM      7  C   UNL     1       8.844  -8.494  32.246  0.00  0.00    +0.077 A 
ATOM     31  C   UNL     1       8.562  -8.541  31.473  0.00  0.00    +0.016 A 
ATOM     32  C   UNL     1       7.751  -8.503  31.326  0.00  0.00    -0.003 A 
BRANCH   4   2
ATOM      1  C   UNL     1       5.894  -8.156  32.412  0.00  0.00    +0.005 C 
ATOM      2  C   UNL     1       6.411  -8.378  31.808  0.00  0.00    +0.022 C 
ATOM      3  C   UNL     1       6.117  -8.560  31.059  0.00  0.00    +0.005 C 
ENDBRANCH   4   2
ENDBRANCH   8   7
ENDBRANCH  11   9
ENDBRANCH  12  11
BRANCH  16  20
ATOM     20  N   UNL     1      13.616  -6.117  31.408  0.00  0.00    -0.074 NA
BRANCH  20  21
ATOM     21  S   UNL     1      14.109  -6.228  30.756  0.00  0.00    +0.077 S 
ATOM     22  O   UNL     1      14.687  -6.549  31.249  0.00  0.00    -0.152 OA
ATOM     23  O   UNL     1      13.530  -5.906  30.264  0.00  0.00    -0.152 OA
BRANCH  21  24
ATOM     24  C   UNL     1      14.603  -6.339  30.104  0.00  0.00    +0.124 A 
ATOM     25  C   UNL     1      15.402  -6.141  30.154  0.00  0.00    +0.021 A 
ATOM     26  C   UNL     1      15.896  -6.252  29.503  0.00  0.00    +0.013 A 
ATOM     27  C   UNL     1      15.591  -6.561  28.801  0.00  0.00    +0.058 A 
ATOM     28 CL   UNL     1      16.085  -6.672  28.150  0.00  0.00    -0.082 Cl
ATOM     29  C   UNL     1      14.792  -6.758  28.752  0.00  0.00    +0.013 A 
ATOM     30  C   UNL     1      14.297  -6.648  29.403  0.00  0.00    +0.021 A 
ENDBRANCH  21  24
ENDBRANCH  20  21
ENDBRANCH  16  20
TORSDOF 7
ENDMDL
