MODEL 1
REMARK VINA RESULT:      -9.9      0.000      0.000
REMARK  Name = 
REMARK  7 active torsions:
REMARK  status: ('A' for Active; 'I' for Inactive)
REMARK    1  A    between atoms: C_2  and  C_4
REMARK    2  A    between atoms: C_6  and  C_7
REMARK    3  A    between atoms: C_7  and  C_8
REMARK    4  A    between atoms: C_11  and  C_13
REMARK    5  A    between atoms: C_16  and  N_19
REMARK    6  A    between atoms: C_25  and  C_26
REMARK    7  A    between atoms: C_26  and  N_27
REMARK                            x       y       z     vdW  Elec       q    Type
REMARK                         _______ _______ _______ _____ _____    ______ ____
ROOT
ATOM      4  C   UNL     1      -3.112   3.000  23.875  0.00  0.00    +0.006 C 
ATOM      5  C   UNL     1      -2.300   2.984  24.018  0.00  0.00    +0.005 C 
ATOM      6  C   UNL     1      -2.009   3.174  24.768  0.00  0.00    +0.027 C 
ATOM     22  C   UNL     1      -2.532   3.378  25.373  0.00  0.00    -0.048 C 
ATOM     23  C   UNL     1      -2.242   3.566  26.121  0.00  0.00    +0.026 C 
ATOM     24  C   UNL     1      -3.344   3.392  25.229  0.00  0.00    -0.034 C 
ATOM     25  C   UNL     1      -3.634   3.204  24.480  0.00  0.00    +0.037 C 
ENDROOT
BRANCH   4   2
ATOM      1  C   UNL     1      -3.381   2.028  22.862  0.00  0.00    +0.000 C 
ATOM      2  C   UNL     1      -3.401   2.810  23.126  0.00  0.00    +0.000 C 
ATOM      3  C   UNL     1      -3.710   3.401  22.642  0.00  0.00    +0.000 C 
ENDBRANCH   4   2
BRANCH   6   7
ATOM      7  C   UNL     1      -1.197   3.158  24.911  0.00  0.00    +0.091 C 
BRANCH   7   8
ATOM      8  C   UNL     1      -0.777   2.454  24.828  0.00  0.00    +0.227 A 
ATOM      9  N   UNL     1       0.010   2.385  24.589  0.00  0.00    -0.111 NA
ATOM     10  N   UNL     1       0.205   1.583  24.583  0.00  0.00    -0.107 NA
ATOM     11  C   UNL     1      -0.462   1.157  24.817  0.00  0.00    +0.250 A 
ATOM     12  O   UNL     1      -1.068   1.696  24.969  0.00  0.00    -0.420 OA
BRANCH  11  13
ATOM     13  C   UNL     1      -0.513   0.337  24.888  0.00  0.00    +0.055 A 
ATOM     14  C   UNL     1      -0.838   0.001  25.569  0.00  0.00    +0.006 A 
ATOM     15  C   UNL     1      -0.890  -0.819  25.641  0.00  0.00    +0.024 A 
ATOM     16  C   UNL     1      -0.617  -1.304  25.031  0.00  0.00    +0.143 A 
ATOM     17  C   UNL     1      -0.292  -0.969  24.350  0.00  0.00    +0.024 A 
ATOM     18  C   UNL     1      -0.241  -0.148  24.280  0.00  0.00    +0.006 A 
BRANCH  16  19
ATOM     19  N   UNL     1      -0.669  -2.124  25.102  0.00  0.00    +0.058 N 
ATOM     20  O   UNL     1      -0.057  -2.547  25.459  0.00  0.00    -0.126 OA
ATOM     21  O   UNL     1      -1.332  -2.522  24.817  0.00  0.00    -0.126 OA
ENDBRANCH  16  19
ENDBRANCH  11  13
ENDBRANCH   7   8
ENDBRANCH   6   7
BRANCH  25  26
ATOM     26  C   UNL     1      -4.446   3.219  24.337  0.00  0.00    +0.076 C 
BRANCH  26  27
ATOM     27  N   UNL     1      -4.970   2.914  24.898  0.00  0.00    -0.270 NA
ATOM     28  C   UNL     1      -5.347   3.421  25.428  0.00  0.00    +0.090 C 
ATOM     29  C   UNL     1      -5.870   3.116  25.988  0.00  0.00    +0.090 C 
ATOM     30  N   UNL     1      -6.017   2.304  26.018  0.00  0.00    -0.269 NA
ATOM     31  C   UNL     1      -6.540   2.000  26.577  0.00  0.00    +0.090 C 
ATOM     32  C   UNL     1      -5.640   1.798  25.487  0.00  0.00    +0.090 C 
ATOM     33  C   UNL     1      -5.116   2.103  24.927  0.00  0.00    +0.090 C 
ENDBRANCH  26  27
ENDBRANCH  25  26
TORSDOF 7
ENDMDL
MODEL 2
REMARK VINA RESULT:      -9.8      2.018      3.978
REMARK  Name = 
REMARK  7 active torsions:
REMARK  status: ('A' for Active; 'I' for Inactive)
REMARK    1  A    between atoms: C_2  and  C_4
REMARK    2  A    between atoms: C_6  and  C_7
REMARK    3  A    between atoms: C_7  and  C_8
REMARK    4  A    between atoms: C_11  and  C_13
REMARK    5  A    between atoms: C_16  and  N_19
REMARK    6  A    between atoms: C_25  and  C_26
REMARK    7  A    between atoms: C_26  and  N_27
REMARK                            x       y       z     vdW  Elec       q    Type
REMARK                         _______ _______ _______ _____ _____    ______ ____
ROOT
ATOM      4  C   UNL     1      -3.601   3.679  25.750  0.00  0.00    +0.006 C 
ATOM      5  C   UNL     1      -4.192   3.185  25.457  0.00  0.00    +0.005 C 
ATOM      6  C   UNL     1      -4.200   2.980  24.657  0.00  0.00    +0.027 C 
ATOM     22  C   UNL     1      -3.616   3.269  24.151  0.00  0.00    -0.048 C 
ATOM     23  C   UNL     1      -3.624   3.065  23.353  0.00  0.00    +0.026 C 
ATOM     24  C   UNL     1      -3.025   3.764  24.446  0.00  0.00    -0.034 C 
ATOM     25  C   UNL     1      -3.017   3.969  25.244  0.00  0.00    +0.037 C 
ENDROOT
BRANCH   4   2
ATOM      1  C   UNL     1      -4.014   4.546  26.808  0.00  0.00    +0.000 C 
ATOM      2  C   UNL     1      -3.594   3.884  26.549  0.00  0.00    +0.000 C 
ATOM      3  C   UNL     1      -3.169   3.428  27.088  0.00  0.00    +0.000 C 
ENDBRANCH   4   2
BRANCH   6   7
ATOM      7  C   UNL     1      -4.791   2.485  24.364  0.00  0.00    +0.091 C 
BRANCH   7   8
ATOM      8  C   UNL     1      -4.848   1.707  24.631  0.00  0.00    +0.227 A 
ATOM      9  N   UNL     1      -5.441   1.404  25.119  0.00  0.00    -0.111 NA
ATOM     10  N   UNL     1      -5.282   0.605  25.247  0.00  0.00    -0.107 NA
ATOM     11  C   UNL     1      -4.591   0.414  24.838  0.00  0.00    +0.250 A 
ATOM     12  O   UNL     1      -4.324   1.095  24.457  0.00  0.00    -0.420 OA
BRANCH  11  13
ATOM     13  C   UNL     1      -4.232  -0.328  24.813  0.00  0.00    +0.055 A 
ATOM     14  C   UNL     1      -3.787  -0.593  25.456  0.00  0.00    +0.006 A 
ATOM     15  C   UNL     1      -3.427  -1.334  25.432  0.00  0.00    +0.024 A 
ATOM     16  C   UNL     1      -3.511  -1.812  24.764  0.00  0.00    +0.143 A 
ATOM     17  C   UNL     1      -3.955  -1.548  24.121  0.00  0.00    +0.024 A 
ATOM     18  C   UNL     1      -4.316  -0.805  24.146  0.00  0.00    +0.006 A 
BRANCH  16  19
ATOM     19  N   UNL     1      -3.151  -2.554  24.740  0.00  0.00    +0.058 N 
ATOM     20  O   UNL     1      -2.335  -2.613  24.641  0.00  0.00    -0.126 OA
ATOM     21  O   UNL     1      -3.608  -3.237  24.815  0.00  0.00    -0.126 OA
ENDBRANCH  16  19
ENDBRANCH  11  13
ENDBRANCH   7   8
ENDBRANCH   6   7
BRANCH  25  26
ATOM     26  C   UNL     1      -2.426   4.464  25.537  0.00  0.00    +0.076 C 
BRANCH  26  27
ATOM     27  N   UNL     1      -1.705   4.527  25.139  0.00  0.00    -0.270 NA
ATOM     28  C   UNL     1      -1.506   5.232  24.759  0.00  0.00    +0.090 C 
ATOM     29  C   UNL     1      -0.786   5.295  24.360  0.00  0.00    +0.090 C 
ATOM     30  N   UNL     1      -0.266   4.654  24.342  0.00  0.00    -0.269 NA
ATOM     31  C   UNL     1       0.453   4.718  23.945  0.00  0.00    +0.090 C 
ATOM     32  C   UNL     1      -0.467   3.951  24.723  0.00  0.00    +0.090 C 
ATOM     33  C   UNL     1      -1.187   3.887  25.121  0.00  0.00    +0.090 C 
ENDBRANCH  26  27
ENDBRANCH  25  26
TORSDOF 7
ENDMDL
MODEL 3
REMARK VINA RESULT:      -9.8      1.496      2.437
REMARK  Name = 
REMARK  7 active torsions:
REMARK  status: ('A' for Active; 'I' for Inactive)
REMARK    1  A    between atoms: C_2  and  C_4
REMARK    2  A    between atoms: C_6  and  C_7
REMARK    3  A    between atoms: C_7  and  C_8
REMARK    4  A    between atoms: C_11  and  C_13
REMARK    5  A    between atoms: C_16  and  N_19
REMARK    6  A    between atoms: C_25  and  C_26
REMARK    7  A    between atoms: C_26  and  N_27
REMARK                            x       y       z     vdW  Elec       q    Type
REMARK                         _______ _______ _______ _____ _____    ______ ____
ROOT
ATOM      4  C   UNL     1      -1.426   3.073  24.859  0.00  0.00    +0.006 C 
ATOM      5  C   UNL     1      -1.040   2.456  24.470  0.00  0.00    +0.005 C 
ATOM      6  C   UNL     1      -1.406   2.076  23.835  0.00  0.00    +0.027 C 
ATOM     22  C   UNL     1      -2.158   2.312  23.590  0.00  0.00    -0.048 C 
ATOM     23  C   UNL     1      -2.523   1.932  22.956  0.00  0.00    +0.026 C 
ATOM     24  C   UNL     1      -2.543   2.930  23.980  0.00  0.00    -0.034 C 
ATOM     25  C   UNL     1      -2.177   3.310  24.613  0.00  0.00    +0.037 C 
ENDROOT
BRANCH   4   2
ATOM      1  C   UNL     1      -0.751   4.212  25.395  0.00  0.00    +0.000 C 
ATOM      2  C   UNL     1      -1.060   3.453  25.493  0.00  0.00    +0.000 C 
ATOM      3  C   UNL     1      -1.003   3.075  26.223  0.00  0.00    +0.000 C 
ENDBRANCH   4   2
BRANCH   6   7
ATOM      7  C   UNL     1      -1.020   1.459  23.447  0.00  0.00    +0.091 C 
BRANCH   7   8
ATOM      8  C   UNL     1      -1.008   0.705  23.780  0.00  0.00    +0.227 A 
ATOM      9  N   UNL     1      -0.338   0.307  24.052  0.00  0.00    -0.111 NA
ATOM     10  N   UNL     1      -0.578  -0.428  24.341  0.00  0.00    -0.107 NA
ATOM     11  C   UNL     1      -1.396  -0.484  24.247  0.00  0.00    +0.250 A 
ATOM     12  O   UNL     1      -1.661   0.217  23.901  0.00  0.00    -0.420 OA
BRANCH  11  13
ATOM     13  C   UNL     1      -1.866  -1.126  24.462  0.00  0.00    +0.055 A 
ATOM     14  C   UNL     1      -2.559  -1.005  24.895  0.00  0.00    +0.006 A 
ATOM     15  C   UNL     1      -3.030  -1.646  25.110  0.00  0.00    +0.024 A 
ATOM     16  C   UNL     1      -2.808  -2.411  24.893  0.00  0.00    +0.143 A 
ATOM     17  C   UNL     1      -2.116  -2.534  24.461  0.00  0.00    +0.024 A 
ATOM     18  C   UNL     1      -1.645  -1.890  24.245  0.00  0.00    +0.006 A 
BRANCH  16  19
ATOM     19  N   UNL     1      -3.279  -3.054  25.108  0.00  0.00    +0.058 N 
ATOM     20  O   UNL     1      -3.319  -3.290  25.897  0.00  0.00    -0.126 OA
ATOM     21  O   UNL     1      -3.710  -3.460  24.534  0.00  0.00    -0.126 OA
ENDBRANCH  16  19
ENDBRANCH  11  13
ENDBRANCH   7   8
ENDBRANCH   6   7
BRANCH  25  26
ATOM     26  C   UNL     1      -2.562   3.926  25.002  0.00  0.00    +0.076 C 
BRANCH  26  27
ATOM     27  N   UNL     1      -3.377   3.888  25.131  0.00  0.00    -0.270 NA
ATOM     28  C   UNL     1      -3.896   4.243  24.596  0.00  0.00    +0.090 C 
ATOM     29  C   UNL     1      -4.710   4.205  24.724  0.00  0.00    +0.090 C 
ATOM     30  N   UNL     1      -5.006   3.812  25.388  0.00  0.00    -0.269 NA
ATOM     31  C   UNL     1      -5.819   3.774  25.516  0.00  0.00    +0.090 C 
ATOM     32  C   UNL     1      -4.486   3.458  25.921  0.00  0.00    +0.090 C 
ATOM     33  C   UNL     1      -3.672   3.496  25.793  0.00  0.00    +0.090 C 
ENDBRANCH  26  27
ENDBRANCH  25  26
TORSDOF 7
ENDMDL
MODEL 4
REMARK VINA RESULT:      -9.7      2.051      2.751
REMARK  Name = 
REMARK  7 active torsions:
REMARK  status: ('A' for Active; 'I' for Inactive)
REMARK    1  A    between atoms: C_2  and  C_4
REMARK    2  A    between atoms: C_6  and  C_7
REMARK    3  A    between atoms: C_7  and  C_8
REMARK    4  A    between atoms: C_11  and  C_13
REMARK    5  A    between atoms: C_16  and  N_19
REMARK    6  A    between atoms: C_25  and  C_26
REMARK    7  A    between atoms: C_26  and  N_27
REMARK                            x       y       z     vdW  Elec       q    Type
REMARK                         _______ _______ _______ _____ _____    ______ ____
ROOT
ATOM      4  C   UNL     1      -3.139   1.491  23.856  0.00  0.00    +0.006 C 
ATOM      5  C   UNL     1      -2.624   0.847  23.872  0.00  0.00    +0.005 C 
ATOM      6  C   UNL     1      -2.816   0.177  24.315  0.00  0.00    +0.027 C 
ATOM     22  C   UNL     1      -3.522   0.153  24.741  0.00  0.00    -0.048 C 
ATOM     23  C   UNL     1      -3.714  -0.516  25.183  0.00  0.00    +0.026 C 
ATOM     24  C   UNL     1      -4.036   0.798  24.724  0.00  0.00    -0.034 C 
ATOM     25  C   UNL     1      -3.845   1.467  24.282  0.00  0.00    +0.037 C 
ENDROOT
BRANCH   4   2
ATOM      1  C   UNL     1      -3.175   2.210  22.622  0.00  0.00    +0.000 C 
ATOM      2  C   UNL     1      -2.947   2.160  23.414  0.00  0.00    +0.000 C 
ATOM      3  C   UNL     1      -2.527   2.778  23.761  0.00  0.00    +0.000 C 
ENDBRANCH   4   2
BRANCH   6   7
ATOM      7  C   UNL     1      -2.302  -0.467  24.331  0.00  0.00    +0.091 C 
BRANCH   7   8
ATOM      8  C   UNL     1      -1.490  -0.345  24.400  0.00  0.00    +0.227 A 
ATOM      9  N   UNL     1      -1.063  -0.307  25.106  0.00  0.00    -0.111 NA
ATOM     10  N   UNL     1      -0.270  -0.178  24.918  0.00  0.00    -0.107 NA
ATOM     11  C   UNL     1      -0.206  -0.137  24.097  0.00  0.00    +0.250 A 
ATOM     12  O   UNL     1      -0.960  -0.240  23.777  0.00  0.00    -0.420 OA
BRANCH  11  13
ATOM     13  C   UNL     1       0.488  -0.014  23.670  0.00  0.00    +0.055 A 
ATOM     14  C   UNL     1       0.738  -0.573  23.117  0.00  0.00    +0.006 A 
ATOM     15  C   UNL     1       1.433  -0.452  22.689  0.00  0.00    +0.024 A 
ATOM     16  C   UNL     1       1.879   0.232  22.815  0.00  0.00    +0.143 A 
ATOM     17  C   UNL     1       1.630   0.792  23.367  0.00  0.00    +0.024 A 
ATOM     18  C   UNL     1       0.934   0.668  23.795  0.00  0.00    +0.006 A 
BRANCH  16  19
ATOM     19  N   UNL     1       2.574   0.354  22.387  0.00  0.00    +0.058 N 
ATOM     20  O   UNL     1       3.197   0.775  22.726  0.00  0.00    -0.126 OA
ATOM     21  O   UNL     1       2.645   0.056  21.622  0.00  0.00    -0.126 OA
ENDBRANCH  16  19
ENDBRANCH  11  13
ENDBRANCH   7   8
ENDBRANCH   6   7
BRANCH  25  26
ATOM     26  C   UNL     1      -4.359   2.111  24.266  0.00  0.00    +0.076 C 
BRANCH  26  27
ATOM     27  N   UNL     1      -4.945   2.186  24.842  0.00  0.00    -0.270 NA
ATOM     28  C   UNL     1      -5.678   1.821  24.735  0.00  0.00    +0.090 C 
ATOM     29  C   UNL     1      -6.264   1.896  25.310  0.00  0.00    +0.090 C 
ATOM     30  N   UNL     1      -6.118   2.336  25.993  0.00  0.00    -0.269 NA
ATOM     31  C   UNL     1      -6.703   2.411  26.568  0.00  0.00    +0.090 C 
ATOM     32  C   UNL     1      -5.386   2.701  26.100  0.00  0.00    +0.090 C 
ATOM     33  C   UNL     1      -4.799   2.626  25.524  0.00  0.00    +0.090 C 
ENDBRANCH  26  27
ENDBRANCH  25  26
TORSDOF 7
ENDMDL
MODEL 5
REMARK VINA RESULT:      -9.7      2.171      5.712
REMARK  Name = 
REMARK  7 active torsions:
REMARK  status: ('A' for Active; 'I' for Inactive)
REMARK    1  A    between atoms: C_2  and  C_4
REMARK    2  A    between atoms: C_6  and  C_7
REMARK    3  A    between atoms: C_7  and  C_8
REMARK    4  A    between atoms: C_11  and  C_13
REMARK    5  A    between atoms: C_16  and  N_19
REMARK    6  A    between atoms: C_25  and  C_26
REMARK    7  A    between atoms: C_26  and  N_27
REMARK                            x       y       z     vdW  Elec       q    Type
REMARK                         _______ _______ _______ _____ _____    ______ ____
ROOT
ATOM      4  C   UNL     1      -0.653   0.197  24.515  0.00  0.00    +0.006 C 
ATOM      5  C   UNL     1      -1.015   0.846  24.873  0.00  0.00    +0.005 C 
ATOM      6  C   UNL     1      -0.706   1.603  24.761  0.00  0.00    +0.027 C 
ATOM     22  C   UNL     1      -0.037   1.711  24.292  0.00  0.00    -0.048 C 
ATOM     23  C   UNL     1       0.271   2.467  24.180  0.00  0.00    +0.026 C 
ATOM     24  C   UNL     1       0.324   1.061  23.934  0.00  0.00    -0.034 C 
ATOM     25  C   UNL     1       0.016   0.304  24.046  0.00  0.00    +0.037 C 
ENDROOT
BRANCH   4   2
ATOM      1  C   UNL     1      -1.529  -0.855  24.105  0.00  0.00    +0.000 C 
ATOM      2  C   UNL     1      -0.962  -0.560  24.627  0.00  0.00    +0.000 C 
ATOM      3  C   UNL     1      -0.705  -1.021  25.260  0.00  0.00    +0.000 C 
ENDBRANCH   4   2
BRANCH   6   7
ATOM      7  C   UNL     1      -1.068   2.252  25.120  0.00  0.00    +0.091 C 
BRANCH   7   8
ATOM      8  C   UNL     1      -1.836   2.464  24.910  0.00  0.00    +0.227 A 
ATOM      9  N   UNL     1      -2.047   3.031  24.348  0.00  0.00    -0.111 NA
ATOM     10  N   UNL     1      -2.871   3.064  24.316  0.00  0.00    -0.107 NA
ATOM     11  C   UNL     1      -3.169   2.518  24.858  0.00  0.00    +0.250 A 
ATOM     12  O   UNL     1      -2.530   2.148  25.225  0.00  0.00    -0.420 OA
BRANCH  11  13
ATOM     13  C   UNL     1      -3.967   2.369  25.007  0.00  0.00    +0.055 A 
ATOM     14  C   UNL     1      -4.302   1.651  24.777  0.00  0.00    +0.006 A 
ATOM     15  C   UNL     1      -5.099   1.500  24.926  0.00  0.00    +0.024 A 
ATOM     16  C   UNL     1      -5.562   2.069  25.305  0.00  0.00    +0.143 A 
ATOM     17  C   UNL     1      -5.228   2.787  25.536  0.00  0.00    +0.024 A 
ATOM     18  C   UNL     1      -4.429   2.936  25.386  0.00  0.00    +0.006 A 
BRANCH  16  19
ATOM     19  N   UNL     1      -6.360   1.919  25.454  0.00  0.00    +0.058 N 
ATOM     20  O   UNL     1      -6.628   1.848  26.231  0.00  0.00    -0.126 OA
ATOM     21  O   UNL     1      -6.888   1.840  24.826  0.00  0.00    -0.126 OA
ENDBRANCH  16  19
ENDBRANCH  11  13
ENDBRANCH   7   8
ENDBRANCH   6   7
BRANCH  25  26
ATOM     26  C   UNL     1       0.377  -0.345  23.688  0.00  0.00    +0.076 C 
BRANCH  26  27
ATOM     27  N   UNL     1       1.042  -0.236  23.210  0.00  0.00    -0.270 NA
ATOM     28  C   UNL     1       0.956  -0.193  22.390  0.00  0.00    +0.090 C 
ATOM     29  C   UNL     1       1.620  -0.085  21.912  0.00  0.00    +0.090 C 
ATOM     30  N   UNL     1       2.369  -0.019  22.253  0.00  0.00    -0.269 NA
ATOM     31  C   UNL     1       3.031   0.089  21.776  0.00  0.00    +0.090 C 
ATOM     32  C   UNL     1       2.453  -0.062  23.073  0.00  0.00    +0.090 C 
ATOM     33  C   UNL     1       1.789  -0.171  23.551  0.00  0.00    +0.090 C 
ENDBRANCH  26  27
ENDBRANCH  25  26
TORSDOF 7
ENDMDL
MODEL 6
REMARK VINA RESULT:      -9.4      2.197      5.342
REMARK  Name = 
REMARK  7 active torsions:
REMARK  status: ('A' for Active; 'I' for Inactive)
REMARK    1  A    between atoms: C_2  and  C_4
REMARK    2  A    between atoms: C_6  and  C_7
REMARK    3  A    between atoms: C_7  and  C_8
REMARK    4  A    between atoms: C_11  and  C_13
REMARK    5  A    between atoms: C_16  and  N_19
REMARK    6  A    between atoms: C_25  and  C_26
REMARK    7  A    between atoms: C_26  and  N_27
REMARK                            x       y       z     vdW  Elec       q    Type
REMARK                         _______ _______ _______ _____ _____    ______ ____
ROOT
ATOM      4  C   UNL     1      -0.327   2.619  25.666  0.00  0.00    +0.006 C 
ATOM      5  C   UNL     1      -0.870   3.239  25.642  0.00  0.00    +0.005 C 
ATOM      6  C   UNL     1      -1.113   3.546  24.915  0.00  0.00    +0.027 C 
ATOM     22  C   UNL     1      -0.811   3.233  24.213  0.00  0.00    -0.048 C 
ATOM     23  C   UNL     1      -1.054   3.540  23.487  0.00  0.00    +0.026 C 
ATOM     24  C   UNL     1      -0.267   2.613  24.239  0.00  0.00    -0.034 C 
ATOM     25  C   UNL     1      -0.025   2.306  24.965  0.00  0.00    +0.037 C 
ENDROOT
BRANCH   4   2
ATOM      1  C   UNL     1       0.573   2.632  26.776  0.00  0.00    +0.000 C 
ATOM      2  C   UNL     1      -0.085   2.313  26.393  0.00  0.00    +0.000 C 
ATOM      3  C   UNL     1      -0.499   1.689  26.736  0.00  0.00    +0.000 C 
ENDBRANCH   4   2
BRANCH   6   7
ATOM      7  C   UNL     1      -1.657   4.166  24.890  0.00  0.00    +0.091 C 
BRANCH   7   8
ATOM      8  C   UNL     1      -2.403   4.073  25.226  0.00  0.00    +0.227 A 
ATOM      9  N   UNL     1      -2.710   4.513  25.854  0.00  0.00    -0.111 NA
ATOM     10  N   UNL     1      -3.472   4.236  26.010  0.00  0.00    -0.107 NA
ATOM     11  C   UNL     1      -3.635   3.626  25.479  0.00  0.00    +0.250 A 
ATOM     12  O   UNL     1      -2.975   3.526  24.995  0.00  0.00    -0.420 OA
BRANCH  11  13
ATOM     13  C   UNL     1      -4.336   3.192  25.439  0.00  0.00    +0.055 A 
ATOM     14  C   UNL     1      -4.332   2.431  25.122  0.00  0.00    +0.006 A 
ATOM     15  C   UNL     1      -5.032   1.996  25.082  0.00  0.00    +0.024 A 
ATOM     16  C   UNL     1      -5.737   2.324  25.360  0.00  0.00    +0.143 A 
ATOM     17  C   UNL     1      -5.742   3.085  25.677  0.00  0.00    +0.024 A 
ATOM     18  C   UNL     1      -5.040   3.520  25.717  0.00  0.00    +0.006 A 
BRANCH  16  19
ATOM     19  N   UNL     1      -6.438   1.890  25.319  0.00  0.00    +0.058 N 
ATOM     20  O   UNL     1      -6.765   1.702  24.586  0.00  0.00    -0.126 OA
ATOM     21  O   UNL     1      -6.810   1.644  26.013  0.00  0.00    -0.126 OA
ENDBRANCH  16  19
ENDBRANCH  11  13
ENDBRANCH   7   8
ENDBRANCH   6   7
BRANCH  25  26
ATOM     26  C   UNL     1       0.518   1.687  24.991  0.00  0.00    +0.076 C 
BRANCH  26  27
ATOM     27  N   UNL     1       0.597   1.180  24.343  0.00  0.00    -0.270 NA
ATOM     28  C   UNL     1       1.230   1.274  23.821  0.00  0.00    +0.090 C 
ATOM     29  C   UNL     1       1.309   0.768  23.175  0.00  0.00    +0.090 C 
ATOM     30  N   UNL     1       0.755   0.168  23.049  0.00  0.00    -0.269 NA
ATOM     31  C   UNL     1       0.834  -0.337  22.403  0.00  0.00    +0.090 C 
ATOM     32  C   UNL     1       0.124   0.075  23.572  0.00  0.00    +0.090 C 
ATOM     33  C   UNL     1       0.045   0.581  24.218  0.00  0.00    +0.090 C 
ENDBRANCH  26  27
ENDBRANCH  25  26
TORSDOF 7
ENDMDL
MODEL 7
REMARK VINA RESULT:      -9.2      2.355      3.874
REMARK  Name = 
REMARK  7 active torsions:
REMARK  status: ('A' for Active; 'I' for Inactive)
REMARK    1  A    between atoms: C_2  and  C_4
REMARK    2  A    between atoms: C_6  and  C_7
REMARK    3  A    between atoms: C_7  and  C_8
REMARK    4  A    between atoms: C_11  and  C_13
REMARK    5  A    between atoms: C_16  and  N_19
REMARK    6  A    between atoms: C_25  and  C_26
REMARK    7  A    between atoms: C_26  and  N_27
REMARK                            x       y       z     vdW  Elec       q    Type
REMARK                         _______ _______ _______ _____ _____    ______ ____
ROOT
ATOM      4  C   UNL     1      -4.453   1.203  24.535  0.00  0.00    +0.006 C 
ATOM      5  C   UNL     1      -4.023   1.856  24.272  0.00  0.00    +0.005 C 
ATOM      6  C   UNL     1      -3.392   1.750  23.750  0.00  0.00    +0.027 C 
ATOM     22  C   UNL     1      -3.193   0.993  23.491  0.00  0.00    -0.048 C 
ATOM     23  C   UNL     1      -2.563   0.888  22.969  0.00  0.00    +0.026 C 
ATOM     24  C   UNL     1      -3.624   0.341  23.755  0.00  0.00    -0.034 C 
ATOM     25  C   UNL     1      -4.253   0.445  24.276  0.00  0.00    +0.037 C 
ENDROOT
BRANCH   4   2
ATOM      1  C   UNL     1      -5.842   1.446  24.764  0.00  0.00    +0.000 C 
ATOM      2  C   UNL     1      -5.083   1.309  25.057  0.00  0.00    +0.000 C 
ATOM      3  C   UNL     1      -4.954   1.277  25.870  0.00  0.00    +0.000 C 
ENDBRANCH   4   2
BRANCH   6   7
ATOM      7  C   UNL     1      -2.962   2.403  23.487  0.00  0.00    +0.091 C 
BRANCH   7   8
ATOM      8  C   UNL     1      -2.450   2.794  24.001  0.00  0.00    +0.227 A 
ATOM      9  N   UNL     1      -2.355   3.612  24.062  0.00  0.00    -0.111 NA
ATOM     10  N   UNL     1      -1.788   3.760  24.643  0.00  0.00    -0.107 NA
ATOM     11  C   UNL     1      -1.533   3.034  24.941  0.00  0.00    +0.250 A 
ATOM     12  O   UNL     1      -1.942   2.437  24.544  0.00  0.00    -0.420 OA
BRANCH  11  13
ATOM     13  C   UNL     1      -0.969   2.923  25.532  0.00  0.00    +0.055 A 
ATOM     14  C   UNL     1      -1.175   3.028  26.325  0.00  0.00    +0.006 A 
ATOM     15  C   UNL     1      -0.611   2.917  26.917  0.00  0.00    +0.024 A 
ATOM     16  C   UNL     1       0.160   2.703  26.716  0.00  0.00    +0.143 A 
ATOM     17  C   UNL     1       0.367   2.599  25.924  0.00  0.00    +0.024 A 
ATOM     18  C   UNL     1      -0.198   2.709  25.332  0.00  0.00    +0.006 A 
BRANCH  16  19
ATOM     19  N   UNL     1       0.725   2.592  27.308  0.00  0.00    +0.058 N 
ATOM     20  O   UNL     1       1.494   2.870  27.201  0.00  0.00    -0.126 OA
ATOM     21  O   UNL     1       0.519   2.205  28.006  0.00  0.00    -0.126 OA
ENDBRANCH  16  19
ENDBRANCH  11  13
ENDBRANCH   7   8
ENDBRANCH   6   7
BRANCH  25  26
ATOM     26  C   UNL     1      -4.684  -0.207  24.540  0.00  0.00    +0.076 C 
BRANCH  26  27
ATOM     27  N   UNL     1      -4.340  -0.957  24.536  0.00  0.00    -0.270 NA
ATOM     28  C   UNL     1      -3.856  -1.192  25.161  0.00  0.00    +0.090 C 
ATOM     29  C   UNL     1      -3.512  -1.942  25.157  0.00  0.00    +0.090 C 
ATOM     30  N   UNL     1      -3.653  -2.457  24.527  0.00  0.00    -0.269 NA
ATOM     31  C   UNL     1      -3.309  -3.207  24.523  0.00  0.00    +0.090 C 
ATOM     32  C   UNL     1      -4.137  -2.222  23.903  0.00  0.00    +0.090 C 
ATOM     33  C   UNL     1      -4.481  -1.472  23.907  0.00  0.00    +0.090 C 
ENDBRANCH  26  27
ENDBRANCH  25  26
TORSDOF 7
ENDMDL
MODEL 8
REMARK VINA RESULT:      -9.1      1.830      5.103
REMARK  Name = 
REMARK  7 active torsions:
REMARK  status: ('A' for Active; 'I' for Inactive)
REMARK    1  A    between atoms: C_2  and  C_4
REMARK    2  A    between atoms: C_6  and  C_7
REMARK    3  A    between atoms: C_7  and  C_8
REMARK    4  A    between atoms: C_11  and  C_13
REMARK    5  A    between atoms: C_16  and  N_19
REMARK    6  A    between atoms: C_25  and  C_26
REMARK    7  A    between atoms: C_26  and  N_27
REMARK                            x       y       z     vdW  Elec       q    Type
REMARK                         _______ _______ _______ _____ _____    ______ ____
ROOT
ATOM      4  C   UNL     1      -0.974   2.062  24.599  0.00  0.00    +0.006 C 
ATOM      5  C   UNL     1      -1.522   2.561  24.238  0.00  0.00    +0.005 C 
ATOM      6  C   UNL     1      -1.985   2.282  23.613  0.00  0.00    +0.027 C 
ATOM     22  C   UNL     1      -1.899   1.504  23.352  0.00  0.00    -0.048 C 
ATOM     23  C   UNL     1      -2.361   1.225  22.728  0.00  0.00    +0.026 C 
ATOM     24  C   UNL     1      -1.350   1.006  23.714  0.00  0.00    -0.034 C 
ATOM     25  C   UNL     1      -0.888   1.284  24.337  0.00  0.00    +0.037 C 
ENDROOT
BRANCH   4   2
ATOM      1  C   UNL     1      -0.839   2.412  25.978  0.00  0.00    +0.000 C 
ATOM      2  C   UNL     1      -0.512   2.341  25.223  0.00  0.00    +0.000 C 
ATOM      3  C   UNL     1       0.274   2.550  25.093  0.00  0.00    +0.000 C 
ENDBRANCH   4   2
BRANCH   6   7
ATOM      7  C   UNL     1      -2.533   2.781  23.252  0.00  0.00    +0.091 C 
BRANCH   7   8
ATOM      8  C   UNL     1      -3.217   3.003  23.654  0.00  0.00    +0.227 A 
ATOM      9  N   UNL     1      -3.590   3.738  23.606  0.00  0.00    -0.111 NA
ATOM     10  N   UNL     1      -4.253   3.719  24.099  0.00  0.00    -0.107 NA
ATOM     11  C   UNL     1      -4.288   2.974  24.450  0.00  0.00    +0.250 A 
ATOM     12  O   UNL     1      -3.648   2.531  24.175  0.00  0.00    -0.420 OA
BRANCH  11  13
ATOM     13  C   UNL     1      -4.863   2.716  24.983  0.00  0.00    +0.055 A 
ATOM     14  C   UNL     1      -4.895   3.036  25.742  0.00  0.00    +0.006 A 
ATOM     15  C   UNL     1      -5.469   2.778  26.276  0.00  0.00    +0.024 A 
ATOM     16  C   UNL     1      -6.012   2.200  26.048  0.00  0.00    +0.143 A 
ATOM     17  C   UNL     1      -5.981   1.879  25.289  0.00  0.00    +0.024 A 
ATOM     18  C   UNL     1      -5.405   2.138  24.756  0.00  0.00    +0.006 A 
BRANCH  16  19
ATOM     19  N   UNL     1      -6.587   1.942  26.582  0.00  0.00    +0.058 N 
ATOM     20  O   UNL     1      -6.776   2.403  27.238  0.00  0.00    -0.126 OA
ATOM     21  O   UNL     1      -6.971   1.223  26.458  0.00  0.00    -0.126 OA
ENDBRANCH  16  19
ENDBRANCH  11  13
ENDBRANCH   7   8
ENDBRANCH   6   7
BRANCH  25  26
ATOM     26  C   UNL     1      -0.340   0.786  24.699  0.00  0.00    +0.076 C 
BRANCH  26  27
ATOM     27  N   UNL     1      -0.489  -0.025  24.750  0.00  0.00    -0.270 NA
ATOM     28  C   UNL     1      -0.978  -0.317  25.347  0.00  0.00    +0.090 C 
ATOM     29  C   UNL     1      -1.127  -1.127  25.398  0.00  0.00    +0.090 C 
ATOM     30  N   UNL     1      -0.788  -1.644  24.851  0.00  0.00    -0.269 NA
ATOM     31  C   UNL     1      -0.937  -2.453  24.902  0.00  0.00    +0.090 C 
ATOM     32  C   UNL     1      -0.300  -1.351  24.255  0.00  0.00    +0.090 C 
ATOM     33  C   UNL     1      -0.150  -0.541  24.204  0.00  0.00    +0.090 C 
ENDBRANCH  26  27
ENDBRANCH  25  26
TORSDOF 7
ENDMDL
MODEL 9
REMARK VINA RESULT:      -9.0      2.857      3.934
REMARK  Name = 
REMARK  7 active torsions:
REMARK  status: ('A' for Active; 'I' for Inactive)
REMARK    1  A    between atoms: C_2  and  C_4
REMARK    2  A    between atoms: C_6  and  C_7
REMARK    3  A    between atoms: C_7  and  C_8
REMARK    4  A    between atoms: C_11  and  C_13
REMARK    5  A    between atoms: C_16  and  N_19
REMARK    6  A    between atoms: C_25  and  C_26
REMARK    7  A    between atoms: C_26  and  N_27
REMARK                            x       y       z     vdW  Elec       q    Type
REMARK                         _______ _______ _______ _____ _____    ______ ____
ROOT
ATOM      4  C   UNL     1      -0.637   1.760  24.576  0.00  0.00    +0.006 C 
ATOM      5  C   UNL     1      -0.195   1.104  24.344  0.00  0.00    +0.005 C 
ATOM      6  C   UNL     1      -0.578   0.417  24.093  0.00  0.00    +0.027 C 
ATOM     22  C   UNL     1      -1.402   0.387  24.074  0.00  0.00    -0.048 C 
ATOM     23  C   UNL     1      -1.784  -0.299  23.823  0.00  0.00    +0.026 C 
ATOM     24  C   UNL     1      -1.843   1.045  24.306  0.00  0.00    -0.034 C 
ATOM     25  C   UNL     1      -1.461   1.731  24.557  0.00  0.00    +0.037 C 
ENDROOT
BRANCH   4   2
ATOM      1  C   UNL     1      -0.096   3.051  24.287  0.00  0.00    +0.000 C 
ATOM      2  C   UNL     1      -0.254   2.446  24.827  0.00  0.00    +0.000 C 
ATOM      3  C   UNL     1      -0.029   2.528  25.615  0.00  0.00    +0.000 C 
ENDBRANCH   4   2
BRANCH   6   7
ATOM      7  C   UNL     1      -0.136  -0.240  23.860  0.00  0.00    +0.091 C 
BRANCH   7   8
ATOM      8  C   UNL     1       0.538  -0.140  23.396  0.00  0.00    +0.227 A 
ATOM      9  N   UNL     1       0.555  -0.080  22.573  0.00  0.00    -0.111 NA
ATOM     10  N   UNL     1       1.341   0.014  22.340  0.00  0.00    -0.107 NA
ATOM     11  C   UNL     1       1.810   0.011  23.019  0.00  0.00    +0.250 A 
ATOM     12  O   UNL     1       1.313  -0.084  23.672  0.00  0.00    -0.420 OA
BRANCH  11  13
ATOM     13  C   UNL     1       2.630   0.090  23.043  0.00  0.00    +0.055 A 
ATOM     14  C   UNL     1       3.100  -0.547  23.275  0.00  0.00    +0.006 A 
ATOM     15  C   UNL     1       3.921  -0.469  23.299  0.00  0.00    +0.024 A 
ATOM     16  C   UNL     1       4.272   0.248  23.089  0.00  0.00    +0.143 A 
ATOM     17  C   UNL     1       3.804   0.885  22.857  0.00  0.00    +0.024 A 
ATOM     18  C   UNL     1       2.982   0.806  22.834  0.00  0.00    +0.006 A 
BRANCH  16  19
ATOM     19  N   UNL     1       5.094   0.326  23.113  0.00  0.00    +0.058 N 
ATOM     20  O   UNL     1       5.552   0.051  22.485  0.00  0.00    -0.126 OA
ATOM     21  O   UNL     1       5.455   0.680  23.764  0.00  0.00    -0.126 OA
ENDBRANCH  16  19
ENDBRANCH  11  13
ENDBRANCH   7   8
ENDBRANCH   6   7
BRANCH  25  26
ATOM     26  C   UNL     1      -1.902   2.387  24.789  0.00  0.00    +0.076 C 
BRANCH  26  27
ATOM     27  N   UNL     1      -2.726   2.376  24.723  0.00  0.00    -0.270 NA
ATOM     28  C   UNL     1      -3.086   2.636  24.028  0.00  0.00    +0.090 C 
ATOM     29  C   UNL     1      -3.909   2.625  23.962  0.00  0.00    +0.090 C 
ATOM     30  N   UNL     1      -4.370   2.353  24.590  0.00  0.00    -0.269 NA
ATOM     31  C   UNL     1      -5.191   2.342  24.524  0.00  0.00    +0.090 C 
ATOM     32  C   UNL     1      -4.008   2.093  25.284  0.00  0.00    +0.090 C 
ATOM     33  C   UNL     1      -3.186   2.104  25.351  0.00  0.00    +0.090 C 
ENDBRANCH  26  27
ENDBRANCH  25  26
TORSDOF 7
ENDMDL
MODEL 10
REMARK VINA RESULT:      -8.8      1.865      4.966
REMARK  Name = 
REMARK  7 active torsions:
REMARK  status: ('A' for Active; 'I' for Inactive)
REMARK    1  A    between atoms: C_2  and  C_4
REMARK    2  A    between atoms: C_6  and  C_7
REMARK    3  A    between atoms: C_7  and  C_8
REMARK    4  A    between atoms: C_11  and  C_13
REMARK    5  A    between atoms: C_16  and  N_19
REMARK    6  A    between atoms: C_25  and  C_26
REMARK    7  A    between atoms: C_26  and  N_27
REMARK                            x       y       z     vdW  Elec       q    Type
REMARK                         _______ _______ _______ _____ _____    ______ ____
ROOT
ATOM      4  C   UNL     1      -0.344   0.599  24.186  0.00  0.00    +0.006 C 
ATOM      5  C   UNL     1      -0.289   1.329  24.567  0.00  0.00    +0.005 C 
ATOM      6  C   UNL     1      -0.494   1.394  25.364  0.00  0.00    +0.027 C 
ATOM     22  C   UNL     1      -0.752   0.729  25.779  0.00  0.00    -0.048 C 
ATOM     23  C   UNL     1      -0.956   0.794  26.575  0.00  0.00    +0.026 C 
ATOM     24  C   UNL     1      -0.807   0.000  25.397  0.00  0.00    -0.034 C 
ATOM     25  C   UNL     1      -0.602  -0.065  24.601  0.00  0.00    +0.037 C 
ENDROOT
BRANCH   4   2
ATOM      1  C   UNL     1      -0.663   0.798  22.807  0.00  0.00    +0.000 C 
ATOM      2  C   UNL     1      -0.139   0.535  23.390  0.00  0.00    +0.000 C 
ATOM      3  C   UNL     1       0.586   0.209  23.175  0.00  0.00    +0.000 C 
ENDBRANCH   4   2
BRANCH   6   7
ATOM      7  C   UNL     1      -0.439   2.123  25.745  0.00  0.00    +0.091 C 
BRANCH   7   8
ATOM      8  C   UNL     1      -1.003   2.707  25.602  0.00  0.00    +0.227 A 
ATOM      9  N   UNL     1      -0.848   3.483  25.368  0.00  0.00    -0.111 NA
ATOM     10  N   UNL     1      -1.571   3.874  25.288  0.00  0.00    -0.107 NA
ATOM     11  C   UNL     1      -2.171   3.340  25.473  0.00  0.00    +0.250 A 
ATOM     12  O   UNL     1      -1.820   2.618  25.666  0.00  0.00    -0.420 OA
BRANCH  11  13
ATOM     13  C   UNL     1      -2.981   3.498  25.465  0.00  0.00    +0.055 A 
ATOM     14  C   UNL     1      -3.422   3.357  24.782  0.00  0.00    +0.006 A 
ATOM     15  C   UNL     1      -4.232   3.515  24.773  0.00  0.00    +0.024 A 
ATOM     16  C   UNL     1      -4.600   3.814  25.449  0.00  0.00    +0.143 A 
ATOM     17  C   UNL     1      -4.160   3.955  26.132  0.00  0.00    +0.024 A 
ATOM     18  C   UNL     1      -3.349   3.796  26.139  0.00  0.00    +0.006 A 
BRANCH  16  19
ATOM     19  N   UNL     1      -5.410   3.972  25.440  0.00  0.00    +0.058 N 
ATOM     20  O   UNL     1      -5.678   4.749  25.377  0.00  0.00    -0.126 OA
ATOM     21  O   UNL     1      -5.952   3.352  25.495  0.00  0.00    -0.126 OA
ENDBRANCH  16  19
ENDBRANCH  11  13
ENDBRANCH   7   8
ENDBRANCH   6   7
BRANCH  25  26
ATOM     26  C   UNL     1      -0.657  -0.794  24.219  0.00  0.00    +0.076 C 
BRANCH  26  27
ATOM     27  N   UNL     1      -1.273  -1.312  24.404  0.00  0.00    -0.270 NA
ATOM     28  C   UNL     1      -2.045  -1.133  24.173  0.00  0.00    +0.090 C 
ATOM     29  C   UNL     1      -2.660  -1.650  24.358  0.00  0.00    +0.090 C 
ATOM     30  N   UNL     1      -2.504  -2.346  24.774  0.00  0.00    -0.269 NA
ATOM     31  C   UNL     1      -3.119  -2.863  24.958  0.00  0.00    +0.090 C 
ATOM     32  C   UNL     1      -1.732  -2.524  25.004  0.00  0.00    +0.090 C 
ATOM     33  C   UNL     1      -1.117  -2.006  24.820  0.00  0.00    +0.090 C 
ENDBRANCH  26  27
ENDBRANCH  25  26
TORSDOF 7
ENDMDL
