MODEL 1
REMARK VINA RESULT:      -9.0      0.000      0.000
REMARK  Name = 
REMARK  10 active torsions:
REMARK  status: ('A' for Active; 'I' for Inactive)
REMARK    1  A    between atoms: O_2  and  C_3
REMARK    2  A    between atoms: C_3  and  C_5
REMARK    3  A    between atoms: C_10  and  C_12
REMARK    4  A    between atoms: C_14  and  N_26
REMARK    5  A    between atoms: C_18  and  C_20
REMARK    6  A    between atoms: C_20  and  O_21
REMARK    7  A    between atoms: O_21  and  C_22
REMARK    8  A    between atoms: C_22  and  C_23
REMARK    9  A    between atoms: N_26  and  S_27
REMARK   10  A    between atoms: S_27  and  C_30
REMARK                            x       y       z     vdW  Elec       q    Type
REMARK                         _______ _______ _______ _____ _____    ______ ____
ROOT
ATOM     12  C   UNL     1      -0.789   0.522  24.475  0.00  0.00    +0.153 C 
ATOM     13  C   UNL     1      -1.357   0.107  24.906  0.00  0.00    +0.049 C 
ATOM     14  C   UNL     1      -1.320  -0.716  24.951  0.00  0.00    +0.102 C 
ATOM     15  C   UNL     1      -0.715  -1.124  24.565  0.00  0.00    +0.041 C 
ATOM     16  C   UNL     1      -0.148  -0.708  24.134  0.00  0.00    +0.095 C 
ATOM     17  N   UNL     1      -0.185   0.115  24.089  0.00  0.00    -0.271 N 
ATOM     18  C   UNL     1       0.382   0.529  23.658  0.00  0.00    +0.256 C 
ATOM     19  O   UNL     1       0.346   1.353  23.613  0.00  0.00    -0.272 OA
ENDROOT
BRANCH  12  10
ATOM      5  C   UNL     1      -0.725   2.625  25.145  0.00  0.00    +0.175 C 
ATOM      6  C   UNL     1      -0.575   2.847  25.926  0.00  0.00    +0.033 C 
ATOM      7  C   UNL     1      -0.462   2.160  26.369  0.00  0.00    +0.024 C 
ATOM      8  C   UNL     1      -0.543   1.514  25.863  0.00  0.00    +0.094 C 
ATOM      9  N   UNL     1      -0.705   1.802  25.106  0.00  0.00    -0.270 N 
ATOM     10  C   UNL     1      -0.826   1.346  24.429  0.00  0.00    +0.244 C 
ATOM     11  O   UNL     1      -0.984   1.712  23.708  0.00  0.00    -0.273 OA
BRANCH   5   3
ATOM      3  C   UNL     1      -0.869   3.137  24.515  0.00  0.00    +0.335 C 
ATOM      4  O   UNL     1      -1.618   3.165  24.170  0.00  0.00    -0.248 OA
BRANCH   3   2
ATOM      1  C   UNL     1      -0.432   4.393  23.991  0.00  0.00    +0.256 C 
ATOM      2  O   UNL     1      -0.265   3.621  24.229  0.00  0.00    -0.443 OA
ENDBRANCH   3   2
ENDBRANCH   5   3
ENDBRANCH  12  10
BRANCH  18  20
ATOM     20  C   UNL     1       0.987   0.122  23.272  0.00  0.00    +0.228 C 
BRANCH  20  21
ATOM     21  O   UNL     1       1.666   0.523  23.030  0.00  0.00    -0.333 OA
BRANCH  21  22
ATOM     22  C   UNL     1       2.324   0.100  22.767  0.00  0.00    +0.257 C 
BRANCH  22  23
ATOM     23  C   UNL     1       3.008   0.500  22.540  0.00  0.00    +0.394 C 
ATOM     24  O   UNL     1       3.289   0.433  21.767  0.00  0.00    -0.243 OA
ATOM     25  O   UNL     1       3.413   0.969  23.086  0.00  0.00    -0.243 OA
ENDBRANCH  22  23
ENDBRANCH  21  22
ENDBRANCH  20  21
ENDBRANCH  18  20
BRANCH  14  26
ATOM     26  N   UNL     1      -1.889  -1.131  25.383  0.00  0.00    -0.079 NA
BRANCH  26  27
ATOM     27  S   UNL     1      -2.543  -1.453  25.000  0.00  0.00    +0.082 S 
ATOM     28  O   UNL     1      -2.996  -0.800  25.224  0.00  0.00    -0.151 OA
ATOM     29  O   UNL     1      -2.091  -2.106  24.775  0.00  0.00    -0.151 OA
BRANCH  27  30
ATOM     30  C   UNL     1      -3.199  -1.776  24.615  0.00  0.00    +0.153 A 
ATOM     31  C   UNL     1      -3.801  -1.351  24.245  0.00  0.00    +0.027 A 
ATOM     32  C   UNL     1      -4.341  -1.893  23.935  0.00  0.00    +0.009 A 
ATOM     33  C   UNL     1      -4.073  -2.652  24.115  0.00  0.00    +0.037 A 
ATOM     34  S   UNL     1      -3.367  -2.580  24.536  0.00  0.00    -0.067 S 
ENDBRANCH  27  30
ENDBRANCH  26  27
ENDBRANCH  14  26
TORSDOF 10
ENDMDL
MODEL 2
REMARK VINA RESULT:      -8.1      1.841      4.274
REMARK  Name = 
REMARK  10 active torsions:
REMARK  status: ('A' for Active; 'I' for Inactive)
REMARK    1  A    between atoms: O_2  and  C_3
REMARK    2  A    between atoms: C_3  and  C_5
REMARK    3  A    between atoms: C_10  and  C_12
REMARK    4  A    between atoms: C_14  and  N_26
REMARK    5  A    between atoms: C_18  and  C_20
REMARK    6  A    between atoms: C_20  and  O_21
REMARK    7  A    between atoms: O_21  and  C_22
REMARK    8  A    between atoms: C_22  and  C_23
REMARK    9  A    between atoms: N_26  and  S_27
REMARK   10  A    between atoms: S_27  and  C_30
REMARK                            x       y       z     vdW  Elec       q    Type
REMARK                         _______ _______ _______ _____ _____    ______ ____
ROOT
ATOM     12  C   UNL     1      -1.118   0.743  25.056  0.00  0.00    +0.153 C 
ATOM     13  C   UNL     1      -1.341   1.370  25.544  0.00  0.00    +0.049 C 
ATOM     14  C   UNL     1      -0.852   2.030  25.617  0.00  0.00    +0.102 C 
ATOM     15  C   UNL     1      -0.140   2.064  25.201  0.00  0.00    +0.041 C 
ATOM     16  C   UNL     1       0.082   1.438  24.713  0.00  0.00    +0.095 C 
ATOM     17  N   UNL     1      -0.407   0.777  24.640  0.00  0.00    -0.271 N 
ATOM     18  C   UNL     1      -0.184   0.151  24.153  0.00  0.00    +0.256 C 
ATOM     19  O   UNL     1      -0.674  -0.510  24.080  0.00  0.00    -0.272 OA
ENDROOT
BRANCH  12  10
ATOM      5  C   UNL     1      -2.893  -0.454  24.514  0.00  0.00    +0.175 C 
ATOM      6  C   UNL     1      -3.554  -0.138  24.135  0.00  0.00    +0.033 C 
ATOM      7  C   UNL     1      -3.416   0.667  24.011  0.00  0.00    +0.024 C 
ATOM      8  C   UNL     1      -2.670   0.847  24.314  0.00  0.00    +0.094 C 
ATOM      9  N   UNL     1      -2.347   0.154  24.625  0.00  0.00    -0.270 N 
ATOM     10  C   UNL     1      -1.608   0.082  24.984  0.00  0.00    +0.244 C 
ATOM     11  O   UNL     1      -1.357  -0.649  25.270  0.00  0.00    -0.273 OA
BRANCH   5   3
ATOM      3  C   UNL     1      -2.795  -1.240  24.742  0.00  0.00    +0.335 C 
ATOM      4  O   UNL     1      -2.786  -1.439  25.543  0.00  0.00    -0.248 OA
BRANCH   3   2
ATOM      1  C   UNL     1      -2.990  -2.590  24.314  0.00  0.00    +0.256 C 
ATOM      2  O   UNL     1      -2.707  -1.829  24.171  0.00  0.00    -0.443 OA
ENDBRANCH   3   2
ENDBRANCH   5   3
ENDBRANCH  12  10
BRANCH  18  20
ATOM     20  C   UNL     1       0.528   0.184  23.736  0.00  0.00    +0.228 C 
BRANCH  20  21
ATOM     21  O   UNL     1       0.603  -0.208  23.015  0.00  0.00    -0.333 OA
BRANCH  21  22
ATOM     22  C   UNL     1       1.341  -0.485  22.770  0.00  0.00    +0.257 C 
BRANCH  22  23
ATOM     23  C   UNL     1       1.618  -0.309  22.014  0.00  0.00    +0.394 C 
ATOM     24  O   UNL     1       1.184  -0.538  21.351  0.00  0.00    -0.243 OA
ATOM     25  O   UNL     1       2.331   0.098  21.920  0.00  0.00    -0.243 OA
ENDBRANCH  22  23
ENDBRANCH  21  22
ENDBRANCH  20  21
ENDBRANCH  18  20
BRANCH  14  26
ATOM     26  N   UNL     1      -1.075   2.658  26.105  0.00  0.00    -0.079 NA
BRANCH  26  27
ATOM     27  S   UNL     1      -1.250   3.393  25.778  0.00  0.00    +0.082 S 
ATOM     28  O   UNL     1      -2.057   3.246  25.877  0.00  0.00    -0.151 OA
ATOM     29  O   UNL     1      -0.444   3.541  25.679  0.00  0.00    -0.151 OA
BRANCH  27  30
ATOM     30  C   UNL     1      -1.425   4.131  25.449  0.00  0.00    +0.153 A 
ATOM     31  C   UNL     1      -0.883   4.653  25.115  0.00  0.00    +0.027 A 
ATOM     32  C   UNL     1      -1.296   5.319  24.857  0.00  0.00    +0.009 A 
ATOM     33  C   UNL     1      -2.094   5.208  25.033  0.00  0.00    +0.037 A 
ATOM     34  S   UNL     1      -2.174   4.472  25.399  0.00  0.00    -0.067 S 
ENDBRANCH  27  30
ENDBRANCH  26  27
ENDBRANCH  14  26
TORSDOF 10
ENDMDL
MODEL 3
REMARK VINA RESULT:      -8.1      2.381      4.369
REMARK  Name = 
REMARK  10 active torsions:
REMARK  status: ('A' for Active; 'I' for Inactive)
REMARK    1  A    between atoms: O_2  and  C_3
REMARK    2  A    between atoms: C_3  and  C_5
REMARK    3  A    between atoms: C_10  and  C_12
REMARK    4  A    between atoms: C_14  and  N_26
REMARK    5  A    between atoms: C_18  and  C_20
REMARK    6  A    between atoms: C_20  and  O_21
REMARK    7  A    between atoms: O_21  and  C_22
REMARK    8  A    between atoms: C_22  and  C_23
REMARK    9  A    between atoms: N_26  and  S_27
REMARK   10  A    between atoms: S_27  and  C_30
REMARK                            x       y       z     vdW  Elec       q    Type
REMARK                         _______ _______ _______ _____ _____    ______ ____
ROOT
ATOM     12  C   UNL     1      -2.732   0.610  24.225  0.00  0.00    +0.153 C 
ATOM     13  C   UNL     1      -3.396   1.090  24.126  0.00  0.00    +0.049 C 
ATOM     14  C   UNL     1      -3.319   1.834  23.778  0.00  0.00    +0.102 C 
ATOM     15  C   UNL     1      -2.577   2.098  23.528  0.00  0.00    +0.041 C 
ATOM     16  C   UNL     1      -1.914   1.618  23.628  0.00  0.00    +0.095 C 
ATOM     17  N   UNL     1      -1.991   0.874  23.976  0.00  0.00    -0.271 N 
ATOM     18  C   UNL     1      -1.328   0.394  24.075  0.00  0.00    +0.256 C 
ATOM     19  O   UNL     1      -1.405  -0.351  24.423  0.00  0.00    -0.272 OA
ENDROOT
BRANCH  12  10
ATOM      5  C   UNL     1      -3.468  -1.448  24.541  0.00  0.00    +0.175 C 
ATOM      6  C   UNL     1      -4.033  -1.806  24.057  0.00  0.00    +0.033 C 
ATOM      7  C   UNL     1      -4.246  -1.265  23.471  0.00  0.00    +0.024 C 
ATOM      8  C   UNL     1      -3.814  -0.574  23.593  0.00  0.00    +0.094 C 
ATOM      9  N   UNL     1      -3.333  -0.687  24.254  0.00  0.00    -0.270 N 
ATOM     10  C   UNL     1      -2.809  -0.135  24.573  0.00  0.00    +0.244 C 
ATOM     11  O   UNL     1      -2.363  -0.326  25.239  0.00  0.00    -0.273 OA
BRANCH   5   3
ATOM      3  C   UNL     1      -3.104  -1.791  25.196  0.00  0.00    +0.335 C 
ATOM      4  O   UNL     1      -3.316  -1.554  25.957  0.00  0.00    -0.248 OA
BRANCH   3   2
ATOM      1  C   UNL     1      -2.510  -3.032  25.584  0.00  0.00    +0.256 C 
ATOM      2  O   UNL     1      -2.526  -2.371  25.091  0.00  0.00    -0.443 OA
ENDBRANCH   3   2
ENDBRANCH   5   3
ENDBRANCH  12  10
BRANCH  18  20
ATOM     20  C   UNL     1      -0.587   0.658  23.826  0.00  0.00    +0.228 C 
BRANCH  20  21
ATOM     21  O   UNL     1      -0.030   0.119  23.543  0.00  0.00    -0.333 OA
BRANCH  21  22
ATOM     22  C   UNL     1       0.727   0.376  23.339  0.00  0.00    +0.257 C 
BRANCH  22  23
ATOM     23  C   UNL     1       1.212  -0.100  22.872  0.00  0.00    +0.394 C 
ATOM     24  O   UNL     1       1.910  -0.411  23.184  0.00  0.00    -0.243 OA
ATOM     25  O   UNL     1       1.000  -0.265  22.091  0.00  0.00    -0.243 OA
ENDBRANCH  22  23
ENDBRANCH  21  22
ENDBRANCH  20  21
ENDBRANCH  18  20
BRANCH  14  26
ATOM     26  N   UNL     1      -3.983   2.314  23.678  0.00  0.00    -0.079 NA
BRANCH  26  27
ATOM     27  S   UNL     1      -4.289   2.732  24.319  0.00  0.00    +0.082 S 
ATOM     28  O   UNL     1      -4.912   2.193  24.374  0.00  0.00    -0.151 OA
ATOM     29  O   UNL     1      -3.666   3.271  24.264  0.00  0.00    -0.151 OA
BRANCH  27  30
ATOM     30  C   UNL     1      -4.595   3.152  24.962  0.00  0.00    +0.153 A 
ATOM     31  C   UNL     1      -4.242   3.799  25.330  0.00  0.00    +0.027 A 
ATOM     32  C   UNL     1      -4.737   4.044  25.943  0.00  0.00    +0.009 A 
ATOM     33  C   UNL     1      -5.395   3.547  25.954  0.00  0.00    +0.037 A 
ATOM     34  S   UNL     1      -5.308   2.995  25.346  0.00  0.00    -0.067 S 
ENDBRANCH  27  30
ENDBRANCH  26  27
ENDBRANCH  14  26
TORSDOF 10
ENDMDL
MODEL 4
REMARK VINA RESULT:      -8.0      2.211      4.043
REMARK  Name = 
REMARK  10 active torsions:
REMARK  status: ('A' for Active; 'I' for Inactive)
REMARK    1  A    between atoms: O_2  and  C_3
REMARK    2  A    between atoms: C_3  and  C_5
REMARK    3  A    between atoms: C_10  and  C_12
REMARK    4  A    between atoms: C_14  and  N_26
REMARK    5  A    between atoms: C_18  and  C_20
REMARK    6  A    between atoms: C_20  and  O_21
REMARK    7  A    between atoms: O_21  and  C_22
REMARK    8  A    between atoms: C_22  and  C_23
REMARK    9  A    between atoms: N_26  and  S_27
REMARK   10  A    between atoms: S_27  and  C_30
REMARK                            x       y       z     vdW  Elec       q    Type
REMARK                         _______ _______ _______ _____ _____    ______ ____
ROOT
ATOM     12  C   UNL     1      -2.104   1.543  24.897  0.00  0.00    +0.153 C 
ATOM     13  C   UNL     1      -1.726   0.818  25.006  0.00  0.00    +0.049 C 
ATOM     14  C   UNL     1      -2.174   0.132  25.106  0.00  0.00    +0.102 C 
ATOM     15  C   UNL     1      -2.998   0.171  25.097  0.00  0.00    +0.041 C 
ATOM     16  C   UNL     1      -3.374   0.897  24.987  0.00  0.00    +0.095 C 
ATOM     17  N   UNL     1      -2.927   1.583  24.887  0.00  0.00    -0.271 N 
ATOM     18  C   UNL     1      -3.304   2.308  24.778  0.00  0.00    +0.256 C 
ATOM     19  O   UNL     1      -2.856   2.995  24.678  0.00  0.00    -0.272 OA
ENDROOT
BRANCH  12  10
ATOM      5  C   UNL     1      -0.563   3.073  25.302  0.00  0.00    +0.175 C 
ATOM      6  C   UNL     1      -0.042   3.033  25.940  0.00  0.00    +0.033 C 
ATOM      7  C   UNL     1      -0.210   2.345  26.364  0.00  0.00    +0.024 C 
ATOM      8  C   UNL     1      -0.835   1.960  25.987  0.00  0.00    +0.094 C 
ATOM      9  N   UNL     1      -1.053   2.411  25.331  0.00  0.00    -0.270 N 
ATOM     10  C   UNL     1      -1.656   2.230  24.797  0.00  0.00    +0.244 C 
ATOM     11  O   UNL     1      -1.811   2.735  24.164  0.00  0.00    -0.273 OA
BRANCH   5   3
ATOM      3  C   UNL     1      -0.589   3.671  24.734  0.00  0.00    +0.335 C 
ATOM      4  O   UNL     1      -0.292   3.534  23.977  0.00  0.00    -0.248 OA
BRANCH   3   2
ATOM      1  C   UNL     1      -0.602   5.093  24.586  0.00  0.00    +0.256 C 
ATOM      2  O   UNL     1      -0.912   4.406  24.923  0.00  0.00    -0.443 OA
ENDBRANCH   3   2
ENDBRANCH   5   3
ENDBRANCH  12  10
BRANCH  18  20
ATOM     20  C   UNL     1      -4.128   2.349  24.768  0.00  0.00    +0.228 C 
BRANCH  20  21
ATOM     21  O   UNL     1      -4.515   2.971  25.145  0.00  0.00    -0.333 OA
BRANCH  21  22
ATOM     22  C   UNL     1      -5.340   3.008  25.141  0.00  0.00    +0.257 C 
BRANCH  22  23
ATOM     23  C   UNL     1      -5.739   3.393  25.751  0.00  0.00    +0.394 C 
ATOM     24  O   UNL     1      -5.891   4.202  25.700  0.00  0.00    -0.243 OA
ATOM     25  O   UNL     1      -5.988   2.967  26.414  0.00  0.00    -0.243 OA
ENDBRANCH  22  23
ENDBRANCH  21  22
ENDBRANCH  20  21
ENDBRANCH  18  20
BRANCH  14  26
ATOM     26  N   UNL     1      -1.797  -0.595  25.216  0.00  0.00    -0.079 NA
BRANCH  26  27
ATOM     27  S   UNL     1      -2.172  -1.292  24.988  0.00  0.00    +0.082 S 
ATOM     28  O   UNL     1      -2.515  -1.352  25.737  0.00  0.00    -0.151 OA
ATOM     29  O   UNL     1      -1.829  -1.232  24.240  0.00  0.00    -0.151 OA
BRANCH  27  30
ATOM     30  C   UNL     1      -2.547  -1.991  24.759  0.00  0.00    +0.153 A 
ATOM     31  C   UNL     1      -3.296  -2.239  24.998  0.00  0.00    +0.027 A 
ATOM     32  C   UNL     1      -3.451  -2.965  24.639  0.00  0.00    +0.009 A 
ATOM     33  C   UNL     1      -2.797  -3.166  24.177  0.00  0.00    +0.037 A 
ATOM     34  S   UNL     1      -2.238  -2.563  24.252  0.00  0.00    -0.067 S 
ENDBRANCH  27  30
ENDBRANCH  26  27
ENDBRANCH  14  26
TORSDOF 10
ENDMDL
MODEL 5
REMARK VINA RESULT:      -7.6      2.052      5.156
REMARK  Name = 
REMARK  10 active torsions:
REMARK  status: ('A' for Active; 'I' for Inactive)
REMARK    1  A    between atoms: O_2  and  C_3
REMARK    2  A    between atoms: C_3  and  C_5
REMARK    3  A    between atoms: C_10  and  C_12
REMARK    4  A    between atoms: C_14  and  N_26
REMARK    5  A    between atoms: C_18  and  C_20
REMARK    6  A    between atoms: C_20  and  O_21
REMARK    7  A    between atoms: O_21  and  C_22
REMARK    8  A    between atoms: C_22  and  C_23
REMARK    9  A    between atoms: N_26  and  S_27
REMARK   10  A    between atoms: S_27  and  C_30
REMARK                            x       y       z     vdW  Elec       q    Type
REMARK                         _______ _______ _______ _____ _____    ______ ____
ROOT
ATOM     12  C   UNL     1      -2.149   0.343  24.379  0.00  0.00    +0.153 C 
ATOM     13  C   UNL     1      -1.375   0.063  24.443  0.00  0.00    +0.049 C 
ATOM     14  C   UNL     1      -0.748   0.596  24.500  0.00  0.00    +0.102 C 
ATOM     15  C   UNL     1      -0.894   1.409  24.493  0.00  0.00    +0.041 C 
ATOM     16  C   UNL     1      -1.668   1.687  24.429  0.00  0.00    +0.095 C 
ATOM     17  N   UNL     1      -2.295   1.154  24.372  0.00  0.00    -0.271 N 
ATOM     18  C   UNL     1      -3.068   1.433  24.308  0.00  0.00    +0.256 C 
ATOM     19  O   UNL     1      -3.696   0.899  24.251  0.00  0.00    -0.272 OA
ENDROOT
BRANCH  12  10
ATOM      5  C   UNL     1      -3.540  -1.268  24.965  0.00  0.00    +0.175 C 
ATOM      6  C   UNL     1      -3.497  -1.663  25.689  0.00  0.00    +0.033 C 
ATOM      7  C   UNL     1      -2.864  -1.346  26.115  0.00  0.00    +0.024 C 
ATOM      8  C   UNL     1      -2.517  -0.756  25.654  0.00  0.00    +0.094 C 
ATOM      9  N   UNL     1      -2.935  -0.708  24.944  0.00  0.00    -0.270 N 
ATOM     10  C   UNL     1      -2.776  -0.191  24.321  0.00  0.00    +0.244 C 
ATOM     11  O   UNL     1      -3.244  -0.206  23.642  0.00  0.00    -0.273 OA
BRANCH   5   3
ATOM      3  C   UNL     1      -4.092  -1.409  24.369  0.00  0.00    +0.335 C 
ATOM      4  O   UNL     1      -4.795  -0.978  24.347  0.00  0.00    -0.248 OA
BRANCH   3   2
ATOM      1  C   UNL     1      -4.551  -2.467  23.524  0.00  0.00    +0.256 C 
ATOM      2  O   UNL     1      -3.941  -1.981  23.793  0.00  0.00    -0.443 OA
ENDBRANCH   3   2
ENDBRANCH   5   3
ENDBRANCH  12  10
BRANCH  18  20
ATOM     20  C   UNL     1      -3.216   2.245  24.301  0.00  0.00    +0.228 C 
BRANCH  20  21
ATOM     21  O   UNL     1      -3.885   2.546  24.677  0.00  0.00    -0.333 OA
BRANCH  21  22
ATOM     22  C   UNL     1      -4.037   3.357  24.663  0.00  0.00    +0.257 C 
BRANCH  22  23
ATOM     23  C   UNL     1      -4.465   3.708  25.274  0.00  0.00    +0.394 C 
ATOM     24  O   UNL     1      -5.290   3.703  25.257  0.00  0.00    -0.243 OA
ATOM     25  O   UNL     1      -4.068   4.066  25.903  0.00  0.00    -0.243 OA
ENDBRANCH  22  23
ENDBRANCH  21  22
ENDBRANCH  20  21
ENDBRANCH  18  20
BRANCH  14  26
ATOM     26  N   UNL     1       0.027   0.318  24.564  0.00  0.00    -0.079 NA
BRANCH  26  27
ATOM     27  S   UNL     1       0.475   0.187  23.885  0.00  0.00    +0.082 S 
ATOM     28  O   UNL     1       0.306  -0.620  23.929  0.00  0.00    -0.151 OA
ATOM     29  O   UNL     1       0.644   0.993  23.842  0.00  0.00    -0.151 OA
BRANCH  27  30
ATOM     30  C   UNL     1       0.925   0.056  23.205  0.00  0.00    +0.153 A 
ATOM     31  C   UNL     1       0.668  -0.323  22.520  0.00  0.00    +0.027 A 
ATOM     32  C   UNL     1       1.294  -0.332  21.983  0.00  0.00    +0.009 A 
ATOM     33  C   UNL     1       1.939   0.043  22.337  0.00  0.00    +0.037 A 
ATOM     34  S   UNL     1       1.710   0.282  23.093  0.00  0.00    -0.067 S 
ENDBRANCH  27  30
ENDBRANCH  26  27
ENDBRANCH  14  26
TORSDOF 10
ENDMDL
MODEL 6
REMARK VINA RESULT:      -7.5      2.545      3.776
REMARK  Name = 
REMARK  10 active torsions:
REMARK  status: ('A' for Active; 'I' for Inactive)
REMARK    1  A    between atoms: O_2  and  C_3
REMARK    2  A    between atoms: C_3  and  C_5
REMARK    3  A    between atoms: C_10  and  C_12
REMARK    4  A    between atoms: C_14  and  N_26
REMARK    5  A    between atoms: C_18  and  C_20
REMARK    6  A    between atoms: C_20  and  O_21
REMARK    7  A    between atoms: O_21  and  C_22
REMARK    8  A    between atoms: C_22  and  C_23
REMARK    9  A    between atoms: N_26  and  S_27
REMARK   10  A    between atoms: S_27  and  C_30
REMARK                            x       y       z     vdW  Elec       q    Type
REMARK                         _______ _______ _______ _____ _____    ______ ____
ROOT
ATOM     12  C   UNL     1      -2.081   1.704  24.680  0.00  0.00    +0.153 C 
ATOM     13  C   UNL     1      -2.710   2.233  24.610  0.00  0.00    +0.049 C 
ATOM     14  C   UNL     1      -3.388   2.015  24.194  0.00  0.00    +0.102 C 
ATOM     15  C   UNL     1      -3.437   1.268  23.847  0.00  0.00    +0.041 C 
ATOM     16  C   UNL     1      -2.808   0.739  23.917  0.00  0.00    +0.095 C 
ATOM     17  N   UNL     1      -2.130   0.957  24.334  0.00  0.00    -0.271 N 
ATOM     18  C   UNL     1      -1.501   0.428  24.404  0.00  0.00    +0.256 C 
ATOM     19  O   UNL     1      -0.822   0.646  24.820  0.00  0.00    -0.272 OA
ENDROOT
BRANCH  12  10
ATOM      5  C   UNL     1      -0.349   2.927  25.296  0.00  0.00    +0.175 C 
ATOM      6  C   UNL     1      -0.167   3.657  24.958  0.00  0.00    +0.033 C 
ATOM      7  C   UNL     1      -0.734   3.819  24.380  0.00  0.00    +0.024 C 
ATOM      8  C   UNL     1      -1.265   3.188  24.361  0.00  0.00    +0.094 C 
ATOM      9  N   UNL     1      -1.027   2.637  24.928  0.00  0.00    -0.270 N 
ATOM     10  C   UNL     1      -1.402   1.922  25.096  0.00  0.00    +0.244 C 
ATOM     11  O   UNL     1      -1.100   1.425  25.680  0.00  0.00    -0.273 OA
BRANCH   5   3
ATOM      3  C   UNL     1       0.074   2.553  25.898  0.00  0.00    +0.335 C 
ATOM      4  O   UNL     1       0.708   2.060  25.710  0.00  0.00    -0.248 OA
BRANCH   3   2
ATOM      1  C   UNL     1       0.428   2.593  27.282  0.00  0.00    +0.256 C 
ATOM      2  O   UNL     1      -0.138   2.671  26.687  0.00  0.00    -0.443 OA
ENDBRANCH   3   2
ENDBRANCH   5   3
ENDBRANCH  12  10
BRANCH  18  20
ATOM     20  C   UNL     1      -1.550  -0.319  24.057  0.00  0.00    +0.228 C 
BRANCH  20  21
ATOM     21  O   UNL     1      -1.298  -0.985  24.474  0.00  0.00    -0.333 OA
BRANCH  21  22
ATOM     22  C   UNL     1      -1.298  -1.725  24.110  0.00  0.00    +0.257 C 
BRANCH  22  23
ATOM     23  C   UNL     1      -1.496  -2.398  24.543  0.00  0.00    +0.394 C 
ATOM     24  O   UNL     1      -1.013  -2.648  25.163  0.00  0.00    -0.243 OA
ATOM     25  O   UNL     1      -2.179  -2.823  24.356  0.00  0.00    -0.243 OA
ENDBRANCH  22  23
ENDBRANCH  21  22
ENDBRANCH  20  21
ENDBRANCH  18  20
BRANCH  14  26
ATOM     26  N   UNL     1      -4.018   2.545  24.123  0.00  0.00    -0.079 NA
BRANCH  26  27
ATOM     27  S   UNL     1      -4.660   2.491  24.636  0.00  0.00    +0.082 S 
ATOM     28  O   UNL     1      -4.358   3.119  25.080  0.00  0.00    -0.151 OA
ATOM     29  O   UNL     1      -4.962   1.864  24.193  0.00  0.00    -0.151 OA
BRANCH  27  30
ATOM     30  C   UNL     1      -5.305   2.437  25.150  0.00  0.00    +0.153 A 
ATOM     31  C   UNL     1      -5.915   1.886  25.105  0.00  0.00    +0.027 A 
ATOM     32  C   UNL     1      -6.438   2.034  25.726  0.00  0.00    +0.009 A 
ATOM     33  C   UNL     1      -6.150   2.677  26.155  0.00  0.00    +0.037 A 
ATOM     34  S   UNL     1      -5.449   2.927  25.799  0.00  0.00    -0.067 S 
ENDBRANCH  27  30
ENDBRANCH  26  27
ENDBRANCH  14  26
TORSDOF 10
ENDMDL
