MODEL 1
REMARK VINA RESULT:      -9.2      0.000      0.000
REMARK  Name = 
REMARK  3 active torsions:
REMARK  status: ('A' for Active; 'I' for Inactive)
REMARK    1  A    between atoms: C_2  and  C_17
REMARK    2  A    between atoms: C_8  and  O_10
REMARK    3  A    between atoms: O_10  and  C_11
REMARK                            x       y       z     vdW  Elec       q    Type
REMARK                         _______ _______ _______ _____ _____    ______ ____
ROOT
ATOM      1  O   UNL     1      -5.044   1.489  24.979  0.00  0.00    -0.268 OA
ATOM      2  C   UNL     1      -4.255   1.714  24.882  0.00  0.00    +0.268 C 
ATOM      3  N   UNL     1      -3.654   1.156  24.965  0.00  0.00    -0.268 N 
ATOM      4  C   UNL     1      -2.886   1.438  24.858  0.00  0.00    +0.126 C 
ATOM      5  C   UNL     1      -2.175   1.023  24.903  0.00  0.00    +0.164 C 
ATOM      6  O   UNL     1      -2.054   0.223  25.066  0.00  0.00    -0.348 OA
ATOM      7  C   UNL     1      -2.617  -0.360  25.225  0.00  0.00    +0.187 C 
ATOM      8  C   UNL     1      -3.438  -0.286  25.259  0.00  0.00    +0.215 C 
ATOM      9  C   UNL     1      -3.900   0.389  25.144  0.00  0.00    +0.140 C 
ENDROOT
BRANCH   2  17
ATOM     17  C   UNL     1      -4.069   2.498  24.704  0.00  0.00    +0.154 A 
ATOM     18  C   UNL     1      -4.039   2.746  23.918  0.00  0.00    +0.123 A 
ATOM     19  N   UNL     1      -3.853   3.529  23.740  0.00  0.00    -0.239 NA
ATOM     20  C   UNL     1      -3.698   4.065  24.348  0.00  0.00    +0.120 A 
ATOM     21  C   UNL     1      -3.728   3.817  25.133  0.00  0.00    +0.120 A 
ATOM     22  N   UNL     1      -3.914   3.033  25.312  0.00  0.00    -0.236 NA
ENDBRANCH   2  17
BRANCH   8  10
ATOM     10  O   UNL     1      -3.853  -0.978  25.432  0.00  0.00    -0.473 OA
BRANCH  10  11
ATOM     11  C   UNL     1      -3.830  -1.615  24.908  0.00  0.00    +0.158 A 
ATOM     12  C   UNL     1      -3.380  -2.282  25.088  0.00  0.00    +0.040 A 
ATOM     13  C   UNL     1      -3.358  -2.919  24.564  0.00  0.00    +0.024 A 
ATOM     14  C   UNL     1      -3.786  -2.887  23.858  0.00  0.00    +0.099 A 
ATOM     15  N   UNL     1      -4.235  -2.219  23.678  0.00  0.00    -0.239 NA
ATOM     16  C   UNL     1      -4.257  -1.583  24.203  0.00  0.00    +0.136 A 
ENDBRANCH  10  11
ENDBRANCH   8  10
TORSDOF 3
ENDMDL
MODEL 2
REMARK VINA RESULT:      -9.1      1.177      4.465
REMARK  Name = 
REMARK  3 active torsions:
REMARK  status: ('A' for Active; 'I' for Inactive)
REMARK    1  A    between atoms: C_2  and  C_17
REMARK    2  A    between atoms: C_8  and  O_10
REMARK    3  A    between atoms: O_10  and  C_11
REMARK                            x       y       z     vdW  Elec       q    Type
REMARK                         _______ _______ _______ _____ _____    ______ ____
ROOT
ATOM      1  O   UNL     1      -4.671   0.445  24.782  0.00  0.00    -0.268 OA
ATOM      2  C   UNL     1      -3.927   0.107  24.659  0.00  0.00    +0.268 C 
ATOM      3  N   UNL     1      -3.282   0.586  24.472  0.00  0.00    -0.268 N 
ATOM      4  C   UNL     1      -2.565   0.194  24.360  0.00  0.00    +0.126 C 
ATOM      5  C   UNL     1      -1.829   0.513  24.170  0.00  0.00    +0.164 C 
ATOM      6  O   UNL     1      -1.626   1.303  24.045  0.00  0.00    -0.348 OA
ATOM      7  C   UNL     1      -2.112   1.970  24.078  0.00  0.00    +0.187 C 
ATOM      8  C   UNL     1      -2.919   2.010  24.246  0.00  0.00    +0.215 C 
ATOM      9  C   UNL     1      -3.440   1.394  24.421  0.00  0.00    +0.140 C 
ENDROOT
BRANCH   2  17
ATOM     17  C   UNL     1      -3.830  -0.709  24.723  0.00  0.00    +0.154 A 
ATOM     18  C   UNL     1      -3.607  -1.043  25.444  0.00  0.00    +0.123 A 
ATOM     19  N   UNL     1      -3.510  -1.860  25.509  0.00  0.00    -0.239 NA
ATOM     20  C   UNL     1      -3.635  -2.342  24.852  0.00  0.00    +0.120 A 
ATOM     21  C   UNL     1      -3.858  -2.009  24.131  0.00  0.00    +0.120 A 
ATOM     22  N   UNL     1      -3.955  -1.192  24.066  0.00  0.00    -0.236 NA
ENDBRANCH   2  17
BRANCH   8  10
ATOM     10  O   UNL     1      -3.248   2.767  24.237  0.00  0.00    -0.473 OA
BRANCH  10  11
ATOM     11  C   UNL     1      -3.116   3.282  24.868  0.00  0.00    +0.158 A 
ATOM     12  C   UNL     1      -2.416   3.718  24.904  0.00  0.00    +0.040 A 
ATOM     13  C   UNL     1      -2.284   4.233  25.535  0.00  0.00    +0.024 A 
ATOM     14  C   UNL     1      -2.852   4.312  26.129  0.00  0.00    +0.099 A 
ATOM     15  N   UNL     1      -3.551   3.876  26.092  0.00  0.00    -0.239 NA
ATOM     16  C   UNL     1      -3.683   3.361  25.461  0.00  0.00    +0.136 A 
ENDBRANCH  10  11
ENDBRANCH   8  10
TORSDOF 3
ENDMDL
MODEL 3
REMARK VINA RESULT:      -9.0      1.688      1.944
REMARK  Name = 
REMARK  3 active torsions:
REMARK  status: ('A' for Active; 'I' for Inactive)
REMARK    1  A    between atoms: C_2  and  C_17
REMARK    2  A    between atoms: C_8  and  O_10
REMARK    3  A    between atoms: O_10  and  C_11
REMARK                            x       y       z     vdW  Elec       q    Type
REMARK                         _______ _______ _______ _____ _____    ______ ____
ROOT
ATOM      1  O   UNL     1      -3.001   1.717  25.127  0.00  0.00    -0.268 OA
ATOM      2  C   UNL     1      -2.200   1.532  25.047  0.00  0.00    +0.268 C 
ATOM      3  N   UNL     1      -1.948   0.751  25.128  0.00  0.00    -0.268 N 
ATOM      4  C   UNL     1      -1.137   0.626  25.037  0.00  0.00    +0.126 C 
ATOM      5  C   UNL     1      -0.718  -0.083  25.085  0.00  0.00    +0.164 C 
ATOM      6  O   UNL     1      -1.004  -0.842  25.236  0.00  0.00    -0.348 OA
ATOM      7  C   UNL     1      -1.783  -1.079  25.376  0.00  0.00    +0.187 C 
ATOM      8  C   UNL     1      -2.465  -0.616  25.400  0.00  0.00    +0.215 C 
ATOM      9  C   UNL     1      -2.539   0.198  25.289  0.00  0.00    +0.140 C 
ENDROOT
BRANCH   2  17
ATOM     17  C   UNL     1      -1.654   2.128  24.885  0.00  0.00    +0.154 A 
ATOM     18  C   UNL     1      -1.485   2.332  24.104  0.00  0.00    +0.123 A 
ATOM     19  N   UNL     1      -0.938   2.928  23.942  0.00  0.00    -0.239 NA
ATOM     20  C   UNL     1      -0.561   3.320  24.562  0.00  0.00    +0.120 A 
ATOM     21  C   UNL     1      -0.729   3.116  25.343  0.00  0.00    +0.120 A 
ATOM     22  N   UNL     1      -1.276   2.520  25.505  0.00  0.00    -0.236 NA
ENDBRANCH   2  17
BRANCH   8  10
ATOM     10  O   UNL     1      -3.167  -1.022  25.554  0.00  0.00    -0.473 OA
BRANCH  10  11
ATOM     11  C   UNL     1      -3.480  -1.535  24.990  0.00  0.00    +0.158 A 
ATOM     12  C   UNL     1      -3.984  -1.246  24.404  0.00  0.00    +0.040 A 
ATOM     13  C   UNL     1      -4.297  -1.759  23.839  0.00  0.00    +0.024 A 
ATOM     14  C   UNL     1      -4.106  -2.562  23.860  0.00  0.00    +0.099 A 
ATOM     15  N   UNL     1      -3.602  -2.850  24.446  0.00  0.00    -0.239 NA
ATOM     16  C   UNL     1      -3.289  -2.337  25.010  0.00  0.00    +0.136 A 
ENDBRANCH  10  11
ENDBRANCH   8  10
TORSDOF 3
ENDMDL
MODEL 4
REMARK VINA RESULT:      -8.9      1.835      4.242
REMARK  Name = 
REMARK  3 active torsions:
REMARK  status: ('A' for Active; 'I' for Inactive)
REMARK    1  A    between atoms: C_2  and  C_17
REMARK    2  A    between atoms: C_8  and  O_10
REMARK    3  A    between atoms: O_10  and  C_11
REMARK                            x       y       z     vdW  Elec       q    Type
REMARK                         _______ _______ _______ _____ _____    ______ ____
ROOT
ATOM      1  O   UNL     1      -3.075  -0.274  24.240  0.00  0.00    -0.268 OA
ATOM      2  C   UNL     1      -2.405   0.078  24.571  0.00  0.00    +0.268 C 
ATOM      3  N   UNL     1      -2.376   0.896  24.668  0.00  0.00    -0.268 N 
ATOM      4  C   UNL     1      -1.682   1.192  25.004  0.00  0.00    +0.126 C 
ATOM      5  C   UNL     1      -1.485   1.976  25.171  0.00  0.00    +0.164 C 
ATOM      6  O   UNL     1      -1.933   2.657  25.045  0.00  0.00    -0.348 OA
ATOM      7  C   UNL     1      -2.689   2.723  24.719  0.00  0.00    +0.187 C 
ATOM      8  C   UNL     1      -3.182   2.124  24.441  0.00  0.00    +0.215 C 
ATOM      9  C   UNL     1      -3.043   1.311  24.418  0.00  0.00    +0.140 C 
ENDROOT
BRANCH   2  17
ATOM     17  C   UNL     1      -1.766  -0.389  24.803  0.00  0.00    +0.154 A 
ATOM     18  C   UNL     1      -1.748  -0.717  25.560  0.00  0.00    +0.123 A 
ATOM     19  N   UNL     1      -1.109  -1.184  25.792  0.00  0.00    -0.239 NA
ATOM     20  C   UNL     1      -0.488  -1.322  25.268  0.00  0.00    +0.120 A 
ATOM     21  C   UNL     1      -0.506  -0.995  24.511  0.00  0.00    +0.120 A 
ATOM     22  N   UNL     1      -1.145  -0.528  24.279  0.00  0.00    -0.236 NA
ENDBRANCH   2  17
BRANCH   8  10
ATOM     10  O   UNL     1      -3.912   2.371  24.145  0.00  0.00    -0.473 OA
BRANCH  10  11
ATOM     11  C   UNL     1      -4.517   2.584  24.665  0.00  0.00    +0.158 A 
ATOM     12  C   UNL     1      -5.109   2.040  24.851  0.00  0.00    +0.040 A 
ATOM     13  C   UNL     1      -5.714   2.252  25.371  0.00  0.00    +0.024 A 
ATOM     14  C   UNL     1      -5.727   3.008  25.703  0.00  0.00    +0.099 A 
ATOM     15  N   UNL     1      -5.135   3.550  25.516  0.00  0.00    -0.239 NA
ATOM     16  C   UNL     1      -4.530   3.338  24.996  0.00  0.00    +0.136 A 
ENDBRANCH  10  11
ENDBRANCH   8  10
TORSDOF 3
ENDMDL
