MODEL 1
REMARK VINA RESULT:     -14.5      0.000      0.000
REMARK  Name = 
REMARK  5 active torsions:
REMARK  status: ('A' for Active; 'I' for Inactive)
REMARK    1  A    between atoms: C_2  and  C_3
REMARK    2  A    between atoms: C_3  and  S_4
REMARK    3  A    between atoms: S_4  and  N_7
REMARK    4  A    between atoms: C_16  and  C_17
REMARK    5  A    between atoms: C_18  and  C_19
REMARK                            x       y       z     vdW  Elec       q    Type
REMARK                         _______ _______ _______ _____ _____    ______ ____
ROOT
ATOM      7  N   UNL     1      -3.340   3.181  24.815  0.00  0.00    -0.159 NA
ATOM      8  C   UNL     1      -3.523   3.985  24.949  0.00  0.00    +0.097 C 
ATOM      9  C   UNL     1      -4.468   3.896  25.223  0.00  0.00    +0.041 C 
ATOM     10  C   UNL     1      -5.241   3.993  25.464  0.00  0.00    +0.011 C 
ATOM     11  C   UNL     1      -4.815   3.464  25.284  0.00  0.00    +0.056 C 
ATOM     12  C   UNL     1      -3.903   3.566  25.021  0.00  0.00    +0.101 C 
ATOM     13  C   UNL     1      -4.802   2.550  25.189  0.00  0.00    +0.041 A 
ATOM     14  C   UNL     1      -5.290   1.890  25.270  0.00  0.00    +0.013 A 
ATOM     15  C   UNL     1      -4.996   1.137  25.107  0.00  0.00    +0.006 A 
ATOM     16  C   UNL     1      -4.213   1.044  24.863  0.00  0.00    +0.056 A 
ATOM     26  C   UNL     1      -3.725   1.703  24.783  0.00  0.00    +0.261 A 
ATOM     27  O   UNL     1      -2.942   1.610  24.539  0.00  0.00    -0.267 OA
ATOM     28  N   UNL     1      -4.019   2.457  24.945  0.00  0.00    -0.299 N 
ATOM     29  C   UNL     1      -4.445   2.942  25.121  0.00  0.00    +0.110 C 
ENDROOT
BRANCH   7   4
ATOM      4  S   UNL     1      -2.894   2.516  24.615  0.00  0.00    +0.044 S 
ATOM      5  O   UNL     1      -3.416   2.351  23.997  0.00  0.00    -0.157 OA
ATOM      6  O   UNL     1      -2.447   1.852  24.415  0.00  0.00    -0.157 OA
BRANCH   4   3
ATOM      3  C   UNL     1      -2.372   2.682  25.232  0.00  0.00    +0.169 C 
BRANCH   3   2
ATOM      1  C   UNL     1      -1.035   2.788  25.726  0.00  0.00    +0.002 C 
ATOM      2  C   UNL     1      -1.560   2.580  25.124  0.00  0.00    +0.027 C 
ENDBRANCH   3   2
ENDBRANCH   4   3
ENDBRANCH   7   4
BRANCH  16  17
ATOM     17  C   UNL     1      -3.920   0.290  24.700  0.00  0.00    +0.005 C 
ATOM     18  C   UNL     1      -4.354  -0.377  24.914  0.00  0.00    +0.000 C 
BRANCH  18  19
ATOM     19  C   UNL     1      -4.060  -1.131  24.751  0.00  0.00    +0.000 A 
ATOM     20  C   UNL     1      -3.570  -1.509  25.297  0.00  0.00    +0.001 A 
ATOM     21  C   UNL     1      -3.275  -2.263  25.134  0.00  0.00    +0.011 A 
ATOM     22  C   UNL     1      -3.472  -2.638  24.425  0.00  0.00    +0.058 A 
ATOM     23 CL   UNL     1      -3.178  -3.391  24.263  0.00  0.00    -0.082 Cl
ATOM     24  C   UNL     1      -3.962  -2.260  23.881  0.00  0.00    +0.011 A 
ATOM     25  C   UNL     1      -4.256  -1.506  24.043  0.00  0.00    +0.001 A 
ENDBRANCH  18  19
ENDBRANCH  16  17
TORSDOF 5
ENDMDL
MODEL 2
REMARK VINA RESULT:     -13.9      2.346      4.571
REMARK  Name = 
REMARK  5 active torsions:
REMARK  status: ('A' for Active; 'I' for Inactive)
REMARK    1  A    between atoms: C_2  and  C_3
REMARK    2  A    between atoms: C_3  and  S_4
REMARK    3  A    between atoms: S_4  and  N_7
REMARK    4  A    between atoms: C_16  and  C_17
REMARK    5  A    between atoms: C_18  and  C_19
REMARK                            x       y       z     vdW  Elec       q    Type
REMARK                         _______ _______ _______ _____ _____    ______ ____
ROOT
ATOM      7  N   UNL     1      -2.084  -1.590  24.956  0.00  0.00    -0.159 NA
ATOM      8  C   UNL     1      -1.838  -2.375  24.808  0.00  0.00    +0.097 C 
ATOM      9  C   UNL     1      -2.674  -2.742  24.428  0.00  0.00    +0.041 C 
ATOM     10  C   UNL     1      -3.272  -3.188  24.103  0.00  0.00    +0.011 C 
ATOM     11  C   UNL     1      -3.178  -2.529  24.325  0.00  0.00    +0.056 C 
ATOM     12  C   UNL     1      -2.364  -2.189  24.690  0.00  0.00    +0.101 C 
ATOM     13  C   UNL     1      -3.620  -1.728  24.413  0.00  0.00    +0.041 A 
ATOM     14  C   UNL     1      -4.357  -1.384  24.272  0.00  0.00    +0.013 A 
ATOM     15  C   UNL     1      -4.484  -0.591  24.460  0.00  0.00    +0.006 A 
ATOM     16  C   UNL     1      -3.875  -0.142  24.790  0.00  0.00    +0.056 A 
ATOM     26  C   UNL     1      -3.139  -0.486  24.931  0.00  0.00    +0.261 A 
ATOM     27  O   UNL     1      -2.530  -0.037  25.261  0.00  0.00    -0.267 OA
ATOM     28  N   UNL     1      -3.012  -1.279  24.743  0.00  0.00    -0.299 N 
ATOM     29  C   UNL     1      -3.127  -1.901  24.524  0.00  0.00    +0.110 C 
ENDROOT
BRANCH   7   4
ATOM      4  S   UNL     1      -2.040  -0.803  25.199  0.00  0.00    +0.044 S 
ATOM      5  O   UNL     1      -2.625  -0.945  25.764  0.00  0.00    -0.157 OA
ATOM      6  O   UNL     1      -1.996  -0.015  25.443  0.00  0.00    -0.157 OA
BRANCH   4   3
ATOM      3  C   UNL     1      -1.455  -0.661  24.635  0.00  0.00    +0.169 C 
BRANCH   3   2
ATOM      1  C   UNL     1      -0.227  -0.038  24.255  0.00  0.00    +0.002 C 
ATOM      2  C   UNL     1      -0.807  -0.188  24.823  0.00  0.00    +0.027 C 
ENDBRANCH   3   2
ENDBRANCH   4   3
ENDBRANCH   7   4
BRANCH  16  17
ATOM     17  C   UNL     1      -4.003   0.651  24.979  0.00  0.00    +0.005 C 
ATOM     18  C   UNL     1      -4.708   1.019  24.758  0.00  0.00    +0.000 C 
BRANCH  18  19
ATOM     19  C   UNL     1      -4.835   1.812  24.947  0.00  0.00    +0.000 A 
ATOM     20  C   UNL     1      -5.373   2.013  25.539  0.00  0.00    +0.001 A 
ATOM     21  C   UNL     1      -5.501   2.807  25.728  0.00  0.00    +0.011 A 
ATOM     22  C   UNL     1      -5.091   3.398  25.324  0.00  0.00    +0.058 A 
ATOM     23 CL   UNL     1      -5.219   4.191  25.513  0.00  0.00    -0.082 Cl
ATOM     24  C   UNL     1      -4.553   3.196  24.733  0.00  0.00    +0.011 A 
ATOM     25  C   UNL     1      -4.425   2.404  24.544  0.00  0.00    +0.001 A 
ENDBRANCH  18  19
ENDBRANCH  16  17
TORSDOF 5
ENDMDL
MODEL 3
REMARK VINA RESULT:     -13.4      0.946      2.192
REMARK  Name = 
REMARK  5 active torsions:
REMARK  status: ('A' for Active; 'I' for Inactive)
REMARK    1  A    between atoms: C_2  and  C_3
REMARK    2  A    between atoms: C_3  and  S_4
REMARK    3  A    between atoms: S_4  and  N_7
REMARK    4  A    between atoms: C_16  and  C_17
REMARK    5  A    between atoms: C_18  and  C_19
REMARK                            x       y       z     vdW  Elec       q    Type
REMARK                         _______ _______ _______ _____ _____    ______ ____
ROOT
ATOM      7  N   UNL     1      -3.219   3.427  24.766  0.00  0.00    -0.159 NA
ATOM      8  C   UNL     1      -3.022   4.235  24.848  0.00  0.00    +0.097 C 
ATOM      9  C   UNL     1      -2.084   4.147  25.147  0.00  0.00    +0.041 C 
ATOM     10  C   UNL     1      -1.315   4.244  25.396  0.00  0.00    +0.011 C 
ATOM     11  C   UNL     1      -1.748   3.713  25.245  0.00  0.00    +0.056 C 
ATOM     12  C   UNL     1      -2.653   3.814  24.957  0.00  0.00    +0.101 C 
ATOM     13  C   UNL     1      -1.779   2.795  25.213  0.00  0.00    +0.041 A 
ATOM     14  C   UNL     1      -1.307   2.133  25.349  0.00  0.00    +0.013 A 
ATOM     15  C   UNL     1      -1.614   1.376  25.233  0.00  0.00    +0.006 A 
ATOM     16  C   UNL     1      -2.394   1.281  24.981  0.00  0.00    +0.056 A 
ATOM     26  C   UNL     1      -2.867   1.943  24.845  0.00  0.00    +0.261 A 
ATOM     27  O   UNL     1      -3.647   1.849  24.593  0.00  0.00    -0.267 OA
ATOM     28  N   UNL     1      -2.559   2.700  24.961  0.00  0.00    -0.299 N 
ATOM     29  C   UNL     1      -2.126   3.188  25.111  0.00  0.00    +0.110 C 
ENDROOT
BRANCH   7   4
ATOM      4  S   UNL     1      -3.676   2.759  24.604  0.00  0.00    +0.044 S 
ATOM      5  O   UNL     1      -3.147   2.542  24.009  0.00  0.00    -0.157 OA
ATOM      6  O   UNL     1      -4.133   2.091  24.442  0.00  0.00    -0.157 OA
BRANCH   4   3
ATOM      3  C   UNL     1      -4.205   2.977  25.199  0.00  0.00    +0.169 C 
BRANCH   3   2
ATOM      1  C   UNL     1      -5.546   3.101  25.679  0.00  0.00    +0.002 C 
ATOM      2  C   UNL     1      -5.016   2.876  25.087  0.00  0.00    +0.027 C 
ENDBRANCH   3   2
ENDBRANCH   4   3
ENDBRANCH   7   4
BRANCH  16  17
ATOM     17  C   UNL     1      -2.700   0.524  24.865  0.00  0.00    +0.005 C 
ATOM     18  C   UNL     1      -2.319  -0.130  25.192  0.00  0.00    +0.000 C 
BRANCH  18  19
ATOM     19  C   UNL     1      -2.626  -0.888  25.076  0.00  0.00    +0.000 A 
ATOM     20  C   UNL     1      -2.295  -1.383  24.506  0.00  0.00    +0.001 A 
ATOM     21  C   UNL     1      -2.602  -2.141  24.390  0.00  0.00    +0.011 A 
ATOM     22  C   UNL     1      -3.240  -2.401  24.844  0.00  0.00    +0.058 A 
ATOM     23 CL   UNL     1      -3.547  -3.158  24.728  0.00  0.00    -0.082 Cl
ATOM     24  C   UNL     1      -3.571  -1.905  25.413  0.00  0.00    +0.011 A 
ATOM     25  C   UNL     1      -3.264  -1.148  25.529  0.00  0.00    +0.001 A 
ENDBRANCH  18  19
ENDBRANCH  16  17
TORSDOF 5
ENDMDL
MODEL 4
REMARK VINA RESULT:     -13.1      2.278      4.709
REMARK  Name = 
REMARK  5 active torsions:
REMARK  status: ('A' for Active; 'I' for Inactive)
REMARK    1  A    between atoms: C_2  and  C_3
REMARK    2  A    between atoms: C_3  and  S_4
REMARK    3  A    between atoms: S_4  and  N_7
REMARK    4  A    between atoms: C_16  and  C_17
REMARK    5  A    between atoms: C_18  and  C_19
REMARK                            x       y       z     vdW  Elec       q    Type
REMARK                         _______ _______ _______ _____ _____    ______ ____
ROOT
ATOM      7  N   UNL     1      -4.121  -0.063  24.531  0.00  0.00    -0.159 NA
ATOM      8  C   UNL     1      -4.387  -0.853  24.574  0.00  0.00    +0.097 C 
ATOM      9  C   UNL     1      -3.577  -1.281  24.945  0.00  0.00    +0.041 C 
ATOM     10  C   UNL     1      -3.002  -1.776  25.241  0.00  0.00    +0.011 C 
ATOM     11  C   UNL     1      -3.074  -1.093  25.094  0.00  0.00    +0.056 C 
ATOM     12  C   UNL     1      -3.864  -0.695  24.736  0.00  0.00    +0.101 C 
ATOM     13  C   UNL     1      -2.614  -0.298  25.121  0.00  0.00    +0.041 A 
ATOM     14  C   UNL     1      -1.879   0.010  25.334  0.00  0.00    +0.013 A 
ATOM     15  C   UNL     1      -1.729   0.816  25.246  0.00  0.00    +0.006 A 
ATOM     16  C   UNL     1      -2.314   1.314  24.945  0.00  0.00    +0.056 A 
ATOM     26  C   UNL     1      -3.049   1.007  24.732  0.00  0.00    +0.261 A 
ATOM     27  O   UNL     1      -3.633   1.505  24.431  0.00  0.00    -0.267 OA
ATOM     28  N   UNL     1      -3.199   0.200  24.820  0.00  0.00    -0.299 N 
ATOM     29  C   UNL     1      -3.105  -0.446  24.969  0.00  0.00    +0.110 C 
ENDROOT
BRANCH   7   4
ATOM      4  S   UNL     1      -4.139   0.749  24.381  0.00  0.00    +0.044 S 
ATOM      5  O   UNL     1      -3.539   0.659  23.821  0.00  0.00    -0.157 OA
ATOM      6  O   UNL     1      -4.158   1.560  24.231  0.00  0.00    -0.157 OA
BRANCH   4   3
ATOM      3  C   UNL     1      -4.739   0.839  24.941  0.00  0.00    +0.169 C 
BRANCH   3   2
ATOM      1  C   UNL     1      -5.915   1.511  25.395  0.00  0.00    +0.002 C 
ATOM      2  C   UNL     1      -5.343   1.386  24.814  0.00  0.00    +0.027 C 
ENDBRANCH   3   2
ENDBRANCH   4   3
ENDBRANCH   7   4
BRANCH  16  17
ATOM     17  C   UNL     1      -2.163   2.120  24.858  0.00  0.00    +0.005 C 
ATOM     18  C   UNL     1      -1.567   2.479  25.300  0.00  0.00    +0.000 C 
BRANCH  18  19
ATOM     19  C   UNL     1      -1.416   3.286  25.212  0.00  0.00    +0.000 A 
ATOM     20  C   UNL     1      -1.922   3.840  25.555  0.00  0.00    +0.001 A 
ATOM     21  C   UNL     1      -1.772   4.647  25.467  0.00  0.00    +0.011 A 
ATOM     22  C   UNL     1      -1.114   4.899  25.036  0.00  0.00    +0.058 A 
ATOM     23 CL   UNL     1      -0.964   5.705  24.948  0.00  0.00    -0.082 Cl
ATOM     24  C   UNL     1      -0.609   4.345  24.693  0.00  0.00    +0.011 A 
ATOM     25  C   UNL     1      -0.759   3.539  24.781  0.00  0.00    +0.001 A 
ENDBRANCH  18  19
ENDBRANCH  16  17
TORSDOF 5
ENDMDL
