MODEL 1
REMARK VINA RESULT:     -11.5      0.000      0.000
REMARK  Name = 
REMARK  3 active torsions:
REMARK  status: ('A' for Active; 'I' for Inactive)
REMARK    1  A    between atoms: C_3  and  N_4
REMARK    2  A    between atoms: N_7  and  C_8
REMARK    3  A    between atoms: C_19  and  N_20
REMARK                            x       y       z     vdW  Elec       q    Type
REMARK                         _______ _______ _______ _____ _____    ______ ____
ROOT
ATOM      1  O   UNL     1      -2.290   2.057  25.607  0.00  0.00    -0.220 OA
ATOM      2  C   UNL     1      -2.984   2.058  25.159  0.00  0.00    +0.194 C 
ATOM      3  C   UNL     1      -3.716   1.810  24.861  0.00  0.00    +0.158 C 
ATOM     14  C   UNL     1      -3.871   2.511  24.271  0.00  0.00    +0.170 C 
ATOM     15  C   UNL     1      -3.315   3.055  24.249  0.00  0.00    +0.176 C 
ATOM     16  O   UNL     1      -3.101   3.680  23.949  0.00  0.00    -0.327 OA
ATOM     17  C   UNL     1      -3.624   2.985  24.098  0.00  0.00    +0.253 C 
ATOM     18  O   UNL     1      -4.353   2.741  23.800  0.00  0.00    -0.327 OA
ATOM     19  C   UNL     1      -3.448   2.259  24.719  0.00  0.00    +0.147 C 
ENDROOT
BRANCH  19  20
ATOM     20  N   UNL     1      -2.827   2.802  24.740  0.00  0.00    -0.263 NA
ATOM     21  C   UNL     1      -2.849   3.434  25.270  0.00  0.00    +0.105 C 
ATOM     22  C   UNL     1      -2.227   3.977  25.290  0.00  0.00    +0.159 C 
ATOM     23  O   UNL     1      -1.585   3.887  24.781  0.00  0.00    -0.351 OA
ATOM     24  C   UNL     1      -1.563   3.255  24.251  0.00  0.00    +0.159 C 
ATOM     25  C   UNL     1      -2.184   2.713  24.231  0.00  0.00    +0.105 C 
ENDBRANCH  19  20
BRANCH   3   4
ATOM      4  N   UNL     1      -4.170   1.143  25.035  0.00  0.00    -0.183 NA
ATOM      5  C   UNL     1      -3.905   0.394  24.812  0.00  0.00    +0.344 C 
ATOM      6  O   UNL     1      -3.186   0.312  24.415  0.00  0.00    -0.249 OA
ATOM      7  N   UNL     1      -4.359  -0.272  24.986  0.00  0.00    -0.161 NA
BRANCH   7   8
ATOM      8  C   UNL     1      -4.094  -1.021  24.763  0.00  0.00    +0.075 A 
ATOM      9  C   UNL     1      -3.608  -1.454  25.270  0.00  0.00    +0.017 A 
ATOM     10  C   UNL     1      -3.343  -2.203  25.047  0.00  0.00    +0.001 A 
ATOM     11  C   UNL     1      -3.564  -2.519  24.317  0.00  0.00    +0.000 A 
ATOM     12  C   UNL     1      -4.050  -2.085  23.811  0.00  0.00    +0.001 A 
ATOM     13  C   UNL     1      -4.314  -1.337  24.034  0.00  0.00    +0.017 A 
ENDBRANCH   7   8
ENDBRANCH   3   4
TORSDOF 3
ENDMDL
MODEL 2
REMARK VINA RESULT:     -11.2      0.912      1.175
REMARK  Name = 
REMARK  3 active torsions:
REMARK  status: ('A' for Active; 'I' for Inactive)
REMARK    1  A    between atoms: C_3  and  N_4
REMARK    2  A    between atoms: N_7  and  C_8
REMARK    3  A    between atoms: C_19  and  N_20
REMARK                            x       y       z     vdW  Elec       q    Type
REMARK                         _______ _______ _______ _____ _____    ______ ____
ROOT
ATOM      1  O   UNL     1      -2.030   2.508  25.529  0.00  0.00    -0.220 OA
ATOM      2  C   UNL     1      -2.517   2.430  24.868  0.00  0.00    +0.194 C 
ATOM      3  C   UNL     1      -2.866   2.095  24.195  0.00  0.00    +0.158 C 
ATOM     14  C   UNL     1      -3.444   2.789  23.976  0.00  0.00    +0.170 C 
ATOM     15  C   UNL     1      -3.418   3.404  24.451  0.00  0.00    +0.176 C 
ATOM     16  O   UNL     1      -3.686   4.063  24.592  0.00  0.00    -0.327 OA
ATOM     17  C   UNL     1      -3.588   3.298  24.164  0.00  0.00    +0.253 C 
ATOM     18  O   UNL     1      -3.937   2.967  23.494  0.00  0.00    -0.327 OA
ATOM     19  C   UNL     1      -2.979   2.582  24.404  0.00  0.00    +0.147 C 
ENDROOT
BRANCH  19  20
ATOM     20  N   UNL     1      -2.906   3.203  24.942  0.00  0.00    -0.263 NA
ATOM     21  C   UNL     1      -3.435   3.269  25.572  0.00  0.00    +0.105 C 
ATOM     22  C   UNL     1      -3.362   3.891  26.109  0.00  0.00    +0.159 C 
ATOM     23  O   UNL     1      -2.760   4.447  26.016  0.00  0.00    -0.351 OA
ATOM     24  C   UNL     1      -2.231   4.382  25.387  0.00  0.00    +0.159 C 
ATOM     25  C   UNL     1      -2.304   3.760  24.850  0.00  0.00    +0.105 C 
ENDBRANCH  19  20
BRANCH   3   4
ATOM      4  N   UNL     1      -2.738   1.366  23.829  0.00  0.00    -0.183 NA
ATOM      5  C   UNL     1      -3.023   0.674  24.178  0.00  0.00    +0.344 C 
ATOM      6  O   UNL     1      -3.435   0.712  24.892  0.00  0.00    -0.249 OA
ATOM      7  N   UNL     1      -2.895  -0.054  23.813  0.00  0.00    -0.161 NA
BRANCH   7   8
ATOM      8  C   UNL     1      -3.179  -0.746  24.162  0.00  0.00    +0.075 A 
ATOM      9  C   UNL     1      -3.916  -1.045  23.943  0.00  0.00    +0.017 A 
ATOM     10  C   UNL     1      -4.201  -1.737  24.292  0.00  0.00    +0.001 A 
ATOM     11  C   UNL     1      -3.748  -2.129  24.859  0.00  0.00    +0.000 A 
ATOM     12  C   UNL     1      -3.012  -1.829  25.078  0.00  0.00    +0.001 A 
ATOM     13  C   UNL     1      -2.727  -1.138  24.730  0.00  0.00    +0.017 A 
ENDBRANCH   7   8
ENDBRANCH   3   4
TORSDOF 3
ENDMDL
MODEL 3
REMARK VINA RESULT:     -10.7      1.453      2.170
REMARK  Name = 
REMARK  3 active torsions:
REMARK  status: ('A' for Active; 'I' for Inactive)
REMARK    1  A    between atoms: C_3  and  N_4
REMARK    2  A    between atoms: N_7  and  C_8
REMARK    3  A    between atoms: C_19  and  N_20
REMARK                            x       y       z     vdW  Elec       q    Type
REMARK                         _______ _______ _______ _____ _____    ______ ____
ROOT
ATOM      1  O   UNL     1      -2.202   3.032  24.188  0.00  0.00    -0.220 OA
ATOM      2  C   UNL     1      -1.736   2.513  24.629  0.00  0.00    +0.194 C 
ATOM      3  C   UNL     1      -1.370   1.809  24.867  0.00  0.00    +0.158 C 
ATOM     14  C   UNL     1      -0.911   2.133  25.607  0.00  0.00    +0.170 C 
ATOM     15  C   UNL     1      -1.009   2.891  25.752  0.00  0.00    +0.176 C 
ATOM     16  O   UNL     1      -0.836   3.444  26.189  0.00  0.00    -0.327 OA
ATOM     17  C   UNL     1      -0.837   2.616  25.885  0.00  0.00    +0.253 C 
ATOM     18  O   UNL     1      -0.471   1.916  26.124  0.00  0.00    -0.327 OA
ATOM     19  C   UNL     1      -1.322   2.291  25.109  0.00  0.00    +0.147 C 
ENDROOT
BRANCH  19  20
ATOM     20  N   UNL     1      -1.464   3.097  25.211  0.00  0.00    -0.263 NA
ATOM     21  C   UNL     1      -2.107   3.349  25.663  0.00  0.00    +0.105 C 
ATOM     22  C   UNL     1      -2.250   4.155  25.766  0.00  0.00    +0.159 C 
ATOM     23  O   UNL     1      -1.749   4.710  25.416  0.00  0.00    -0.351 OA
ATOM     24  C   UNL     1      -1.107   4.459  24.964  0.00  0.00    +0.159 C 
ATOM     25  C   UNL     1      -0.964   3.653  24.862  0.00  0.00    +0.105 C 
ENDBRANCH  19  20
BRANCH   3   4
ATOM      4  N   UNL     1      -1.403   1.049  24.545  0.00  0.00    -0.183 NA
ATOM      5  C   UNL     1      -2.060   0.571  24.683  0.00  0.00    +0.344 C 
ATOM      6  O   UNL     1      -2.685   0.851  25.144  0.00  0.00    -0.249 OA
ATOM      7  N   UNL     1      -2.093  -0.188  24.361  0.00  0.00    -0.161 NA
BRANCH   7   8
ATOM      8  C   UNL     1      -2.751  -0.666  24.500  0.00  0.00    +0.075 A 
ATOM      9  C   UNL     1      -3.400  -0.632  23.992  0.00  0.00    +0.017 A 
ATOM     10  C   UNL     1      -4.058  -1.110  24.131  0.00  0.00    +0.001 A 
ATOM     11  C   UNL     1      -4.066  -1.624  24.777  0.00  0.00    +0.000 A 
ATOM     12  C   UNL     1      -3.416  -1.658  25.284  0.00  0.00    +0.001 A 
ATOM     13  C   UNL     1      -2.759  -1.180  25.146  0.00  0.00    +0.017 A 
ENDBRANCH   7   8
ENDBRANCH   3   4
TORSDOF 3
ENDMDL
