MODEL 1
REMARK VINA RESULT:      -9.8      0.000      0.000
REMARK  Name = 
REMARK  8 active torsions:
REMARK  status: ('A' for Active; 'I' for Inactive)
REMARK    1  A    between atoms: N_2  and  C_4
REMARK    2  A    between atoms: C_4  and  C_5
REMARK    3  A    between atoms: C_5  and  N_6
REMARK    4  A    between atoms: C_7  and  C_9
REMARK    5  A    between atoms: C_9  and  C_10
REMARK    6  A    between atoms: C_12  and  C_13
REMARK    7  A    between atoms: C_13  and  N_14
REMARK    8  A    between atoms: C_15  and  C_17
REMARK                            x       y       z     vdW  Elec       q    Type
REMARK                         _______ _______ _______ _____ _____    ______ ____
ROOT
ATOM     10  C   UNL     1      -4.762   2.904  25.460  0.00  0.00    +0.157 C 
ATOM     11  O   UNL     1      -4.429   2.211  25.163  0.00  0.00    -0.351 OA
ATOM     12  C   UNL     1      -5.029   1.650  25.092  0.00  0.00    +0.170 C 
ATOM     26  C   UNL     1      -5.734   1.996  25.345  0.00  0.00    +0.213 C 
ATOM     27  O   UNL     1      -6.472   1.631  25.368  0.00  0.00    -0.218 OA
ATOM     28  C   UNL     1      -5.568   2.772  25.573  0.00  0.00    +0.212 C 
ATOM     29  O   UNL     1      -6.114   3.318  25.863  0.00  0.00    -0.218 OA
ENDROOT
BRANCH  10   9
ATOM      9  C   UNL     1      -4.360   3.608  25.617  0.00  0.00    +0.119 C 
BRANCH   9   7
ATOM      6  N   UNL     1      -2.954   3.853  25.535  0.00  0.00    -0.204 NA
ATOM      7  C   UNL     1      -3.695   3.810  25.172  0.00  0.00    +0.244 C 
ATOM      8  O   UNL     1      -3.770   3.968  24.366  0.00  0.00    -0.273 OA
BRANCH   6   5
ATOM      5  C   UNL     1      -2.290   4.055  25.090  0.00  0.00    +0.132 C 
BRANCH   5   4
ATOM      4  C   UNL     1      -1.562   4.168  25.465  0.00  0.00    +0.096 C 
BRANCH   4   2
ATOM      1  C   UNL     1      -0.441   3.575  24.807  0.00  0.00    +0.090 C 
ATOM      2  N   UNL     1      -0.875   4.246  25.015  0.00  0.00    -0.269 NA
ATOM      3  C   UNL     1      -0.622   4.993  24.773  0.00  0.00    +0.090 C 
ENDBRANCH   4   2
ENDBRANCH   5   4
ENDBRANCH   6   5
ENDBRANCH   9   7
ENDBRANCH  10   9
BRANCH  12  13
ATOM     13  C   UNL     1      -4.940   0.877  24.816  0.00  0.00    +0.148 C 
BRANCH  13  14
ATOM     14  N   UNL     1      -4.245   0.461  24.969  0.00  0.00    -0.199 NA
ATOM     15  C   UNL     1      -4.121  -0.278  24.624  0.00  0.00    +0.265 C 
ATOM     16  O   UNL     1      -4.694  -0.601  24.125  0.00  0.00    -0.268 OA
BRANCH  15  17
ATOM     17  C   UNL     1      -3.426  -0.694  24.777  0.00  0.00    +0.058 A 
ATOM     18  C   UNL     1      -3.453  -1.401  25.202  0.00  0.00    +0.008 A 
ATOM     19  C   UNL     1      -2.756  -1.817  25.355  0.00  0.00    +0.040 A 
ATOM     20  C   UNL     1      -2.034  -1.526  25.083  0.00  0.00    +0.176 A 
ATOM     21  O   UNL     1      -1.264  -1.814  25.149  0.00  0.00    -0.435 OA
ATOM     22  C   UNL     1      -0.760  -1.284  24.765  0.00  0.00    +0.429 C 
ATOM     23  O   UNL     1      -1.220  -0.670  24.462  0.00  0.00    -0.435 OA
ATOM     24  C   UNL     1      -2.007  -0.819  24.658  0.00  0.00    +0.177 A 
ATOM     25  C   UNL     1      -2.703  -0.404  24.505  0.00  0.00    +0.045 A 
ENDBRANCH  15  17
ENDBRANCH  13  14
ENDBRANCH  12  13
TORSDOF 8
ENDMDL
MODEL 2
REMARK VINA RESULT:      -9.5      1.799      3.042
REMARK  Name = 
REMARK  8 active torsions:
REMARK  status: ('A' for Active; 'I' for Inactive)
REMARK    1  A    between atoms: N_2  and  C_4
REMARK    2  A    between atoms: C_4  and  C_5
REMARK    3  A    between atoms: C_5  and  N_6
REMARK    4  A    between atoms: C_7  and  C_9
REMARK    5  A    between atoms: C_9  and  C_10
REMARK    6  A    between atoms: C_12  and  C_13
REMARK    7  A    between atoms: C_13  and  N_14
REMARK    8  A    between atoms: C_15  and  C_17
REMARK                            x       y       z     vdW  Elec       q    Type
REMARK                         _______ _______ _______ _____ _____    ______ ____
ROOT
ATOM     10  C   UNL     1      -1.923   2.960  24.966  0.00  0.00    +0.157 C 
ATOM     11  O   UNL     1      -2.357   2.259  24.970  0.00  0.00    -0.351 OA
ATOM     12  C   UNL     1      -3.156   2.455  25.020  0.00  0.00    +0.170 C 
ATOM     26  C   UNL     1      -3.217   3.278  25.047  0.00  0.00    +0.213 C 
ATOM     27  O   UNL     1      -3.915   3.712  25.098  0.00  0.00    -0.218 OA
ATOM     28  C   UNL     1      -2.453   3.590  25.013  0.00  0.00    +0.212 C 
ATOM     29  O   UNL     1      -2.256   4.390  25.026  0.00  0.00    -0.218 OA
ENDROOT
BRANCH  10   9
ATOM      9  C   UNL     1      -1.100   3.021  24.922  0.00  0.00    +0.119 C 
BRANCH   9   7
ATOM      6  N   UNL     1      -0.450   1.982  24.188  0.00  0.00    -0.204 NA
ATOM      7  C   UNL     1      -0.637   2.339  24.908  0.00  0.00    +0.244 C 
ATOM      8  O   UNL     1      -0.361   2.013  25.614  0.00  0.00    -0.273 OA
BRANCH   6   5
ATOM      5  C   UNL     1       0.013   1.299  24.174  0.00  0.00    +0.132 C 
BRANCH   5   4
ATOM      4  C   UNL     1       0.051   0.840  23.489  0.00  0.00    +0.096 C 
BRANCH   4   2
ATOM      1  C   UNL     1       1.173   0.008  23.190  0.00  0.00    +0.090 C 
ATOM      2  N   UNL     1       0.417   0.101  23.508  0.00  0.00    -0.269 NA
ATOM      3  C   UNL     1       0.028  -0.544  23.844  0.00  0.00    +0.090 C 
ENDBRANCH   4   2
ENDBRANCH   5   4
ENDBRANCH   6   5
ENDBRANCH   9   7
ENDBRANCH  10   9
BRANCH  12  13
ATOM     13  C   UNL     1      -3.787   1.923  25.040  0.00  0.00    +0.148 C 
BRANCH  13  14
ATOM     14  N   UNL     1      -3.665   1.132  24.841  0.00  0.00    -0.199 NA
ATOM     15  C   UNL     1      -4.263   0.578  24.965  0.00  0.00    +0.265 C 
ATOM     16  O   UNL     1      -4.984   0.815  25.290  0.00  0.00    -0.268 OA
BRANCH  15  17
ATOM     17  C   UNL     1      -4.142  -0.213  24.766  0.00  0.00    +0.058 A 
ATOM     18  C   UNL     1      -4.325  -0.481  24.007  0.00  0.00    +0.008 A 
ATOM     19  C   UNL     1      -4.203  -1.273  23.808  0.00  0.00    +0.040 A 
ATOM     20  C   UNL     1      -3.898  -1.796  24.368  0.00  0.00    +0.176 A 
ATOM     21  O   UNL     1      -3.720  -2.601  24.331  0.00  0.00    -0.435 OA
ATOM     22  C   UNL     1      -3.427  -2.831  25.068  0.00  0.00    +0.429 C 
ATOM     23  O   UNL     1      -3.424  -2.168  25.559  0.00  0.00    -0.435 OA
ATOM     24  C   UNL     1      -3.715  -1.529  25.127  0.00  0.00    +0.177 A 
ATOM     25  C   UNL     1      -3.837  -0.737  25.325  0.00  0.00    +0.045 A 
ENDBRANCH  15  17
ENDBRANCH  13  14
ENDBRANCH  12  13
TORSDOF 8
ENDMDL
MODEL 3
REMARK VINA RESULT:      -9.5      1.701      3.583
REMARK  Name = 
REMARK  8 active torsions:
REMARK  status: ('A' for Active; 'I' for Inactive)
REMARK    1  A    between atoms: N_2  and  C_4
REMARK    2  A    between atoms: C_4  and  C_5
REMARK    3  A    between atoms: C_5  and  N_6
REMARK    4  A    between atoms: C_7  and  C_9
REMARK    5  A    between atoms: C_9  and  C_10
REMARK    6  A    between atoms: C_12  and  C_13
REMARK    7  A    between atoms: C_13  and  N_14
REMARK    8  A    between atoms: C_15  and  C_17
REMARK                            x       y       z     vdW  Elec       q    Type
REMARK                         _______ _______ _______ _____ _____    ______ ____
ROOT
ATOM     10  C   UNL     1      -1.345   2.960  24.941  0.00  0.00    +0.157 C 
ATOM     11  O   UNL     1      -1.527   2.217  25.250  0.00  0.00    -0.351 OA
ATOM     12  C   UNL     1      -0.877   1.725  25.126  0.00  0.00    +0.170 C 
ATOM     26  C   UNL     1      -0.294   2.163  24.740  0.00  0.00    +0.213 C 
ATOM     27  O   UNL     1       0.448   1.887  24.509  0.00  0.00    -0.218 OA
ATOM     28  C   UNL     1      -0.584   2.927  24.626  0.00  0.00    +0.212 C 
ATOM     29  O   UNL     1      -0.183   3.548  24.260  0.00  0.00    -0.218 OA
ENDROOT
BRANCH  10   9
ATOM      9  C   UNL     1      -1.840   3.621  24.946  0.00  0.00    +0.119 C 
BRANCH   9   7
ATOM      6  N   UNL     1      -3.254   3.417  24.915  0.00  0.00    -0.204 NA
ATOM      7  C   UNL     1      -2.565   3.589  25.337  0.00  0.00    +0.244 C 
ATOM      8  O   UNL     1      -2.603   3.730  26.149  0.00  0.00    -0.273 OA
BRANCH   6   5
ATOM      5  C   UNL     1      -3.979   3.386  25.307  0.00  0.00    +0.132 C 
BRANCH   5   4
ATOM      4  C   UNL     1      -4.675   3.267  24.877  0.00  0.00    +0.096 C 
BRANCH   4   2
ATOM      1  C   UNL     1      -5.423   2.054  24.993  0.00  0.00    +0.090 C 
ATOM      2  N   UNL     1      -5.297   2.841  25.211  0.00  0.00    -0.269 NA
ATOM      3  C   UNL     1      -5.794   3.200  25.763  0.00  0.00    +0.090 C 
ENDBRANCH   4   2
ENDBRANCH   5   4
ENDBRANCH   6   5
ENDBRANCH   9   7
ENDBRANCH  10   9
BRANCH  12  13
ATOM     13  C   UNL     1      -0.819   0.932  25.349  0.00  0.00    +0.148 C 
BRANCH  13  14
ATOM     14  N   UNL     1      -1.453   0.420  25.220  0.00  0.00    -0.199 NA
ATOM     15  C   UNL     1      -1.445  -0.337  25.548  0.00  0.00    +0.265 C 
ATOM     16  O   UNL     1      -0.804  -0.581  26.006  0.00  0.00    -0.268 OA
BRANCH  15  17
ATOM     17  C   UNL     1      -2.079  -0.849  25.420  0.00  0.00    +0.058 A 
ATOM     18  C   UNL     1      -2.770  -0.772  25.865  0.00  0.00    +0.008 A 
ATOM     19  C   UNL     1      -3.403  -1.285  25.735  0.00  0.00    +0.040 A 
ATOM     20  C   UNL     1      -3.346  -1.874  25.161  0.00  0.00    +0.176 A 
ATOM     21  O   UNL     1      -3.876  -2.455  24.913  0.00  0.00    -0.435 OA
ATOM     22  C   UNL     1      -3.513  -2.892  24.314  0.00  0.00    +0.429 C 
ATOM     23  O   UNL     1      -2.759  -2.580  24.193  0.00  0.00    -0.435 OA
ATOM     24  C   UNL     1      -2.655  -1.952  24.716  0.00  0.00    +0.177 A 
ATOM     25  C   UNL     1      -2.022  -1.439  24.846  0.00  0.00    +0.045 A 
ENDBRANCH  15  17
ENDBRANCH  13  14
ENDBRANCH  12  13
TORSDOF 8
ENDMDL
MODEL 4
REMARK VINA RESULT:      -9.2      1.619      5.309
REMARK  Name = 
REMARK  8 active torsions:
REMARK  status: ('A' for Active; 'I' for Inactive)
REMARK    1  A    between atoms: N_2  and  C_4
REMARK    2  A    between atoms: C_4  and  C_5
REMARK    3  A    between atoms: C_5  and  N_6
REMARK    4  A    between atoms: C_7  and  C_9
REMARK    5  A    between atoms: C_9  and  C_10
REMARK    6  A    between atoms: C_12  and  C_13
REMARK    7  A    between atoms: C_13  and  N_14
REMARK    8  A    between atoms: C_15  and  C_17
REMARK                            x       y       z     vdW  Elec       q    Type
REMARK                         _______ _______ _______ _____ _____    ______ ____
ROOT
ATOM     10  C   UNL     1      -0.650   1.097  24.575  0.00  0.00    +0.157 C 
ATOM     11  O   UNL     1      -1.368   1.486  24.690  0.00  0.00    -0.351 OA
ATOM     12  C   UNL     1      -1.248   2.290  24.551  0.00  0.00    +0.170 C 
ATOM     26  C   UNL     1      -0.455   2.398  24.351  0.00  0.00    +0.213 C 
ATOM     27  O   UNL     1      -0.094   3.117  24.167  0.00  0.00    -0.218 OA
ATOM     28  C   UNL     1      -0.086   1.660  24.366  0.00  0.00    +0.212 C 
ATOM     29  O   UNL     1       0.709   1.513  24.200  0.00  0.00    -0.218 OA
ENDROOT
BRANCH  10   9
ATOM      9  C   UNL     1      -0.519   0.286  24.656  0.00  0.00    +0.119 C 
BRANCH   9   7
ATOM      6  N   UNL     1      -1.557  -0.684  24.501  0.00  0.00    -0.204 NA
ATOM      7  C   UNL     1      -1.103  -0.194  24.986  0.00  0.00    +0.244 C 
ATOM      8  O   UNL     1      -1.234  -0.185  25.801  0.00  0.00    -0.273 OA
BRANCH   6   5
ATOM      5  C   UNL     1      -2.141  -1.164  24.831  0.00  0.00    +0.132 C 
BRANCH   5   4
ATOM      4  C   UNL     1      -2.531  -1.720  24.362  0.00  0.00    +0.096 C 
BRANCH   4   2
ATOM      1  C   UNL     1      -3.951  -1.594  24.250  0.00  0.00    +0.090 C 
ATOM      2  N   UNL     1      -3.289  -1.973  24.567  0.00  0.00    -0.269 NA
ATOM      3  C   UNL     1      -3.386  -2.604  25.090  0.00  0.00    +0.090 C 
ENDBRANCH   4   2
ENDBRANCH   5   4
ENDBRANCH   6   5
ENDBRANCH   9   7
ENDBRANCH  10   9
BRANCH  12  13
ATOM     13  C   UNL     1      -1.820   2.883  24.604  0.00  0.00    +0.148 C 
BRANCH  13  14
ATOM     14  N   UNL     1      -2.592   2.693  24.823  0.00  0.00    -0.199 NA
ATOM     15  C   UNL     1      -3.176   3.274  24.818  0.00  0.00    +0.265 C 
ATOM     16  O   UNL     1      -2.989   4.047  24.594  0.00  0.00    -0.268 OA
BRANCH  15  17
ATOM     17  C   UNL     1      -3.949   3.085  25.037  0.00  0.00    +0.058 A 
ATOM     18  C   UNL     1      -4.333   3.525  25.620  0.00  0.00    +0.008 A 
ATOM     19  C   UNL     1      -5.106   3.335  25.839  0.00  0.00    +0.040 A 
ATOM     20  C   UNL     1      -5.494   2.705  25.474  0.00  0.00    +0.176 A 
ATOM     21  O   UNL     1      -6.251   2.391  25.575  0.00  0.00    -0.435 OA
ATOM     22  C   UNL     1      -6.334   1.756  25.054  0.00  0.00    +0.429 C 
ATOM     23  O   UNL     1      -5.629   1.679  24.632  0.00  0.00    -0.435 OA
ATOM     24  C   UNL     1      -5.110   2.264  24.891  0.00  0.00    +0.177 A 
ATOM     25  C   UNL     1      -4.338   2.455  24.673  0.00  0.00    +0.045 A 
ENDBRANCH  15  17
ENDBRANCH  13  14
ENDBRANCH  12  13
TORSDOF 8
ENDMDL
MODEL 5
REMARK VINA RESULT:      -9.2      1.398      4.310
REMARK  Name = 
REMARK  8 active torsions:
REMARK  status: ('A' for Active; 'I' for Inactive)
REMARK    1  A    between atoms: N_2  and  C_4
REMARK    2  A    between atoms: C_4  and  C_5
REMARK    3  A    between atoms: C_5  and  N_6
REMARK    4  A    between atoms: C_7  and  C_9
REMARK    5  A    between atoms: C_9  and  C_10
REMARK    6  A    between atoms: C_12  and  C_13
REMARK    7  A    between atoms: C_13  and  N_14
REMARK    8  A    between atoms: C_15  and  C_17
REMARK                            x       y       z     vdW  Elec       q    Type
REMARK                         _______ _______ _______ _____ _____    ______ ____
ROOT
ATOM     10  C   UNL     1      -5.210   1.712  25.108  0.00  0.00    +0.157 C 
ATOM     11  O   UNL     1      -4.494   2.111  25.205  0.00  0.00    -0.351 OA
ATOM     12  C   UNL     1      -4.664   2.883  25.439  0.00  0.00    +0.170 C 
ATOM     26  C   UNL     1      -5.484   2.962  25.486  0.00  0.00    +0.213 C 
ATOM     27  O   UNL     1      -5.894   3.644  25.701  0.00  0.00    -0.218 OA
ATOM     28  C   UNL     1      -5.821   2.238  25.282  0.00  0.00    +0.212 C 
ATOM     29  O   UNL     1      -6.628   2.069  25.255  0.00  0.00    -0.218 OA
ENDROOT
BRANCH  10   9
ATOM      9  C   UNL     1      -5.298   0.924  24.877  0.00  0.00    +0.119 C 
BRANCH   9   7
ATOM      6  N   UNL     1      -4.409  -0.161  25.150  0.00  0.00    -0.204 NA
ATOM      7  C   UNL     1      -4.635   0.477  24.677  0.00  0.00    +0.244 C 
ATOM      8  O   UNL     1      -4.196   0.667  24.004  0.00  0.00    -0.273 OA
BRANCH   6   5
ATOM      5  C   UNL     1      -3.746  -0.608  24.950  0.00  0.00    +0.132 C 
BRANCH   5   4
ATOM      4  C   UNL     1      -3.520  -1.245  25.424  0.00  0.00    +0.096 C 
BRANCH   4   2
ATOM      1  C   UNL     1      -3.307  -2.547  24.876  0.00  0.00    +0.090 C 
ATOM      2  N   UNL     1      -3.008  -1.819  25.126  0.00  0.00    -0.269 NA
ATOM      3  C   UNL     1      -2.199  -1.667  25.078  0.00  0.00    +0.090 C 
ENDBRANCH   4   2
ENDBRANCH   5   4
ENDBRANCH   6   5
ENDBRANCH   9   7
ENDBRANCH  10   9
BRANCH  12  13
ATOM     13  C   UNL     1      -4.110   3.475  25.598  0.00  0.00    +0.148 C 
BRANCH  13  14
ATOM     14  N   UNL     1      -3.305   3.324  25.500  0.00  0.00    -0.199 NA
ATOM     15  C   UNL     1      -2.747   3.858  25.788  0.00  0.00    +0.265 C 
ATOM     16  O   UNL     1      -2.994   4.545  26.173  0.00  0.00    -0.268 OA
BRANCH  15  17
ATOM     17  C   UNL     1      -1.942   3.707  25.691  0.00  0.00    +0.058 A 
ATOM     18  C   UNL     1      -1.486   4.195  25.206  0.00  0.00    +0.008 A 
ATOM     19  C   UNL     1      -0.680   4.043  25.109  0.00  0.00    +0.040 A 
ATOM     20  C   UNL     1      -0.332   3.405  25.497  0.00  0.00    +0.176 A 
ATOM     21  O   UNL     1       0.443   3.121  25.506  0.00  0.00    -0.435 OA
ATOM     22  C   UNL     1       0.466   2.458  25.998  0.00  0.00    +0.429 C 
ATOM     23  O   UNL     1      -0.295   2.332  26.291  0.00  0.00    -0.435 OA
ATOM     24  C   UNL     1      -0.788   2.916  25.982  0.00  0.00    +0.177 A 
ATOM     25  C   UNL     1      -1.593   3.068  26.078  0.00  0.00    +0.045 A 
ENDBRANCH  15  17
ENDBRANCH  13  14
ENDBRANCH  12  13
TORSDOF 8
ENDMDL
MODEL 6
REMARK VINA RESULT:      -9.2      1.606      5.167
REMARK  Name = 
REMARK  8 active torsions:
REMARK  status: ('A' for Active; 'I' for Inactive)
REMARK    1  A    between atoms: N_2  and  C_4
REMARK    2  A    between atoms: C_4  and  C_5
REMARK    3  A    between atoms: C_5  and  N_6
REMARK    4  A    between atoms: C_7  and  C_9
REMARK    5  A    between atoms: C_9  and  C_10
REMARK    6  A    between atoms: C_12  and  C_13
REMARK    7  A    between atoms: C_13  and  N_14
REMARK    8  A    between atoms: C_15  and  C_17
REMARK                            x       y       z     vdW  Elec       q    Type
REMARK                         _______ _______ _______ _____ _____    ______ ____
ROOT
ATOM     10  C   UNL     1      -2.417  -0.552  24.802  0.00  0.00    +0.157 C 
ATOM     11  O   UNL     1      -2.124   0.178  25.051  0.00  0.00    -0.351 OA
ATOM     12  C   UNL     1      -1.308   0.105  25.146  0.00  0.00    +0.170 C 
ATOM     26  C   UNL     1      -1.096  -0.670  24.956  0.00  0.00    +0.213 C 
ATOM     27  O   UNL     1      -0.335  -0.984  24.975  0.00  0.00    -0.218 OA
ATOM     28  C   UNL     1      -1.783  -1.075  24.743  0.00  0.00    +0.212 C 
ATOM     29  O   UNL     1      -1.827  -1.866  24.512  0.00  0.00    -0.218 OA
ENDROOT
BRANCH  10   9
ATOM      9  C   UNL     1      -3.208  -0.727  24.640  0.00  0.00    +0.119 C 
BRANCH   9   7
ATOM      6  N   UNL     1      -4.145   0.352  24.632  0.00  0.00    -0.204 NA
ATOM      7  C   UNL     1      -3.808  -0.300  25.011  0.00  0.00    +0.244 C 
ATOM      8  O   UNL     1      -4.072  -0.523  25.760  0.00  0.00    -0.273 OA
BRANCH   6   5
ATOM      5  C   UNL     1      -4.745   0.779  25.003  0.00  0.00    +0.132 C 
BRANCH   5   4
ATOM      4  C   UNL     1      -5.021   1.481  24.666  0.00  0.00    +0.096 C 
BRANCH   4   2
ATOM      1  C   UNL     1      -6.339   1.824  25.099  0.00  0.00    +0.090 C 
ATOM      2  N   UNL     1      -5.526   1.972  25.094  0.00  0.00    -0.269 NA
ATOM      3  C   UNL     1      -5.221   2.612  25.516  0.00  0.00    +0.090 C 
ENDBRANCH   4   2
ENDBRANCH   5   4
ENDBRANCH   6   5
ENDBRANCH   9   7
ENDBRANCH  10   9
BRANCH  12  13
ATOM     13  C   UNL     1      -0.792   0.702  25.389  0.00  0.00    +0.148 C 
BRANCH  13  14
ATOM     14  N   UNL     1      -0.956   1.489  25.205  0.00  0.00    -0.199 NA
ATOM     15  C   UNL     1      -0.571   2.095  25.610  0.00  0.00    +0.265 C 
ATOM     16  O   UNL     1      -0.021   1.915  26.198  0.00  0.00    -0.268 OA
BRANCH  15  17
ATOM     17  C   UNL     1      -0.734   2.883  25.426  0.00  0.00    +0.058 A 
ATOM     18  C   UNL     1      -0.214   3.313  24.951  0.00  0.00    +0.008 A 
ATOM     19  C   UNL     1      -0.379   4.101  24.767  0.00  0.00    +0.040 A 
ATOM     20  C   UNL     1      -1.062   4.458  25.059  0.00  0.00    +0.176 A 
ATOM     21  O   UNL     1      -1.367   5.220  24.971  0.00  0.00    -0.435 OA
ATOM     22  C   UNL     1      -2.076   5.260  25.392  0.00  0.00    +0.429 C 
ATOM     23  O   UNL     1      -2.209   4.524  25.739  0.00  0.00    -0.435 OA
ATOM     24  C   UNL     1      -1.583   4.028  25.534  0.00  0.00    +0.177 A 
ATOM     25  C   UNL     1      -1.418   3.241  25.717  0.00  0.00    +0.045 A 
ENDBRANCH  15  17
ENDBRANCH  13  14
ENDBRANCH  12  13
TORSDOF 8
ENDMDL
MODEL 7
REMARK VINA RESULT:      -8.9      1.187      4.262
REMARK  Name = 
REMARK  8 active torsions:
REMARK  status: ('A' for Active; 'I' for Inactive)
REMARK    1  A    between atoms: N_2  and  C_4
REMARK    2  A    between atoms: C_4  and  C_5
REMARK    3  A    between atoms: C_5  and  N_6
REMARK    4  A    between atoms: C_7  and  C_9
REMARK    5  A    between atoms: C_9  and  C_10
REMARK    6  A    between atoms: C_12  and  C_13
REMARK    7  A    between atoms: C_13  and  N_14
REMARK    8  A    between atoms: C_15  and  C_17
REMARK                            x       y       z     vdW  Elec       q    Type
REMARK                         _______ _______ _______ _____ _____    ______ ____
ROOT
ATOM     10  C   UNL     1      -1.538  -0.996  24.800  0.00  0.00    +0.157 C 
ATOM     11  O   UNL     1      -2.206  -0.514  24.759  0.00  0.00    -0.351 OA
ATOM     12  C   UNL     1      -2.872  -1.002  24.755  0.00  0.00    +0.170 C 
ATOM     26  C   UNL     1      -2.614  -1.785  24.793  0.00  0.00    +0.213 C 
ATOM     27  O   UNL     1      -3.096  -2.454  24.801  0.00  0.00    -0.218 OA
ATOM     28  C   UNL     1      -1.790  -1.780  24.820  0.00  0.00    +0.212 C 
ATOM     29  O   UNL     1      -1.303  -2.445  24.862  0.00  0.00    -0.218 OA
ENDROOT
BRANCH  10   9
ATOM      9  C   UNL     1      -0.754  -0.737  24.817  0.00  0.00    +0.119 C 
BRANCH   9   7
ATOM      6  N   UNL     1      -0.483   0.642  25.078  0.00  0.00    -0.204 NA
ATOM      7  C   UNL     1      -0.564   0.018  24.543  0.00  0.00    +0.244 C 
ATOM      8  O   UNL     1      -0.456   0.150  23.736  0.00  0.00    -0.273 OA
BRANCH   6   5
ATOM      5  C   UNL     1      -0.293   1.396  24.805  0.00  0.00    +0.132 C 
BRANCH   5   4
ATOM      4  C   UNL     1      -0.101   1.993  25.343  0.00  0.00    +0.096 C 
BRANCH   4   2
ATOM      1  C   UNL     1      -0.875   3.088  25.836  0.00  0.00    +0.090 C 
ATOM      2  N   UNL     1      -0.409   2.752  25.243  0.00  0.00    -0.269 NA
ATOM      3  C   UNL     1      -0.252   3.174  24.552  0.00  0.00    +0.090 C 
ENDBRANCH   4   2
ENDBRANCH   5   4
ENDBRANCH   6   5
ENDBRANCH   9   7
ENDBRANCH  10   9
BRANCH  12  13
ATOM     13  C   UNL     1      -3.657  -0.751  24.719  0.00  0.00    +0.148 C 
BRANCH  13  14
ATOM     14  N   UNL     1      -3.858   0.013  24.956  0.00  0.00    -0.199 NA
ATOM     15  C   UNL     1      -4.575   0.344  24.718  0.00  0.00    +0.265 C 
ATOM     16  O   UNL     1      -5.091  -0.089  24.242  0.00  0.00    -0.268 OA
BRANCH  15  17
ATOM     17  C   UNL     1      -4.775   1.108  24.955  0.00  0.00    +0.058 A 
ATOM     18  C   UNL     1      -5.441   1.232  25.427  0.00  0.00    +0.008 A 
ATOM     19  C   UNL     1      -5.642   1.997  25.664  0.00  0.00    +0.040 A 
ATOM     20  C   UNL     1      -5.177   2.637  25.429  0.00  0.00    +0.176 A 
ATOM     21  O   UNL     1      -5.238   3.447  25.576  0.00  0.00    -0.435 OA
ATOM     22  C   UNL     1      -4.609   3.822  25.195  0.00  0.00    +0.429 C 
ATOM     23  O   UNL     1      -4.161   3.245  24.812  0.00  0.00    -0.435 OA
ATOM     24  C   UNL     1      -4.511   2.513  24.957  0.00  0.00    +0.177 A 
ATOM     25  C   UNL     1      -4.311   1.748  24.720  0.00  0.00    +0.045 A 
ENDBRANCH  15  17
ENDBRANCH  13  14
ENDBRANCH  12  13
TORSDOF 8
ENDMDL
