MODEL 1
REMARK VINA RESULT:     -10.3      0.000      0.000
REMARK  Name = 
REMARK  6 active torsions:
REMARK  status: ('A' for Active; 'I' for Inactive)
REMARK    1  A    between atoms: O_2  and  C_3
REMARK    2  A    between atoms: C_6  and  C_9
REMARK    3  A    between atoms: N_11  and  C_12
REMARK    4  A    between atoms: C_12  and  C_13
REMARK    5  A    between atoms: C_20  and  C_21
REMARK    6  A    between atoms: C_23  and  C_27
REMARK                            x       y       z     vdW  Elec       q    Type
REMARK                         _______ _______ _______ _____ _____    ______ ____
ROOT
ATOM     13  C   UNL     1       0.093   0.323  23.519  0.00  0.00    +0.079 C 
ATOM     14  C   UNL     1      -0.259   0.307  24.213  0.00  0.00    +0.018 C 
ATOM     15  C   UNL     1      -0.906   0.746  24.424  0.00  0.00    +0.010 C 
ATOM     16  C   UNL     1      -1.159   0.583  25.269  0.00  0.00    +0.018 C 
ATOM     17  C   UNL     1      -0.790   0.514  24.734  0.00  0.00    +0.072 C 
ATOM     18  N   UNL     1      -0.566   0.767  23.742  0.00  0.00    -0.272 NA
ATOM     19  C   UNL     1      -1.070   1.379  23.290  0.00  0.00    +0.078 C 
ATOM     20  C   UNL     1      -1.386   1.334  23.984  0.00  0.00    +0.056 C 
ENDROOT
BRANCH  20  21
ATOM     21  C   UNL     1      -2.043   1.751  24.261  0.00  0.00    +0.058 A 
ATOM     22  C   UNL     1      -2.790   1.435  24.410  0.00  0.00    +0.031 A 
ATOM     23  C   UNL     1      -3.275   2.044  24.679  0.00  0.00    +0.079 A 
ATOM     24  N   UNL     1      -2.828   2.737  24.697  0.00  0.00    -0.174 NA
ATOM     25  N   UNL     1      -2.066   2.556  24.439  0.00  0.00    -0.253 N 
ATOM     26  C   UNL     1      -1.437   3.086  24.371  0.00  0.00    +0.153 C 
BRANCH  23  27
ATOM     27  C   UNL     1      -4.069   1.975  24.893  0.00  0.00    +0.042 C 
ATOM     28  C   UNL     1      -4.578   1.364  24.673  0.00  0.00    +0.006 C 
ATOM     29  C   UNL     1      -5.317   1.515  25.008  0.00  0.00    +0.000 C 
ATOM     30  C   UNL     1      -5.264   2.219  25.435  0.00  0.00    +0.000 C 
ATOM     31  C   UNL     1      -4.493   2.503  25.364  0.00  0.00    +0.006 C 
ENDBRANCH  23  27
ENDBRANCH  20  21
BRANCH  13  12
ATOM     12  C   UNL     1       0.671   0.084  22.982  0.00  0.00    +0.131 C 
BRANCH  12  11
ATOM      9  C   UNL     1       2.043   0.047  22.585  0.00  0.00    +0.265 C 
ATOM     10  O   UNL     1       1.819  -0.212  21.834  0.00  0.00    -0.268 OA
ATOM     11  N   UNL     1       1.470   0.195  23.159  0.00  0.00    -0.200 NA
BRANCH   9   6
ATOM      3  C   UNL     1       4.438   0.379  23.114  0.00  0.00    +0.139 A 
ATOM      4  C   UNL     1       3.995   1.001  22.800  0.00  0.00    +0.037 A 
ATOM      5  C   UNL     1       3.197   0.890  22.624  0.00  0.00    +0.008 A 
ATOM      6  C   UNL     1       2.841   0.157  22.761  0.00  0.00    +0.055 A 
ATOM      7  C   UNL     1       3.285  -0.463  23.075  0.00  0.00    +0.008 A 
ATOM      8  C   UNL     1       4.083  -0.352  23.251  0.00  0.00    +0.037 A 
BRANCH   3   2
ATOM      1  C   UNL     1       5.606   0.007  23.848  0.00  0.00    +0.252 C 
ATOM      2  O   UNL     1       5.236   0.491  23.290  0.00  0.00    -0.471 OA
ENDBRANCH   3   2
ENDBRANCH   9   6
ENDBRANCH  12  11
ENDBRANCH  13  12
TORSDOF 6
ENDMDL
MODEL 2
REMARK VINA RESULT:      -9.3      3.238      5.063
REMARK  Name = 
REMARK  6 active torsions:
REMARK  status: ('A' for Active; 'I' for Inactive)
REMARK    1  A    between atoms: O_2  and  C_3
REMARK    2  A    between atoms: C_6  and  C_9
REMARK    3  A    between atoms: N_11  and  C_12
REMARK    4  A    between atoms: C_12  and  C_13
REMARK    5  A    between atoms: C_20  and  C_21
REMARK    6  A    between atoms: C_23  and  C_27
REMARK                            x       y       z     vdW  Elec       q    Type
REMARK                         _______ _______ _______ _____ _____    ______ ____
ROOT
ATOM     13  C   UNL     1      -0.348  -0.038  24.628  0.00  0.00    +0.079 C 
ATOM     14  C   UNL     1      -0.066   0.589  24.264  0.00  0.00    +0.018 C 
ATOM     15  C   UNL     1      -0.132   1.354  24.523  0.00  0.00    +0.010 C 
ATOM     16  C   UNL     1       0.261   1.932  23.961  0.00  0.00    +0.018 C 
ATOM     17  C   UNL     1       0.071   1.344  24.173  0.00  0.00    +0.072 C 
ATOM     18  N   UNL     1      -0.412   0.744  24.884  0.00  0.00    -0.272 NA
ATOM     19  C   UNL     1      -0.803   1.114  25.621  0.00  0.00    +0.078 C 
ATOM     20  C   UNL     1      -0.510   1.704  25.233  0.00  0.00    +0.056 C 
ENDROOT
BRANCH  20  21
ATOM     21  C   UNL     1      -0.543   2.502  25.440  0.00  0.00    +0.058 A 
ATOM     22  C   UNL     1      -0.954   3.091  25.034  0.00  0.00    +0.031 A 
ATOM     23  C   UNL     1      -0.836   3.804  25.431  0.00  0.00    +0.079 A 
ATOM     24  N   UNL     1      -0.351   3.656  26.082  0.00  0.00    -0.174 NA
ATOM     25  N   UNL     1      -0.169   2.851  26.087  0.00  0.00    -0.253 N 
ATOM     26  C   UNL     1       0.302   2.463  26.642  0.00  0.00    +0.153 C 
BRANCH  23  27
ATOM     27  C   UNL     1      -1.147   4.537  25.215  0.00  0.00    +0.042 C 
ATOM     28  C   UNL     1      -1.926   4.785  25.329  0.00  0.00    +0.006 C 
ATOM     29  C   UNL     1      -1.995   5.552  25.032  0.00  0.00    +0.000 C 
ATOM     30  C   UNL     1      -1.259   5.778  24.736  0.00  0.00    +0.000 C 
ATOM     31  C   UNL     1      -0.735   5.151  24.849  0.00  0.00    +0.006 C 
ENDBRANCH  23  27
ENDBRANCH  20  21
BRANCH  13  12
ATOM     12  C   UNL     1      -0.480  -0.849  24.700  0.00  0.00    +0.131 C 
BRANCH  12  11
ATOM      9  C   UNL     1      -1.433  -1.908  24.814  0.00  0.00    +0.265 C 
ATOM     10  O   UNL     1      -0.900  -2.338  25.274  0.00  0.00    -0.268 OA
ATOM     11  N   UNL     1      -1.223  -1.163  24.527  0.00  0.00    -0.200 NA
BRANCH   9   6
ATOM      3  C   UNL     1      -3.661  -2.850  24.294  0.00  0.00    +0.139 A 
ATOM      4  C   UNL     1      -2.988  -3.153  23.923  0.00  0.00    +0.037 A 
ATOM      5  C   UNL     1      -2.246  -2.839  24.097  0.00  0.00    +0.008 A 
ATOM      6  C   UNL     1      -2.175  -2.222  24.641  0.00  0.00    +0.055 A 
ATOM      7  C   UNL     1      -2.847  -1.920  25.011  0.00  0.00    +0.008 A 
ATOM      8  C   UNL     1      -3.590  -2.234  24.837  0.00  0.00    +0.037 A 
BRANCH   3   2
ATOM      1  C   UNL     1      -4.877  -2.810  23.545  0.00  0.00    +0.252 C 
ATOM      2  O   UNL     1      -4.403  -3.165  24.120  0.00  0.00    -0.471 OA
ENDBRANCH   3   2
ENDBRANCH   9   6
ENDBRANCH  12  11
ENDBRANCH  13  12
TORSDOF 6
ENDMDL
MODEL 3
REMARK VINA RESULT:      -9.2      2.129      6.765
REMARK  Name = 
REMARK  6 active torsions:
REMARK  status: ('A' for Active; 'I' for Inactive)
REMARK    1  A    between atoms: O_2  and  C_3
REMARK    2  A    between atoms: C_6  and  C_9
REMARK    3  A    between atoms: N_11  and  C_12
REMARK    4  A    between atoms: C_12  and  C_13
REMARK    5  A    between atoms: C_20  and  C_21
REMARK    6  A    between atoms: C_23  and  C_27
REMARK                            x       y       z     vdW  Elec       q    Type
REMARK                         _______ _______ _______ _____ _____    ______ ____
ROOT
ATOM     13  C   UNL     1      -0.972   0.292  24.173  0.00  0.00    +0.079 C 
ATOM     14  C   UNL     1      -0.422   0.841  24.134  0.00  0.00    +0.018 C 
ATOM     15  C   UNL     1       0.298   0.763  23.772  0.00  0.00    +0.010 C 
ATOM     16  C   UNL     1       0.789   1.510  23.839  0.00  0.00    +0.018 C 
ATOM     17  C   UNL     1       0.264   1.132  23.933  0.00  0.00    +0.072 C 
ATOM     18  N   UNL     1      -0.236   0.220  23.805  0.00  0.00    -0.272 NA
ATOM     19  C   UNL     1       0.156  -0.470  23.354  0.00  0.00    +0.078 C 
ATOM     20  C   UNL     1       0.669   0.095  23.340  0.00  0.00    +0.056 C 
ENDROOT
BRANCH  20  21
ATOM     21  C   UNL     1       1.417   0.081  22.990  0.00  0.00    +0.058 A 
ATOM     22  C   UNL     1       2.127   0.286  23.356  0.00  0.00    +0.031 A 
ATOM     23  C   UNL     1       2.733   0.191  22.806  0.00  0.00    +0.079 A 
ATOM     24  N   UNL     1       2.399  -0.072  22.099  0.00  0.00    -0.174 NA
ATOM     25  N   UNL     1       1.584  -0.140  22.213  0.00  0.00    -0.253 N 
ATOM     26  C   UNL     1       1.034  -0.385  21.649  0.00  0.00    +0.153 C 
BRANCH  23  27
ATOM     27  C   UNL     1       3.535   0.334  22.938  0.00  0.00    +0.042 C 
ATOM     28  C   UNL     1       3.951   1.009  22.708  0.00  0.00    +0.006 C 
ATOM     29  C   UNL     1       4.735   0.919  22.951  0.00  0.00    +0.000 C 
ATOM     30  C   UNL     1       4.803   0.190  23.331  0.00  0.00    +0.000 C 
ATOM     31  C   UNL     1       4.062  -0.172  23.323  0.00  0.00    +0.006 C 
ENDBRANCH  23  27
ENDBRANCH  20  21
BRANCH  13  12
ATOM     12  C   UNL     1      -1.711   0.006  24.401  0.00  0.00    +0.131 C 
BRANCH  12  11
ATOM      9  C   UNL     1      -3.112   0.234  24.567  0.00  0.00    +0.265 C 
ATOM     10  O   UNL     1      -3.248  -0.579  24.538  0.00  0.00    -0.268 OA
ATOM     11  N   UNL     1      -2.343   0.526  24.498  0.00  0.00    -0.200 NA
BRANCH   9   6
ATOM      3  C   UNL     1      -5.008   1.796  24.859  0.00  0.00    +0.139 A 
ATOM      4  C   UNL     1      -4.989   1.087  25.281  0.00  0.00    +0.037 A 
ATOM      5  C   UNL     1      -4.357   0.566  25.184  0.00  0.00    +0.008 A 
ATOM      6  C   UNL     1      -3.744   0.754  24.664  0.00  0.00    +0.055 A 
ATOM      7  C   UNL     1      -3.764   1.463  24.243  0.00  0.00    +0.008 A 
ATOM      8  C   UNL     1      -4.396   1.984  24.340  0.00  0.00    +0.037 A 
BRANCH   3   2
ATOM      1  C   UNL     1      -5.594   2.920  25.518  0.00  0.00    +0.252 C 
ATOM      2  O   UNL     1      -5.641   2.317  24.957  0.00  0.00    -0.471 OA
ENDBRANCH   3   2
ENDBRANCH   9   6
ENDBRANCH  12  11
ENDBRANCH  13  12
TORSDOF 6
ENDMDL
MODEL 4
REMARK VINA RESULT:      -9.2      4.411      5.661
REMARK  Name = 
REMARK  6 active torsions:
REMARK  status: ('A' for Active; 'I' for Inactive)
REMARK    1  A    between atoms: O_2  and  C_3
REMARK    2  A    between atoms: C_6  and  C_9
REMARK    3  A    between atoms: N_11  and  C_12
REMARK    4  A    between atoms: C_12  and  C_13
REMARK    5  A    between atoms: C_20  and  C_21
REMARK    6  A    between atoms: C_23  and  C_27
REMARK                            x       y       z     vdW  Elec       q    Type
REMARK                         _______ _______ _______ _____ _____    ______ ____
ROOT
ATOM     13  C   UNL     1      -4.555   1.444  24.567  0.00  0.00    +0.079 C 
ATOM     14  C   UNL     1      -4.503   2.138  24.221  0.00  0.00    +0.018 C 
ATOM     15  C   UNL     1      -4.036   2.753  24.465  0.00  0.00    +0.010 C 
ATOM     16  C   UNL     1      -4.119   3.468  23.930  0.00  0.00    +0.018 C 
ATOM     17  C   UNL     1      -4.241   2.860  24.133  0.00  0.00    +0.072 C 
ATOM     18  N   UNL     1      -4.082   2.075  24.810  0.00  0.00    -0.272 NA
ATOM     19  C   UNL     1      -3.504   2.171  25.509  0.00  0.00    +0.078 C 
ATOM     20  C   UNL     1      -3.482   2.839  25.140  0.00  0.00    +0.056 C 
ENDROOT
BRANCH  20  21
ATOM     21  C   UNL     1      -3.030   3.502  25.334  0.00  0.00    +0.058 A 
ATOM     22  C   UNL     1      -2.384   3.790  24.911  0.00  0.00    +0.031 A 
ATOM     23  C   UNL     1      -2.101   4.459  25.301  0.00  0.00    +0.079 A 
ATOM     24  N   UNL     1      -2.573   4.585  25.966  0.00  0.00    -0.174 NA
ATOM     25  N   UNL     1      -3.148   3.993  25.987  0.00  0.00    -0.253 N 
ATOM     26  C   UNL     1      -3.736   3.908  26.559  0.00  0.00    +0.153 C 
BRANCH  23  27
ATOM     27  C   UNL     1      -1.459   4.921  25.068  0.00  0.00    +0.042 C 
ATOM     28  C   UNL     1      -1.464   5.740  24.964  0.00  0.00    +0.006 C 
ATOM     29  C   UNL     1      -0.707   5.972  24.730  0.00  0.00    +0.000 C 
ATOM     30  C   UNL     1      -0.235   5.296  24.688  0.00  0.00    +0.000 C 
ATOM     31  C   UNL     1      -0.699   4.647  24.897  0.00  0.00    +0.006 C 
ENDBRANCH  23  27
ENDBRANCH  20  21
BRANCH  13  12
ATOM     12  C   UNL     1      -4.851   0.677  24.637  0.00  0.00    +0.131 C 
BRANCH  12  11
ATOM      9  C   UNL     1      -4.615  -0.724  24.489  0.00  0.00    +0.265 C 
ATOM     10  O   UNL     1      -5.413  -0.841  24.318  0.00  0.00    -0.268 OA
ATOM     11  N   UNL     1      -4.333   0.035  24.649  0.00  0.00    -0.200 NA
BRANCH   9   6
ATOM      3  C   UNL     1      -3.063  -2.652  24.525  0.00  0.00    +0.139 A 
ATOM      4  C   UNL     1      -3.045  -2.096  25.135  0.00  0.00    +0.037 A 
ATOM      5  C   UNL     1      -3.562  -1.454  25.123  0.00  0.00    +0.008 A 
ATOM      6  C   UNL     1      -4.098  -1.367  24.501  0.00  0.00    +0.055 A 
ATOM      7  C   UNL     1      -4.115  -1.922  23.892  0.00  0.00    +0.008 A 
ATOM      8  C   UNL     1      -3.598  -2.564  23.904  0.00  0.00    +0.037 A 
BRANCH   3   2
ATOM      1  C   UNL     1      -1.750  -3.185  24.347  0.00  0.00    +0.252 C 
ATOM      2  O   UNL     1      -2.545  -3.294  24.538  0.00  0.00    -0.471 OA
ENDBRANCH   3   2
ENDBRANCH   9   6
ENDBRANCH  12  11
ENDBRANCH  13  12
TORSDOF 6
ENDMDL
MODEL 5
REMARK VINA RESULT:      -7.7     17.512     19.174
REMARK  Name = 
REMARK  6 active torsions:
REMARK  status: ('A' for Active; 'I' for Inactive)
REMARK    1  A    between atoms: O_2  and  C_3
REMARK    2  A    between atoms: C_6  and  C_9
REMARK    3  A    between atoms: N_11  and  C_12
REMARK    4  A    between atoms: C_12  and  C_13
REMARK    5  A    between atoms: C_20  and  C_21
REMARK    6  A    between atoms: C_23  and  C_27
REMARK                            x       y       z     vdW  Elec       q    Type
REMARK                         _______ _______ _______ _____ _____    ______ ____
ROOT
ATOM     13  C   UNL     1      -6.733  -8.512   9.264  0.00  0.00    +0.079 C 
ATOM     14  C   UNL     1      -6.069  -8.220   9.545  0.00  0.00    +0.018 C 
ATOM     15  C   UNL     1      -5.427  -8.653   9.783  0.00  0.00    +0.010 C 
ATOM     16  C   UNL     1      -4.761  -8.129  10.075  0.00  0.00    +0.018 C 
ATOM     17  C   UNL     1      -5.353  -8.258   9.831  0.00  0.00    +0.072 C 
ATOM     18  N   UNL     1      -6.075  -8.946   9.508  0.00  0.00    -0.272 NA
ATOM     19  C   UNL     1      -5.910  -9.843   9.532  0.00  0.00    +0.078 C 
ATOM     20  C   UNL     1      -5.275  -9.517   9.803  0.00  0.00    +0.056 C 
ENDROOT
BRANCH  20  21
ATOM     21  C   UNL     1      -4.589  -9.898  10.060  0.00  0.00    +0.058 A 
ATOM     22  C   UNL     1      -4.215  -9.783  10.786  0.00  0.00    +0.031 A 
ATOM     23  C   UNL     1      -3.553 -10.274  10.811  0.00  0.00    +0.079 A 
ATOM     24  N   UNL     1      -3.518 -10.692  10.101  0.00  0.00    -0.174 NA
ATOM     25  N   UNL     1      -4.159 -10.460   9.636  0.00  0.00    -0.253 N 
ATOM     26  C   UNL     1      -4.338 -10.740   8.881  0.00  0.00    +0.153 C 
BRANCH  23  27
ATOM     27  C   UNL     1      -3.019 -10.336  11.437  0.00  0.00    +0.042 C 
ATOM     28  C   UNL     1      -2.212 -10.167  11.404  0.00  0.00    +0.006 C 
ATOM     29  C   UNL     1      -1.891 -10.305  12.152  0.00  0.00    +0.000 C 
ATOM     30  C   UNL     1      -2.500 -10.559  12.647  0.00  0.00    +0.000 C 
ATOM     31  C   UNL     1      -3.197 -10.579  12.206  0.00  0.00    +0.006 C 
ENDBRANCH  23  27
ENDBRANCH  20  21
BRANCH  13  12
ATOM     12  C   UNL     1      -7.497  -8.442   8.961  0.00  0.00    +0.131 C 
BRANCH  12  11
ATOM      9  C   UNL     1      -8.610  -7.627   8.590  0.00  0.00    +0.265 C 
ATOM     10  O   UNL     1      -8.980  -8.284   8.256  0.00  0.00    -0.268 OA
ATOM     11  N   UNL     1      -7.868  -7.706   8.943  0.00  0.00    -0.200 NA
BRANCH   9   6
ATOM      3  C   UNL     1      -9.725  -5.419   8.538  0.00  0.00    +0.139 A 
ATOM      4  C   UNL     1     -10.115  -6.070   8.861  0.00  0.00    +0.037 A 
ATOM      5  C   UNL     1      -9.744  -6.806   8.879  0.00  0.00    +0.008 A 
ATOM      6  C   UNL     1      -8.982  -6.891   8.573  0.00  0.00    +0.055 A 
ATOM      7  C   UNL     1      -8.593  -6.240   8.249  0.00  0.00    +0.008 A 
ATOM      8  C   UNL     1      -8.964  -5.504   8.232  0.00  0.00    +0.037 A 
BRANCH   3   2
ATOM      1  C   UNL     1     -10.555  -4.438   9.162  0.00  0.00    +0.252 C 
ATOM      2  O   UNL     1     -10.098  -4.683   8.520  0.00  0.00    -0.471 OA
ENDBRANCH   3   2
ENDBRANCH   9   6
ENDBRANCH  12  11
ENDBRANCH  13  12
TORSDOF 6
ENDMDL
