MODEL 1
REMARK VINA RESULT:     -12.9      0.000      0.000
REMARK  Name = 
REMARK  7 active torsions:
REMARK  status: ('A' for Active; 'I' for Inactive)
REMARK    1  A    between atoms: C_7  and  C_8
REMARK    2  A    between atoms: C_8  and  N_9
REMARK    3  A    between atoms: N_9  and  C_10
REMARK    4  A    between atoms: C_10  and  C_11
REMARK    5  A    between atoms: C_13  and  C_14
REMARK    6  A    between atoms: C_14  and  C_15
REMARK    7  A    between atoms: C_18  and  C_20
REMARK                            x       y       z     vdW  Elec       q    Type
REMARK                         _______ _______ _______ _____ _____    ______ ____
ROOT
ATOM     11  C   UNL     1      -4.604   2.861  25.341  0.00  0.00    +0.163 C 
ATOM     12  O   UNL     1      -4.342   2.193  24.934  0.00  0.00    -0.354 OA
ATOM     13  C   UNL     1      -4.851   1.554  24.821  0.00  0.00    +0.121 C 
ATOM     27  C   UNL     1      -5.621   1.582  25.115  0.00  0.00    +0.033 C 
ATOM     28  C   UNL     1      -5.883   2.250  25.522  0.00  0.00    +0.038 C 
ATOM     29  C   UNL     1      -5.374   2.890  25.635  0.00  0.00    +0.180 C 
ATOM     30  O   UNL     1      -5.636   3.558  26.042  0.00  0.00    -0.220 OA
ENDROOT
BRANCH  11  10
ATOM     10  C   UNL     1      -4.095   3.501  25.455  0.00  0.00    +0.121 C 
BRANCH  10   9
ATOM      9  N   UNL     1      -3.278   3.385  25.446  0.00  0.00    -0.211 NA
BRANCH   9   8
ATOM      8  C   UNL     1      -2.770   4.029  25.529  0.00  0.00    +0.115 C 
BRANCH   8   7
ATOM      1  C   UNL     1      -1.824   5.289  25.038  0.00  0.00    +0.031 C 
ATOM      2  C   UNL     1      -1.483   4.555  25.202  0.00  0.00    -0.024 A 
ATOM      3  C   UNL     1      -0.668   4.453  25.119  0.00  0.00    -0.005 A 
ATOM      4  C   UNL     1      -0.326   3.720  25.283  0.00  0.00    -0.000 A 
ATOM      5  C   UNL     1      -0.799   3.090  25.529  0.00  0.00    -0.000 A 
ATOM      6  C   UNL     1      -1.613   3.193  25.611  0.00  0.00    -0.003 A 
ATOM      7  C   UNL     1      -1.955   3.925  25.447  0.00  0.00    -0.009 A 
ENDBRANCH   8   7
ENDBRANCH   9   8
ENDBRANCH  10   9
ENDBRANCH  11  10
BRANCH  13  14
ATOM     14  C   UNL     1      -4.589   0.886  24.414  0.00  0.00    +0.079 C 
BRANCH  14  15
ATOM     15  C   UNL     1      -4.130   0.320  24.802  0.00  0.00    +0.103 A 
ATOM     16  N   UNL     1      -4.381  -0.171  25.415  0.00  0.00    -0.081 NA
ATOM     17  O   UNL     1      -3.745  -0.648  25.636  0.00  0.00    -0.354 OA
ATOM     18  C   UNL     1      -3.101  -0.451  25.160  0.00  0.00    +0.177 A 
ATOM     19  C   UNL     1      -3.339   0.148  24.644  0.00  0.00    +0.058 A 
BRANCH  18  20
ATOM     20  C   UNL     1      -2.350  -0.793  25.193  0.00  0.00    +0.037 A 
ATOM     21  C   UNL     1      -2.198  -1.494  24.786  0.00  0.00    +0.005 A 
ATOM     22  C   UNL     1      -1.448  -1.836  24.820  0.00  0.00    +0.030 A 
ATOM     23  C   UNL     1      -0.850  -1.476  25.261  0.00  0.00    +0.140 A 
ATOM     24  F   UNL     1      -0.100  -1.818  25.295  0.00  0.00    -0.204 F 
ATOM     25  C   UNL     1      -1.003  -0.775  25.668  0.00  0.00    +0.030 A 
ATOM     26  C   UNL     1      -1.753  -0.433  25.634  0.00  0.00    +0.005 A 
ENDBRANCH  18  20
ENDBRANCH  14  15
ENDBRANCH  13  14
TORSDOF 7
ENDMDL
MODEL 2
REMARK VINA RESULT:     -12.8      1.693      3.489
REMARK  Name = 
REMARK  7 active torsions:
REMARK  status: ('A' for Active; 'I' for Inactive)
REMARK    1  A    between atoms: C_7  and  C_8
REMARK    2  A    between atoms: C_8  and  N_9
REMARK    3  A    between atoms: N_9  and  C_10
REMARK    4  A    between atoms: C_10  and  C_11
REMARK    5  A    between atoms: C_13  and  C_14
REMARK    6  A    between atoms: C_14  and  C_15
REMARK    7  A    between atoms: C_18  and  C_20
REMARK                            x       y       z     vdW  Elec       q    Type
REMARK                         _______ _______ _______ _____ _____    ______ ____
ROOT
ATOM     11  C   UNL     1      -1.629   2.767  25.105  0.00  0.00    +0.163 C 
ATOM     12  O   UNL     1      -1.449   2.006  24.841  0.00  0.00    -0.354 OA
ATOM     13  C   UNL     1      -0.729   1.659  25.043  0.00  0.00    +0.121 C 
ATOM     27  C   UNL     1      -0.188   2.073  25.509  0.00  0.00    +0.033 C 
ATOM     28  C   UNL     1      -0.367   2.833  25.772  0.00  0.00    +0.038 C 
ATOM     29  C   UNL     1      -1.088   3.181  25.570  0.00  0.00    +0.180 C 
ATOM     30  O   UNL     1      -1.267   3.942  25.834  0.00  0.00    -0.220 OA
ENDROOT
BRANCH  11  10
ATOM     10  C   UNL     1      -2.349   3.114  24.903  0.00  0.00    +0.121 C 
BRANCH  10   9
ATOM      9  N   UNL     1      -3.048   2.680  24.963  0.00  0.00    -0.211 NA
BRANCH   9   8
ATOM      8  C   UNL     1      -3.776   3.055  24.870  0.00  0.00    +0.115 C 
BRANCH   8   7
ATOM      1  C   UNL     1      -5.097   3.774  25.551  0.00  0.00    +0.031 C 
ATOM      2  C   UNL     1      -5.136   2.987  25.302  0.00  0.00    -0.024 A 
ATOM      3  C   UNL     1      -5.837   2.561  25.395  0.00  0.00    -0.005 A 
ATOM      4  C   UNL     1      -5.876   1.774  25.147  0.00  0.00    -0.000 A 
ATOM      5  C   UNL     1      -5.216   1.415  24.806  0.00  0.00    -0.000 A 
ATOM      6  C   UNL     1      -4.516   1.843  24.714  0.00  0.00    -0.003 A 
ATOM      7  C   UNL     1      -4.476   2.628  24.962  0.00  0.00    -0.009 A 
ENDBRANCH   8   7
ENDBRANCH   9   8
ENDBRANCH  10   9
ENDBRANCH  11  10
BRANCH  13  14
ATOM     14  C   UNL     1      -0.549   0.899  24.780  0.00  0.00    +0.079 C 
BRANCH  14  15
ATOM     15  C   UNL     1      -0.938   0.247  25.106  0.00  0.00    +0.103 A 
ATOM     16  N   UNL     1      -0.850  -0.034  25.876  0.00  0.00    -0.081 NA
ATOM     17  O   UNL     1      -1.340  -0.693  25.964  0.00  0.00    -0.354 OA
ATOM     18  C   UNL     1      -1.730  -0.818  25.248  0.00  0.00    +0.177 A 
ATOM     19  C   UNL     1      -1.481  -0.237  24.717  0.00  0.00    +0.058 A 
BRANCH  18  20
ATOM     20  C   UNL     1      -2.273  -1.419  25.090  0.00  0.00    +0.037 A 
ATOM     21  C   UNL     1      -2.049  -2.068  24.633  0.00  0.00    +0.005 A 
ATOM     22  C   UNL     1      -2.592  -2.669  24.475  0.00  0.00    +0.030 A 
ATOM     23  C   UNL     1      -3.360  -2.620  24.776  0.00  0.00    +0.140 A 
ATOM     24  F   UNL     1      -3.903  -3.221  24.618  0.00  0.00    -0.204 F 
ATOM     25  C   UNL     1      -3.583  -1.971  25.233  0.00  0.00    +0.030 A 
ATOM     26  C   UNL     1      -3.039  -1.370  25.391  0.00  0.00    +0.005 A 
ENDBRANCH  18  20
ENDBRANCH  14  15
ENDBRANCH  13  14
TORSDOF 7
ENDMDL
MODEL 3
REMARK VINA RESULT:     -12.6      1.945      4.112
REMARK  Name = 
REMARK  7 active torsions:
REMARK  status: ('A' for Active; 'I' for Inactive)
REMARK    1  A    between atoms: C_7  and  C_8
REMARK    2  A    between atoms: C_8  and  N_9
REMARK    3  A    between atoms: N_9  and  C_10
REMARK    4  A    between atoms: C_10  and  C_11
REMARK    5  A    between atoms: C_13  and  C_14
REMARK    6  A    between atoms: C_14  and  C_15
REMARK    7  A    between atoms: C_18  and  C_20
REMARK                            x       y       z     vdW  Elec       q    Type
REMARK                         _______ _______ _______ _____ _____    ______ ____
ROOT
ATOM     11  C   UNL     1      -3.691  -1.014  24.705  0.00  0.00    +0.163 C 
ATOM     12  O   UNL     1      -3.006  -0.797  25.110  0.00  0.00    -0.354 OA
ATOM     13  C   UNL     1      -2.362  -1.312  25.138  0.00  0.00    +0.121 C 
ATOM     27  C   UNL     1      -2.404  -2.045  24.760  0.00  0.00    +0.033 C 
ATOM     28  C   UNL     1      -3.089  -2.263  24.356  0.00  0.00    +0.038 C 
ATOM     29  C   UNL     1      -3.733  -1.747  24.328  0.00  0.00    +0.180 C 
ATOM     30  O   UNL     1      -4.418  -1.965  23.923  0.00  0.00    -0.220 OA
ENDROOT
BRANCH  11  10
ATOM     10  C   UNL     1      -4.335  -0.500  24.678  0.00  0.00    +0.121 C 
BRANCH  10   9
ATOM      9  N   UNL     1      -4.215   0.305  24.539  0.00  0.00    -0.211 NA
BRANCH   9   8
ATOM      8  C   UNL     1      -4.798   0.851  24.745  0.00  0.00    +0.115 C 
BRANCH   8   7
ATOM      1  C   UNL     1      -5.580   1.923  25.725  0.00  0.00    +0.031 C 
ATOM      2  C   UNL     1      -5.042   2.195  25.161  0.00  0.00    -0.024 A 
ATOM      3  C   UNL     1      -4.897   3.004  25.087  0.00  0.00    -0.005 A 
ATOM      4  C   UNL     1      -4.359   3.277  24.523  0.00  0.00    -0.000 A 
ATOM      5  C   UNL     1      -3.968   2.741  24.033  0.00  0.00    -0.000 A 
ATOM      6  C   UNL     1      -4.114   1.932  24.107  0.00  0.00    -0.003 A 
ATOM      7  C   UNL     1      -4.651   1.659  24.671  0.00  0.00    -0.009 A 
ENDBRANCH   8   7
ENDBRANCH   9   8
ENDBRANCH  10   9
ENDBRANCH  11  10
BRANCH  13  14
ATOM     14  C   UNL     1      -1.678  -1.095  25.542  0.00  0.00    +0.079 C 
BRANCH  14  15
ATOM     15  C   UNL     1      -1.224  -0.459  25.274  0.00  0.00    +0.103 A 
ATOM     16  N   UNL     1      -0.617  -0.497  24.718  0.00  0.00    -0.081 NA
ATOM     17  O   UNL     1      -0.316   0.265  24.616  0.00  0.00    -0.354 OA
ATOM     18  C   UNL     1      -0.739   0.773  25.109  0.00  0.00    +0.177 A 
ATOM     19  C   UNL     1      -1.300   0.326  25.517  0.00  0.00    +0.058 A 
BRANCH  18  20
ATOM     20  C   UNL     1      -0.620   1.587  25.183  0.00  0.00    +0.037 A 
ATOM     21  C   UNL     1      -0.747   1.958  25.908  0.00  0.00    +0.005 A 
ATOM     22  C   UNL     1      -0.628   2.772  25.981  0.00  0.00    +0.030 A 
ATOM     23  C   UNL     1      -0.383   3.213  25.328  0.00  0.00    +0.140 A 
ATOM     24  F   UNL     1      -0.265   4.026  25.401  0.00  0.00    -0.204 F 
ATOM     25  C   UNL     1      -0.257   2.841  24.603  0.00  0.00    +0.030 A 
ATOM     26  C   UNL     1      -0.375   2.028  24.530  0.00  0.00    +0.005 A 
ENDBRANCH  18  20
ENDBRANCH  14  15
ENDBRANCH  13  14
TORSDOF 7
ENDMDL
MODEL 4
REMARK VINA RESULT:     -12.5      1.326      3.994
REMARK  Name = 
REMARK  7 active torsions:
REMARK  status: ('A' for Active; 'I' for Inactive)
REMARK    1  A    between atoms: C_7  and  C_8
REMARK    2  A    between atoms: C_8  and  N_9
REMARK    3  A    between atoms: N_9  and  C_10
REMARK    4  A    between atoms: C_10  and  C_11
REMARK    5  A    between atoms: C_13  and  C_14
REMARK    6  A    between atoms: C_14  and  C_15
REMARK    7  A    between atoms: C_18  and  C_20
REMARK                            x       y       z     vdW  Elec       q    Type
REMARK                         _______ _______ _______ _____ _____    ______ ____
ROOT
ATOM     11  C   UNL     1      -5.173   1.839  25.127  0.00  0.00    +0.163 C 
ATOM     12  O   UNL     1      -4.593   2.347  24.832  0.00  0.00    -0.354 OA
ATOM     13  C   UNL     1      -4.598   3.144  25.040  0.00  0.00    +0.121 C 
ATOM     27  C   UNL     1      -5.182   3.436  25.544  0.00  0.00    +0.033 C 
ATOM     28  C   UNL     1      -5.762   2.930  25.840  0.00  0.00    +0.038 C 
ATOM     29  C   UNL     1      -5.758   2.131  25.631  0.00  0.00    +0.180 C 
ATOM     30  O   UNL     1      -6.338   1.625  25.927  0.00  0.00    -0.220 OA
ENDROOT
BRANCH  11  10
ATOM     10  C   UNL     1      -5.169   1.042  24.919  0.00  0.00    +0.121 C 
BRANCH  10   9
ATOM      9  N   UNL     1      -4.483   0.593  25.015  0.00  0.00    -0.211 NA
BRANCH   9   8
ATOM      8  C   UNL     1      -4.432  -0.159  24.683  0.00  0.00    +0.115 C 
BRANCH   8   7
ATOM      1  C   UNL     1      -4.283  -1.623  23.936  0.00  0.00    +0.031 C 
ATOM      2  C   UNL     1      -3.702  -1.367  24.463  0.00  0.00    -0.024 A 
ATOM      3  C   UNL     1      -3.046  -1.844  24.616  0.00  0.00    -0.005 A 
ATOM      4  C   UNL     1      -2.464  -1.589  25.143  0.00  0.00    -0.000 A 
ATOM      5  C   UNL     1      -2.539  -0.857  25.516  0.00  0.00    -0.000 A 
ATOM      6  C   UNL     1      -3.195  -0.381  25.363  0.00  0.00    -0.003 A 
ATOM      7  C   UNL     1      -3.776  -0.636  24.836  0.00  0.00    -0.009 A 
ENDBRANCH   8   7
ENDBRANCH   9   8
ENDBRANCH  10   9
ENDBRANCH  11  10
BRANCH  13  14
ATOM     14  C   UNL     1      -4.018   3.651  24.744  0.00  0.00    +0.079 C 
BRANCH  14  15
ATOM     15  C   UNL     1      -3.254   3.630  25.056  0.00  0.00    +0.103 A 
ATOM     16  N   UNL     1      -2.971   4.094  25.676  0.00  0.00    -0.081 NA
ATOM     17  O   UNL     1      -2.181   3.892  25.805  0.00  0.00    -0.354 OA
ATOM     18  C   UNL     1      -1.977   3.302  25.265  0.00  0.00    +0.177 A 
ATOM     19  C   UNL     1      -2.640   3.140  24.802  0.00  0.00    +0.058 A 
BRANCH  18  20
ATOM     20  C   UNL     1      -1.238   2.939  25.200  0.00  0.00    +0.037 A 
ATOM     21  C   UNL     1      -0.871   2.881  24.464  0.00  0.00    +0.005 A 
ATOM     22  C   UNL     1      -0.133   2.518  24.399  0.00  0.00    +0.030 A 
ATOM     23  C   UNL     1       0.237   2.213  25.071  0.00  0.00    +0.140 A 
ATOM     24  F   UNL     1       0.975   1.849  25.006  0.00  0.00    -0.204 F 
ATOM     25  C   UNL     1      -0.131   2.271  25.807  0.00  0.00    +0.030 A 
ATOM     26  C   UNL     1      -0.869   2.634  25.872  0.00  0.00    +0.005 A 
ENDBRANCH  18  20
ENDBRANCH  14  15
ENDBRANCH  13  14
TORSDOF 7
ENDMDL
MODEL 5
REMARK VINA RESULT:     -12.5      2.071      5.223
REMARK  Name = 
REMARK  7 active torsions:
REMARK  status: ('A' for Active; 'I' for Inactive)
REMARK    1  A    between atoms: C_7  and  C_8
REMARK    2  A    between atoms: C_8  and  N_9
REMARK    3  A    between atoms: N_9  and  C_10
REMARK    4  A    between atoms: C_10  and  C_11
REMARK    5  A    between atoms: C_13  and  C_14
REMARK    6  A    between atoms: C_14  and  C_15
REMARK    7  A    between atoms: C_18  and  C_20
REMARK                            x       y       z     vdW  Elec       q    Type
REMARK                         _______ _______ _______ _____ _____    ______ ____
ROOT
ATOM     11  C   UNL     1      -0.587   1.314  24.948  0.00  0.00    +0.163 C 
ATOM     12  O   UNL     1      -1.113   1.813  25.343  0.00  0.00    -0.354 OA
ATOM     13  C   UNL     1      -1.078   2.628  25.223  0.00  0.00    +0.121 C 
ATOM     27  C   UNL     1      -0.517   2.945  24.708  0.00  0.00    +0.033 C 
ATOM     28  C   UNL     1       0.009   2.447  24.312  0.00  0.00    +0.038 C 
ATOM     29  C   UNL     1      -0.027   1.631  24.433  0.00  0.00    +0.180 C 
ATOM     30  O   UNL     1       0.499   1.134  24.037  0.00  0.00    -0.220 OA
ENDROOT
BRANCH  11  10
ATOM     10  C   UNL     1      -0.622   0.499  25.068  0.00  0.00    +0.121 C 
BRANCH  10   9
ATOM      9  N   UNL     1      -1.353   0.122  25.137  0.00  0.00    -0.211 NA
BRANCH   9   8
ATOM      8  C   UNL     1      -1.392  -0.700  25.169  0.00  0.00    +0.115 C 
BRANCH   8   7
ATOM      1  C   UNL     1      -1.602  -2.172  24.454  0.00  0.00    +0.031 C 
ATOM      2  C   UNL     1      -2.229  -1.814  24.854  0.00  0.00    -0.024 A 
ATOM      3  C   UNL     1      -2.961  -2.193  24.895  0.00  0.00    -0.005 A 
ATOM      4  C   UNL     1      -3.589  -1.835  25.295  0.00  0.00    -0.000 A 
ATOM      5  C   UNL     1      -3.484  -1.099  25.652  0.00  0.00    -0.000 A 
ATOM      6  C   UNL     1      -2.751  -0.721  25.610  0.00  0.00    -0.003 A 
ATOM      7  C   UNL     1      -2.125  -1.078  25.211  0.00  0.00    -0.009 A 
ENDBRANCH   8   7
ENDBRANCH   9   8
ENDBRANCH  10   9
ENDBRANCH  11  10
BRANCH  13  14
ATOM     14  C   UNL     1      -1.603   3.126  25.618  0.00  0.00    +0.079 C 
BRANCH  14  15
ATOM     15  C   UNL     1      -2.370   3.229  25.329  0.00  0.00    +0.103 A 
ATOM     16  N   UNL     1      -2.615   3.819  24.807  0.00  0.00    -0.081 NA
ATOM     17  O   UNL     1      -3.422   3.715  24.667  0.00  0.00    -0.354 OA
ATOM     18  C   UNL     1      -3.674   3.062  25.102  0.00  0.00    +0.177 A 
ATOM     19  C   UNL     1      -3.024   2.761  25.511  0.00  0.00    +0.058 A 
BRANCH  18  20
ATOM     20  C   UNL     1      -4.443   2.761  25.124  0.00  0.00    +0.037 A 
ATOM     21  C   UNL     1      -4.972   3.025  25.699  0.00  0.00    +0.005 A 
ATOM     22  C   UNL     1      -5.741   2.725  25.721  0.00  0.00    +0.030 A 
ATOM     23  C   UNL     1      -5.978   2.160  25.167  0.00  0.00    +0.140 A 
ATOM     24  F   UNL     1      -6.747   1.859  25.189  0.00  0.00    -0.204 F 
ATOM     25  C   UNL     1      -5.449   1.897  24.593  0.00  0.00    +0.030 A 
ATOM     26  C   UNL     1      -4.680   2.197  24.571  0.00  0.00    +0.005 A 
ENDBRANCH  18  20
ENDBRANCH  14  15
ENDBRANCH  13  14
TORSDOF 7
ENDMDL
MODEL 6
REMARK VINA RESULT:     -12.4      1.988      4.136
REMARK  Name = 
REMARK  7 active torsions:
REMARK  status: ('A' for Active; 'I' for Inactive)
REMARK    1  A    between atoms: C_7  and  C_8
REMARK    2  A    between atoms: C_8  and  N_9
REMARK    3  A    between atoms: N_9  and  C_10
REMARK    4  A    between atoms: C_10  and  C_11
REMARK    5  A    between atoms: C_13  and  C_14
REMARK    6  A    between atoms: C_14  and  C_15
REMARK    7  A    between atoms: C_18  and  C_20
REMARK                            x       y       z     vdW  Elec       q    Type
REMARK                         _______ _______ _______ _____ _____    ______ ____
ROOT
ATOM     11  C   UNL     1      -1.360  -0.734  25.092  0.00  0.00    +0.163 C 
ATOM     12  O   UNL     1      -2.140  -0.614  25.335  0.00  0.00    -0.354 OA
ATOM     13  C   UNL     1      -2.710  -1.191  25.191  0.00  0.00    +0.121 C 
ATOM     27  C   UNL     1      -2.502  -1.890  24.804  0.00  0.00    +0.033 C 
ATOM     28  C   UNL     1      -1.723  -2.011  24.561  0.00  0.00    +0.038 C 
ATOM     29  C   UNL     1      -1.152  -1.432  24.705  0.00  0.00    +0.180 C 
ATOM     30  O   UNL     1      -0.373  -1.553  24.462  0.00  0.00    -0.220 OA
ENDROOT
BRANCH  11  10
ATOM     10  C   UNL     1      -0.790  -0.156  25.235  0.00  0.00    +0.121 C 
BRANCH  10   9
ATOM      9  N   UNL     1      -0.937   0.630  25.031  0.00  0.00    -0.211 NA
BRANCH   9   8
ATOM      8  C   UNL     1      -0.491   1.235  25.370  0.00  0.00    +0.115 C 
BRANCH   8   7
ATOM      1  C   UNL     1      -0.270   2.441  26.473  0.00  0.00    +0.031 C 
ATOM      2  C   UNL     1      -0.518   2.623  25.707  0.00  0.00    -0.024 A 
ATOM      3  C   UNL     1      -0.656   3.408  25.494  0.00  0.00    -0.005 A 
ATOM      4  C   UNL     1      -0.904   3.589  24.728  0.00  0.00    -0.000 A 
ATOM      5  C   UNL     1      -1.014   2.986  24.176  0.00  0.00    -0.000 A 
ATOM      6  C   UNL     1      -0.876   2.201  24.390  0.00  0.00    -0.003 A 
ATOM      7  C   UNL     1      -0.629   2.020  25.155  0.00  0.00    -0.009 A 
ENDBRANCH   8   7
ENDBRANCH   9   8
ENDBRANCH  10   9
ENDBRANCH  11  10
BRANCH  13  14
ATOM     14  C   UNL     1      -3.489  -1.071  25.434  0.00  0.00    +0.079 C 
BRANCH  14  15
ATOM     15  C   UNL     1      -3.933  -0.457  25.107  0.00  0.00    +0.103 A 
ATOM     16  N   UNL     1      -4.287  -0.458  24.362  0.00  0.00    -0.081 NA
ATOM     17  O   UNL     1      -4.674   0.264  24.263  0.00  0.00    -0.354 OA
ATOM     18  C   UNL     1      -4.559   0.711  24.946  0.00  0.00    +0.177 A 
ATOM     19  C   UNL     1      -4.101   0.265  25.469  0.00  0.00    +0.058 A 
BRANCH  18  20
ATOM     20  C   UNL     1      -4.850   1.471  25.084  0.00  0.00    +0.037 A 
ATOM     21  C   UNL     1      -5.563   1.572  25.486  0.00  0.00    +0.005 A 
ATOM     22  C   UNL     1      -5.854   2.332  25.624  0.00  0.00    +0.030 A 
ATOM     23  C   UNL     1      -5.432   2.990  25.358  0.00  0.00    +0.140 A 
ATOM     24  F   UNL     1      -5.724   3.750  25.495  0.00  0.00    -0.204 F 
ATOM     25  C   UNL     1      -4.720   2.888  24.955  0.00  0.00    +0.030 A 
ATOM     26  C   UNL     1      -4.429   2.128  24.818  0.00  0.00    +0.005 A 
ENDBRANCH  18  20
ENDBRANCH  14  15
ENDBRANCH  13  14
TORSDOF 7
ENDMDL
