MODEL 1
REMARK VINA RESULT:     -10.2      0.000      0.000
REMARK  Name = 
REMARK  7 active torsions:
REMARK  status: ('A' for Active; 'I' for Inactive)
REMARK    1  A    between atoms: C_2  and  C_4
REMARK    2  A    between atoms: C_6  and  C_7
REMARK    3  A    between atoms: C_7  and  C_8
REMARK    4  A    between atoms: N_10  and  C_11
REMARK    5  A    between atoms: C_20  and  C_21
REMARK    6  A    between atoms: C_21  and  N_22
REMARK    7  A    between atoms: C_23  and  C_25
REMARK                            x       y       z     vdW  Elec       q    Type
REMARK                         _______ _______ _______ _____ _____    ______ ____
ROOT
ATOM      4  C   UNL     1      -2.091   1.060  24.903  0.00  0.00    +0.006 C 
ATOM      5  C   UNL     1      -2.728   0.555  24.760  0.00  0.00    +0.005 C 
ATOM      6  C   UNL     1      -3.489   0.863  24.687  0.00  0.00    +0.027 C 
ATOM     17  C   UNL     1      -3.614   1.676  24.757  0.00  0.00    -0.048 C 
ATOM     18  C   UNL     1      -4.376   1.984  24.684  0.00  0.00    +0.026 C 
ATOM     19  C   UNL     1      -2.977   2.180  24.900  0.00  0.00    -0.033 C 
ATOM     20  C   UNL     1      -2.216   1.872  24.973  0.00  0.00    +0.043 C 
ENDROOT
BRANCH   4   2
ATOM      1  C   UNL     1      -1.061   0.484  25.708  0.00  0.00    +0.000 C 
ATOM      2  C   UNL     1      -1.329   0.752  24.976  0.00  0.00    +0.000 C 
ATOM      3  C   UNL     1      -0.836   0.712  24.315  0.00  0.00    +0.000 C 
ENDBRANCH   4   2
BRANCH   6   7
ATOM      7  C   UNL     1      -4.127   0.359  24.544  0.00  0.00    +0.091 C 
BRANCH   7   8
ATOM      8  C   UNL     1      -3.993  -0.412  24.283  0.00  0.00    +0.247 C 
ATOM      9  O   UNL     1      -3.699  -0.544  23.524  0.00  0.00    -0.273 OA
ATOM     10  N   UNL     1      -4.154  -1.049  24.780  0.00  0.00    -0.160 NA
BRANCH  10  11
ATOM     11  C   UNL     1      -4.021  -1.821  24.518  0.00  0.00    +0.154 A 
ATOM     12  C   UNL     1      -3.467  -2.297  24.902  0.00  0.00    +0.036 A 
ATOM     13  C   UNL     1      -3.333  -3.068  24.641  0.00  0.00    +0.005 A 
ATOM     14  C   UNL     1      -3.754  -3.363  23.994  0.00  0.00    +0.021 A 
ATOM     15  C   UNL     1      -4.307  -2.886  23.610  0.00  0.00    +0.100 A 
ATOM     16  N   UNL     1      -4.440  -2.116  23.872  0.00  0.00    -0.227 NA
ENDBRANCH  10  11
ENDBRANCH   7   8
ENDBRANCH   6   7
BRANCH  20  21
ATOM     21  C   UNL     1      -1.578   2.377  25.115  0.00  0.00    +0.120 C 
BRANCH  21  22
ATOM     22  N   UNL     1      -1.651   3.185  24.969  0.00  0.00    -0.199 NA
ATOM     23  C   UNL     1      -1.096   3.711  25.277  0.00  0.00    +0.299 C 
ATOM     24  O   UNL     1      -0.467   3.430  25.731  0.00  0.00    -0.265 OA
BRANCH  23  25
ATOM     25  C   UNL     1      -1.169   4.521  25.131  0.00  0.00    +0.200 A 
ATOM     26  C   UNL     1      -0.655   4.979  24.677  0.00  0.00    +0.046 A 
ATOM     27  C   UNL     1      -0.937   5.755  24.679  0.00  0.00    +0.044 A 
ATOM     28  C   UNL     1      -1.625   5.775  25.133  0.00  0.00    +0.180 A 
ATOM     29  O   UNL     1      -1.768   5.012  25.413  0.00  0.00    -0.446 OA
ENDBRANCH  23  25
ENDBRANCH  21  22
ENDBRANCH  20  21
TORSDOF 7
ENDMDL
MODEL 2
REMARK VINA RESULT:      -9.9      1.303      5.667
REMARK  Name = 
REMARK  7 active torsions:
REMARK  status: ('A' for Active; 'I' for Inactive)
REMARK    1  A    between atoms: C_2  and  C_4
REMARK    2  A    between atoms: C_6  and  C_7
REMARK    3  A    between atoms: C_7  and  C_8
REMARK    4  A    between atoms: N_10  and  C_11
REMARK    5  A    between atoms: C_20  and  C_21
REMARK    6  A    between atoms: C_21  and  N_22
REMARK    7  A    between atoms: C_23  and  C_25
REMARK                            x       y       z     vdW  Elec       q    Type
REMARK                         _______ _______ _______ _____ _____    ______ ____
ROOT
ATOM      4  C   UNL     1      -3.342   1.447  23.849  0.00  0.00    +0.006 C 
ATOM      5  C   UNL     1      -3.383   2.209  24.164  0.00  0.00    +0.005 C 
ATOM      6  C   UNL     1      -3.934   2.383  24.752  0.00  0.00    +0.027 C 
ATOM     17  C   UNL     1      -4.445   1.795  25.026  0.00  0.00    -0.048 C 
ATOM     18  C   UNL     1      -4.997   1.970  25.614  0.00  0.00    +0.026 C 
ATOM     19  C   UNL     1      -4.404   1.034  24.710  0.00  0.00    -0.033 C 
ATOM     20  C   UNL     1      -3.853   0.860  24.123  0.00  0.00    +0.043 C 
ENDROOT
BRANCH   4   2
ATOM      1  C   UNL     1      -2.993   1.364  22.467  0.00  0.00    +0.000 C 
ATOM      2  C   UNL     1      -2.791   1.273  23.261  0.00  0.00    +0.000 C 
ATOM      3  C   UNL     1      -2.038   1.007  23.468  0.00  0.00    +0.000 C 
ENDBRANCH   4   2
BRANCH   6   7
ATOM      7  C   UNL     1      -3.975   3.144  25.067  0.00  0.00    +0.091 C 
BRANCH   7   8
ATOM      8  C   UNL     1      -3.371   3.686  24.918  0.00  0.00    +0.247 C 
ATOM      9  O   UNL     1      -3.370   4.119  24.217  0.00  0.00    -0.273 OA
ATOM     10  N   UNL     1      -2.769   3.794  25.471  0.00  0.00    -0.160 NA
BRANCH  10  11
ATOM     11  C   UNL     1      -2.164   4.337  25.321  0.00  0.00    +0.154 A 
ATOM     12  C   UNL     1      -1.392   4.071  25.202  0.00  0.00    +0.036 A 
ATOM     13  C   UNL     1      -0.788   4.613  25.053  0.00  0.00    +0.005 A 
ATOM     14  C   UNL     1      -0.957   5.421  25.023  0.00  0.00    +0.021 A 
ATOM     15  C   UNL     1      -1.729   5.685  25.142  0.00  0.00    +0.100 A 
ATOM     16  N   UNL     1      -2.333   5.143  25.291  0.00  0.00    -0.227 NA
ENDBRANCH  10  11
ENDBRANCH   7   8
ENDBRANCH   6   7
BRANCH  20  21
ATOM     21  C   UNL     1      -3.813   0.098  23.807  0.00  0.00    +0.120 C 
BRANCH  21  22
ATOM     22  N   UNL     1      -3.628  -0.541  24.295  0.00  0.00    -0.199 NA
ATOM     23  C   UNL     1      -3.849  -1.304  24.076  0.00  0.00    +0.299 C 
ATOM     24  O   UNL     1      -4.255  -1.430  23.368  0.00  0.00    -0.265 OA
BRANCH  23  25
ATOM     25  C   UNL     1      -3.665  -1.944  24.564  0.00  0.00    +0.200 A 
ATOM     26  C   UNL     1      -3.599  -2.731  24.327  0.00  0.00    +0.046 A 
ATOM     27  C   UNL     1      -3.408  -3.182  24.991  0.00  0.00    +0.044 A 
ATOM     28  C   UNL     1      -3.355  -2.673  25.638  0.00  0.00    +0.180 A 
ATOM     29  O   UNL     1      -3.514  -1.907  25.374  0.00  0.00    -0.446 OA
ENDBRANCH  23  25
ENDBRANCH  21  22
ENDBRANCH  20  21
TORSDOF 7
ENDMDL
MODEL 3
REMARK VINA RESULT:      -9.8      1.177      1.960
REMARK  Name = 
REMARK  7 active torsions:
REMARK  status: ('A' for Active; 'I' for Inactive)
REMARK    1  A    between atoms: C_2  and  C_4
REMARK    2  A    between atoms: C_6  and  C_7
REMARK    3  A    between atoms: C_7  and  C_8
REMARK    4  A    between atoms: N_10  and  C_11
REMARK    5  A    between atoms: C_20  and  C_21
REMARK    6  A    between atoms: C_21  and  N_22
REMARK    7  A    between atoms: C_23  and  C_25
REMARK                            x       y       z     vdW  Elec       q    Type
REMARK                         _______ _______ _______ _____ _____    ______ ____
ROOT
ATOM      4  C   UNL     1      -4.220   1.991  24.788  0.00  0.00    +0.006 C 
ATOM      5  C   UNL     1      -4.336   1.278  24.387  0.00  0.00    +0.005 C 
ATOM      6  C   UNL     1      -3.744   0.981  23.897  0.00  0.00    +0.027 C 
ATOM     17  C   UNL     1      -3.035   1.395  23.807  0.00  0.00    -0.048 C 
ATOM     18  C   UNL     1      -2.443   1.096  23.316  0.00  0.00    +0.026 C 
ATOM     19  C   UNL     1      -2.920   2.106  24.207  0.00  0.00    -0.033 C 
ATOM     20  C   UNL     1      -3.512   2.404  24.697  0.00  0.00    +0.043 C 
ENDROOT
BRANCH   4   2
ATOM      1  C   UNL     1      -4.844   2.062  26.071  0.00  0.00    +0.000 C 
ATOM      2  C   UNL     1      -4.812   2.289  25.279  0.00  0.00    +0.000 C 
ATOM      3  C   UNL     1      -5.372   2.815  24.977  0.00  0.00    +0.000 C 
ENDBRANCH   4   2
BRANCH   6   7
ATOM      7  C   UNL     1      -3.859   0.269  23.497  0.00  0.00    +0.091 C 
BRANCH   7   8
ATOM      8  C   UNL     1      -3.935  -0.436  23.920  0.00  0.00    +0.247 C 
ATOM      9  O   UNL     1      -4.633  -0.598  24.327  0.00  0.00    -0.273 OA
ATOM     10  N   UNL     1      -3.313  -0.977  23.934  0.00  0.00    -0.160 NA
BRANCH  10  11
ATOM     11  C   UNL     1      -3.389  -1.682  24.358  0.00  0.00    +0.154 A 
ATOM     12  C   UNL     1      -3.714  -2.347  23.994  0.00  0.00    +0.036 A 
ATOM     13  C   UNL     1      -3.791  -3.052  24.417  0.00  0.00    +0.005 A 
ATOM     14  C   UNL     1      -3.542  -3.090  25.204  0.00  0.00    +0.021 A 
ATOM     15  C   UNL     1      -3.217  -2.424  25.566  0.00  0.00    +0.100 A 
ATOM     16  N   UNL     1      -3.141  -1.720  25.143  0.00  0.00    -0.227 NA
ENDBRANCH  10  11
ENDBRANCH   7   8
ENDBRANCH   6   7
BRANCH  20  21
ATOM     21  C   UNL     1      -3.396   3.117  25.098  0.00  0.00    +0.120 C 
BRANCH  21  22
ATOM     22  N   UNL     1      -2.757   3.601  24.903  0.00  0.00    -0.199 NA
ATOM     23  C   UNL     1      -2.466   4.141  25.454  0.00  0.00    +0.299 C 
ATOM     24  O   UNL     1      -2.812   4.197  26.201  0.00  0.00    -0.265 OA
BRANCH  23  25
ATOM     25  C   UNL     1      -1.826   4.625  25.258  0.00  0.00    +0.200 A 
ATOM     26  C   UNL     1      -1.860   5.438  25.119  0.00  0.00    +0.046 A 
ATOM     27  C   UNL     1      -1.096   5.697  24.942  0.00  0.00    +0.044 A 
ATOM     28  C   UNL     1      -0.592   5.045  24.973  0.00  0.00    +0.180 A 
ATOM     29  O   UNL     1      -1.044   4.382  25.168  0.00  0.00    -0.446 OA
ENDBRANCH  23  25
ENDBRANCH  21  22
ENDBRANCH  20  21
TORSDOF 7
ENDMDL
MODEL 4
REMARK VINA RESULT:      -9.3      2.829      4.322
REMARK  Name = 
REMARK  7 active torsions:
REMARK  status: ('A' for Active; 'I' for Inactive)
REMARK    1  A    between atoms: C_2  and  C_4
REMARK    2  A    between atoms: C_6  and  C_7
REMARK    3  A    between atoms: C_7  and  C_8
REMARK    4  A    between atoms: N_10  and  C_11
REMARK    5  A    between atoms: C_20  and  C_21
REMARK    6  A    between atoms: C_21  and  N_22
REMARK    7  A    between atoms: C_23  and  C_25
REMARK                            x       y       z     vdW  Elec       q    Type
REMARK                         _______ _______ _______ _____ _____    ______ ____
ROOT
ATOM      4  C   UNL     1      -1.473   1.350  24.674  0.00  0.00    +0.006 C 
ATOM      5  C   UNL     1      -2.082   1.906  24.634  0.00  0.00    +0.005 C 
ATOM      6  C   UNL     1      -2.381   2.137  23.901  0.00  0.00    +0.027 C 
ATOM     17  C   UNL     1      -2.072   1.813  23.208  0.00  0.00    -0.048 C 
ATOM     18  C   UNL     1      -2.372   2.044  22.475  0.00  0.00    +0.026 C 
ATOM     19  C   UNL     1      -1.464   1.257  23.249  0.00  0.00    -0.033 C 
ATOM     20  C   UNL     1      -1.165   1.026  23.981  0.00  0.00    +0.043 C 
ENDROOT
BRANCH   4   2
ATOM      1  C   UNL     1      -0.611   1.585  25.788  0.00  0.00    +0.000 C 
ATOM      2  C   UNL     1      -1.174   1.119  25.407  0.00  0.00    +0.000 C 
ATOM      3  C   UNL     1      -1.438   0.420  25.758  0.00  0.00    +0.000 C 
ENDBRANCH   4   2
BRANCH   6   7
ATOM      7  C   UNL     1      -2.989   2.693  23.860  0.00  0.00    +0.091 C 
BRANCH   7   8
ATOM      8  C   UNL     1      -3.587   2.694  24.430  0.00  0.00    +0.247 C 
ATOM      9  O   UNL     1      -3.443   3.012  25.177  0.00  0.00    -0.273 OA
ATOM     10  N   UNL     1      -4.327   2.378  24.251  0.00  0.00    -0.160 NA
BRANCH  10  11
ATOM     11  C   UNL     1      -4.925   2.380  24.821  0.00  0.00    +0.154 A 
ATOM     12  C   UNL     1      -5.237   1.666  25.092  0.00  0.00    +0.036 A 
ATOM     13  C   UNL     1      -5.835   1.667  25.661  0.00  0.00    +0.005 A 
ATOM     14  C   UNL     1      -6.119   2.383  25.959  0.00  0.00    +0.021 A 
ATOM     15  C   UNL     1      -5.806   3.096  25.687  0.00  0.00    +0.100 A 
ATOM     16  N   UNL     1      -5.209   3.094  25.118  0.00  0.00    -0.227 NA
ENDBRANCH  10  11
ENDBRANCH   7   8
ENDBRANCH   6   7
BRANCH  20  21
ATOM     21  C   UNL     1      -0.556   0.470  24.022  0.00  0.00    +0.120 C 
BRANCH  21  22
ATOM     22  N   UNL     1       0.079   0.515  23.497  0.00  0.00    -0.199 NA
ATOM     23  C   UNL     1       0.570  -0.139  23.387  0.00  0.00    +0.299 C 
ATOM     24  O   UNL     1       0.425  -0.838  23.801  0.00  0.00    -0.265 OA
BRANCH  23  25
ATOM     25  C   UNL     1       1.206  -0.094  22.862  0.00  0.00    +0.200 A 
ATOM     26  C   UNL     1       1.954   0.208  23.033  0.00  0.00    +0.046 A 
ATOM     27  C   UNL     1       2.415   0.145  22.351  0.00  0.00    +0.044 A 
ATOM     28  C   UNL     1       1.951  -0.195  21.760  0.00  0.00    +0.180 A 
ATOM     29  O   UNL     1       1.203  -0.343  22.076  0.00  0.00    -0.446 OA
ENDBRANCH  23  25
ENDBRANCH  21  22
ENDBRANCH  20  21
TORSDOF 7
ENDMDL
MODEL 5
REMARK VINA RESULT:      -8.9      1.570      2.005
REMARK  Name = 
REMARK  7 active torsions:
REMARK  status: ('A' for Active; 'I' for Inactive)
REMARK    1  A    between atoms: C_2  and  C_4
REMARK    2  A    between atoms: C_6  and  C_7
REMARK    3  A    between atoms: C_7  and  C_8
REMARK    4  A    between atoms: N_10  and  C_11
REMARK    5  A    between atoms: C_20  and  C_21
REMARK    6  A    between atoms: C_21  and  N_22
REMARK    7  A    between atoms: C_23  and  C_25
REMARK                            x       y       z     vdW  Elec       q    Type
REMARK                         _______ _______ _______ _____ _____    ______ ____
ROOT
ATOM      4  C   UNL     1      -0.492   0.428  24.320  0.00  0.00    +0.006 C 
ATOM      5  C   UNL     1      -0.721  -0.351  24.470  0.00  0.00    +0.005 C 
ATOM      6  C   UNL     1      -1.014  -0.558  25.212  0.00  0.00    +0.027 C 
ATOM     17  C   UNL     1      -1.077   0.013  25.805  0.00  0.00    -0.048 C 
ATOM     18  C   UNL     1      -1.370  -0.195  26.548  0.00  0.00    +0.026 C 
ATOM     19  C   UNL     1      -0.848   0.791  25.655  0.00  0.00    -0.033 C 
ATOM     20  C   UNL     1      -0.555   0.998  24.913  0.00  0.00    +0.043 C 
ENDROOT
BRANCH   4   2
ATOM      1  C   UNL     1       0.605   0.557  23.414  0.00  0.00    +0.000 C 
ATOM      2  C   UNL     1      -0.199   0.636  23.577  0.00  0.00    +0.000 C 
ATOM      3  C   UNL     1      -0.712   0.923  22.997  0.00  0.00    +0.000 C 
ENDBRANCH   4   2
BRANCH   6   7
ATOM      7  C   UNL     1      -1.243  -1.336  25.363  0.00  0.00    +0.091 C 
BRANCH   7   8
ATOM      8  C   UNL     1      -1.829  -1.690  24.904  0.00  0.00    +0.247 C 
ATOM      9  O   UNL     1      -1.626  -2.089  24.212  0.00  0.00    -0.273 OA
ATOM     10  N   UNL     1      -2.619  -1.645  25.137  0.00  0.00    -0.160 NA
BRANCH  10  11
ATOM     11  C   UNL     1      -3.206  -2.000  24.677  0.00  0.00    +0.154 A 
ATOM     12  C   UNL     1      -3.730  -1.531  24.245  0.00  0.00    +0.036 A 
ATOM     13  C   UNL     1      -4.316  -1.885  23.785  0.00  0.00    +0.005 A 
ATOM     14  C   UNL     1      -4.379  -2.708  23.758  0.00  0.00    +0.021 A 
ATOM     15  C   UNL     1      -3.855  -3.175  24.191  0.00  0.00    +0.100 A 
ATOM     16  N   UNL     1      -3.268  -2.821  24.650  0.00  0.00    -0.227 NA
ENDBRANCH  10  11
ENDBRANCH   7   8
ENDBRANCH   6   7
BRANCH  20  21
ATOM     21  C   UNL     1      -0.326   1.777  24.762  0.00  0.00    +0.120 C 
BRANCH  21  22
ATOM     22  N   UNL     1      -0.843   2.398  24.925  0.00  0.00    -0.199 NA
ATOM     23  C   UNL     1      -0.549   3.161  25.036  0.00  0.00    +0.299 C 
ATOM     24  O   UNL     1       0.262   3.303  24.984  0.00  0.00    -0.265 OA
BRANCH  23  25
ATOM     25  C   UNL     1      -1.067   3.783  25.200  0.00  0.00    +0.200 A 
ATOM     26  C   UNL     1      -0.965   4.570  24.974  0.00  0.00    +0.046 A 
ATOM     27  C   UNL     1      -1.612   5.000  25.252  0.00  0.00    +0.044 A 
ATOM     28  C   UNL     1      -2.113   4.479  25.650  0.00  0.00    +0.180 A 
ATOM     29  O   UNL     1      -1.775   3.726  25.617  0.00  0.00    -0.446 OA
ENDBRANCH  23  25
ENDBRANCH  21  22
ENDBRANCH  20  21
TORSDOF 7
ENDMDL
MODEL 6
REMARK VINA RESULT:      -8.4      2.402      4.067
REMARK  Name = 
REMARK  7 active torsions:
REMARK  status: ('A' for Active; 'I' for Inactive)
REMARK    1  A    between atoms: C_2  and  C_4
REMARK    2  A    between atoms: C_6  and  C_7
REMARK    3  A    between atoms: C_7  and  C_8
REMARK    4  A    between atoms: N_10  and  C_11
REMARK    5  A    between atoms: C_20  and  C_21
REMARK    6  A    between atoms: C_21  and  N_22
REMARK    7  A    between atoms: C_23  and  C_25
REMARK                            x       y       z     vdW  Elec       q    Type
REMARK                         _______ _______ _______ _____ _____    ______ ____
ROOT
ATOM      4  C   UNL     1      -1.019   2.102  25.078  0.00  0.00    +0.006 C 
ATOM      5  C   UNL     1      -0.605   1.442  24.804  0.00  0.00    +0.005 C 
ATOM      6  C   UNL     1      -1.016   0.777  24.545  0.00  0.00    +0.027 C 
ATOM     17  C   UNL     1      -1.842   0.770  24.558  0.00  0.00    -0.048 C 
ATOM     18  C   UNL     1      -2.254   0.104  24.298  0.00  0.00    +0.026 C 
ATOM     19  C   UNL     1      -2.255   1.430  24.832  0.00  0.00    -0.033 C 
ATOM     20  C   UNL     1      -1.844   2.095  25.091  0.00  0.00    +0.043 C 
ENDROOT
BRANCH   4   2
ATOM      1  C   UNL     1      -0.293   2.786  26.100  0.00  0.00    +0.000 C 
ATOM      2  C   UNL     1      -0.608   2.768  25.339  0.00  0.00    +0.000 C 
ATOM      3  C   UNL     1      -0.512   3.416  24.836  0.00  0.00    +0.000 C 
ENDBRANCH   4   2
BRANCH   6   7
ATOM      7  C   UNL     1      -0.604   0.117  24.271  0.00  0.00    +0.091 C 
BRANCH   7   8
ATOM      8  C   UNL     1      -0.037   0.201  23.678  0.00  0.00    +0.247 C 
ATOM      9  O   UNL     1      -0.186   0.692  23.032  0.00  0.00    -0.273 OA
ATOM     10  N   UNL     1       0.679  -0.205  23.730  0.00  0.00    -0.160 NA
BRANCH  10  11
ATOM     11  C   UNL     1       1.246  -0.120  23.136  0.00  0.00    +0.154 A 
ATOM     12  C   UNL     1       1.939   0.302  23.286  0.00  0.00    +0.036 A 
ATOM     13  C   UNL     1       2.506   0.386  22.692  0.00  0.00    +0.005 A 
ATOM     14  C   UNL     1       2.380   0.048  21.949  0.00  0.00    +0.021 A 
ATOM     15  C   UNL     1       1.686  -0.373  21.801  0.00  0.00    +0.100 A 
ATOM     16  N   UNL     1       1.120  -0.457  22.395  0.00  0.00    -0.227 NA
ENDBRANCH  10  11
ENDBRANCH   7   8
ENDBRANCH   6   7
BRANCH  20  21
ATOM     21  C   UNL     1      -2.257   2.755  25.365  0.00  0.00    +0.120 C 
BRANCH  21  22
ATOM     22  N   UNL     1      -3.081   2.772  25.325  0.00  0.00    -0.199 NA
ATOM     23  C   UNL     1      -3.499   3.388  25.679  0.00  0.00    +0.299 C 
ATOM     24  O   UNL     1      -3.093   3.988  26.075  0.00  0.00    -0.265 OA
BRANCH  23  25
ATOM     25  C   UNL     1      -4.323   3.405  25.639  0.00  0.00    +0.200 A 
ATOM     26  C   UNL     1      -4.779   3.993  25.282  0.00  0.00    +0.046 A 
ATOM     27  C   UNL     1      -5.573   3.788  25.371  0.00  0.00    +0.044 A 
ATOM     28  C   UNL     1      -5.608   3.074  25.782  0.00  0.00    +0.180 A 
ATOM     29  O   UNL     1      -4.835   2.837  25.948  0.00  0.00    -0.446 OA
ENDBRANCH  23  25
ENDBRANCH  21  22
ENDBRANCH  20  21
TORSDOF 7
ENDMDL
