MODEL 1
REMARK VINA RESULT:     -12.7      0.000      0.000
REMARK  Name = 
REMARK  6 active torsions:
REMARK  status: ('A' for Active; 'I' for Inactive)
REMARK    1  A    between atoms: C_5  and  C_8
REMARK    2  A    between atoms: C_11  and  C_13
REMARK    3  A    between atoms: N_16  and  C_17
REMARK    4  A    between atoms: C_17  and  C_18
REMARK    5  A    between atoms: C_21  and  O_22
REMARK    6  A    between atoms: O_22  and  C_23
REMARK                            x       y       z     vdW  Elec       q    Type
REMARK                         _______ _______ _______ _____ _____    ______ ____
ROOT
ATOM     13  C   UNL     1      -0.553   0.797  25.104  0.00  0.00    +0.096 C 
ATOM     14  C   UNL     1      -0.366   0.507  24.355  0.00  0.00    +0.028 C 
ATOM     15  C   UNL     1      -0.502  -0.307  24.355  0.00  0.00    +0.073 C 
ATOM     16  N   UNL     1      -0.773  -0.520  25.104  0.00  0.00    -0.268 NA
ATOM     29  C   UNL     1      -0.805   0.162  25.567  0.00  0.00    +0.082 C 
ENDROOT
BRANCH  13  11
ATOM      8  C   UNL     1      -0.722   2.894  25.463  0.00  0.00    +0.250 A 
ATOM      9  N   UNL     1      -0.109   2.693  25.977  0.00  0.00    -0.107 NA
ATOM     10  N   UNL     1       0.029   1.883  25.906  0.00  0.00    -0.111 NA
ATOM     11  C   UNL     1      -0.499   1.583  25.347  0.00  0.00    +0.227 A 
ATOM     12  O   UNL     1      -0.963   2.209  25.074  0.00  0.00    -0.419 OA
BRANCH   8   5
ATOM      1  C   UNL     1      -1.986   5.913  25.041  0.00  0.00    +0.031 C 
ATOM      2  C   UNL     1      -1.670   5.158  25.146  0.00  0.00    -0.022 A 
ATOM      3  C   UNL     1      -0.926   4.975  24.838  0.00  0.00    -0.004 A 
ATOM      4  C   UNL     1      -0.610   4.221  24.944  0.00  0.00    +0.004 A 
ATOM      5  C   UNL     1      -1.038   3.649  25.358  0.00  0.00    +0.055 A 
ATOM      6  C   UNL     1      -1.780   3.832  25.666  0.00  0.00    +0.004 A 
ATOM      7  C   UNL     1      -2.096   4.586  25.560  0.00  0.00    -0.004 A 
ENDBRANCH   8   5
ENDBRANCH  13  11
BRANCH  16  17
ATOM     17  C   UNL     1      -0.978  -1.282  25.348  0.00  0.00    +0.099 C 
BRANCH  17  18
ATOM     18  C   UNL     1      -1.725  -1.584  25.174  0.00  0.00    -0.006 A 
ATOM     19  C   UNL     1      -2.386  -1.314  25.589  0.00  0.00    +0.000 A 
ATOM     20  C   UNL     1      -3.134  -1.616  25.415  0.00  0.00    +0.037 A 
ATOM     21  C   UNL     1      -3.221  -2.188  24.827  0.00  0.00    +0.147 A 
ATOM     27  C   UNL     1      -2.561  -2.458  24.413  0.00  0.00    +0.037 A 
ATOM     28  C   UNL     1      -1.812  -2.156  24.586  0.00  0.00    +0.000 A 
BRANCH  21  22
ATOM     22  O   UNL     1      -3.968  -2.490  24.653  0.00  0.00    -0.404 OA
BRANCH  22  23
ATOM     23  C   UNL     1      -4.330  -2.308  23.934  0.00  0.00    +0.575 C 
ATOM     24  F   UNL     1      -4.691  -2.127  23.216  0.00  0.00    -0.133 F 
ATOM     25  F   UNL     1      -4.095  -3.039  23.631  0.00  0.00    -0.133 F 
ATOM     26  F   UNL     1      -4.565  -1.579  24.237  0.00  0.00    -0.133 F 
ENDBRANCH  22  23
ENDBRANCH  21  22
ENDBRANCH  17  18
ENDBRANCH  16  17
TORSDOF 6
ENDMDL
MODEL 2
REMARK VINA RESULT:     -12.5      3.406      6.333
REMARK  Name = 
REMARK  6 active torsions:
REMARK  status: ('A' for Active; 'I' for Inactive)
REMARK    1  A    between atoms: C_5  and  C_8
REMARK    2  A    between atoms: C_11  and  C_13
REMARK    3  A    between atoms: N_16  and  C_17
REMARK    4  A    between atoms: C_17  and  C_18
REMARK    5  A    between atoms: C_21  and  O_22
REMARK    6  A    between atoms: O_22  and  C_23
REMARK                            x       y       z     vdW  Elec       q    Type
REMARK                         _______ _______ _______ _____ _____    ______ ____
ROOT
ATOM     13  C   UNL     1      -4.793   1.394  25.027  0.00  0.00    +0.096 C 
ATOM     14  C   UNL     1      -5.380   1.626  25.559  0.00  0.00    +0.028 C 
ATOM     15  C   UNL     1      -5.354   2.448  25.624  0.00  0.00    +0.073 C 
ATOM     16  N   UNL     1      -4.752   2.724  25.133  0.00  0.00    -0.268 NA
ATOM     29  C   UNL     1      -4.405   2.073  24.764  0.00  0.00    +0.082 C 
ENDROOT
BRANCH  13  11
ATOM      8  C   UNL     1      -3.986  -0.537  24.608  0.00  0.00    +0.250 A 
ATOM      9  N   UNL     1      -4.742  -0.606  24.285  0.00  0.00    -0.107 NA
ATOM     10  N   UNL     1      -5.137   0.109  24.402  0.00  0.00    -0.111 NA
ATOM     11  C   UNL     1      -4.625   0.620  24.798  0.00  0.00    +0.227 A 
ATOM     12  O   UNL     1      -3.914   0.221  24.925  0.00  0.00    -0.419 OA
BRANCH   8   5
ATOM      1  C   UNL     1      -1.663  -2.880  24.629  0.00  0.00    +0.031 C 
ATOM      2  C   UNL     1      -2.244  -2.295  24.624  0.00  0.00    -0.022 A 
ATOM      3  C   UNL     1      -3.042  -2.505  24.613  0.00  0.00    -0.004 A 
ATOM      4  C   UNL     1      -3.623  -1.919  24.608  0.00  0.00    +0.004 A 
ATOM      5  C   UNL     1      -3.405  -1.123  24.613  0.00  0.00    +0.055 A 
ATOM      6  C   UNL     1      -2.608  -0.913  24.624  0.00  0.00    +0.004 A 
ATOM      7  C   UNL     1      -2.027  -1.499  24.629  0.00  0.00    -0.004 A 
ENDBRANCH   8   5
ENDBRANCH  13  11
BRANCH  16  17
ATOM     17  C   UNL     1      -4.534   3.514  25.030  0.00  0.00    +0.099 C 
BRANCH  17  18
ATOM     18  C   UNL     1      -3.757   3.750  25.175  0.00  0.00    -0.006 A 
ATOM     19  C   UNL     1      -3.528   3.968  25.938  0.00  0.00    +0.000 A 
ATOM     20  C   UNL     1      -2.751   4.204  26.083  0.00  0.00    +0.037 A 
ATOM     21  C   UNL     1      -2.203   4.222  25.466  0.00  0.00    +0.147 A 
ATOM     27  C   UNL     1      -2.432   4.003  24.705  0.00  0.00    +0.037 A 
ATOM     28  C   UNL     1      -3.209   3.767  24.559  0.00  0.00    +0.000 A 
BRANCH  21  22
ATOM     22  O   UNL     1      -1.426   4.458  25.612  0.00  0.00    -0.404 OA
BRANCH  22  23
ATOM     23  C   UNL     1      -1.053   4.986  25.100  0.00  0.00    +0.575 C 
ATOM     24  F   UNL     1      -0.680   5.515  24.589  0.00  0.00    -0.133 F 
ATOM     25  F   UNL     1      -1.455   5.614  25.454  0.00  0.00    -0.133 F 
ATOM     26  F   UNL     1      -0.651   4.359  24.746  0.00  0.00    -0.133 F 
ENDBRANCH  22  23
ENDBRANCH  21  22
ENDBRANCH  17  18
ENDBRANCH  16  17
TORSDOF 6
ENDMDL
MODEL 3
REMARK VINA RESULT:     -12.2      2.147      5.221
REMARK  Name = 
REMARK  6 active torsions:
REMARK  status: ('A' for Active; 'I' for Inactive)
REMARK    1  A    between atoms: C_5  and  C_8
REMARK    2  A    between atoms: C_11  and  C_13
REMARK    3  A    between atoms: N_16  and  C_17
REMARK    4  A    between atoms: C_17  and  C_18
REMARK    5  A    between atoms: C_21  and  O_22
REMARK    6  A    between atoms: O_22  and  C_23
REMARK                            x       y       z     vdW  Elec       q    Type
REMARK                         _______ _______ _______ _____ _____    ______ ____
ROOT
ATOM     13  C   UNL     1      -1.024   1.525  25.398  0.00  0.00    +0.096 C 
ATOM     14  C   UNL     1      -0.479   1.895  25.895  0.00  0.00    +0.028 C 
ATOM     15  C   UNL     1      -0.651   2.702  25.907  0.00  0.00    +0.073 C 
ATOM     16  N   UNL     1      -1.302   2.831  25.416  0.00  0.00    -0.268 NA
ATOM     29  C   UNL     1      -1.533   2.104  25.102  0.00  0.00    +0.082 C 
ENDROOT
BRANCH  13  11
ATOM      8  C   UNL     1      -1.515  -0.514  25.000  0.00  0.00    +0.250 A 
ATOM      9  N   UNL     1      -0.693  -0.530  24.927  0.00  0.00    -0.107 NA
ATOM     10  N   UNL     1      -0.409   0.232  25.067  0.00  0.00    -0.111 NA
ATOM     11  C   UNL     1      -1.055   0.719  25.226  0.00  0.00    +0.227 A 
ATOM     12  O   UNL     1      -1.739   0.258  25.185  0.00  0.00    -0.419 OA
BRANCH   8   5
ATOM      1  C   UNL     1      -3.547  -3.085  24.617  0.00  0.00    +0.031 C 
ATOM      2  C   UNL     1      -3.039  -2.442  24.713  0.00  0.00    -0.022 A 
ATOM      3  C   UNL     1      -2.250  -2.502  24.478  0.00  0.00    -0.004 A 
ATOM      4  C   UNL     1      -1.741  -1.859  24.574  0.00  0.00    +0.004 A 
ATOM      5  C   UNL     1      -2.023  -1.157  24.904  0.00  0.00    +0.055 A 
ATOM      6  C   UNL     1      -2.811  -1.097  25.138  0.00  0.00    +0.004 A 
ATOM      7  C   UNL     1      -3.319  -1.740  25.043  0.00  0.00    -0.004 A 
ENDBRANCH   8   5
ENDBRANCH  13  11
BRANCH  16  17
ATOM     17  C   UNL     1      -1.659   3.560  25.267  0.00  0.00    +0.099 C 
BRANCH  17  18
ATOM     18  C   UNL     1      -2.479   3.636  25.319  0.00  0.00    -0.006 A 
ATOM     19  C   UNL     1      -2.832   3.809  26.045  0.00  0.00    +0.000 A 
ATOM     20  C   UNL     1      -3.652   3.885  26.097  0.00  0.00    +0.037 A 
ATOM     21  C   UNL     1      -4.119   3.787  25.424  0.00  0.00    +0.147 A 
ATOM     27  C   UNL     1      -3.767   3.613  24.699  0.00  0.00    +0.037 A 
ATOM     28  C   UNL     1      -2.946   3.537  24.646  0.00  0.00    +0.000 A 
BRANCH  21  22
ATOM     22  O   UNL     1      -4.939   3.863  25.476  0.00  0.00    -0.404 OA
BRANCH  22  23
ATOM     23  C   UNL     1      -5.411   3.190  25.556  0.00  0.00    +0.575 C 
ATOM     24  F   UNL     1      -5.882   2.519  25.634  0.00  0.00    -0.133 F 
ATOM     25  F   UNL     1      -5.472   3.136  24.734  0.00  0.00    -0.133 F 
ATOM     26  F   UNL     1      -5.350   3.245  26.376  0.00  0.00    -0.133 F 
ENDBRANCH  22  23
ENDBRANCH  21  22
ENDBRANCH  17  18
ENDBRANCH  16  17
TORSDOF 6
ENDMDL
MODEL 4
REMARK VINA RESULT:     -12.1      2.441      5.561
REMARK  Name = 
REMARK  6 active torsions:
REMARK  status: ('A' for Active; 'I' for Inactive)
REMARK    1  A    between atoms: C_5  and  C_8
REMARK    2  A    between atoms: C_11  and  C_13
REMARK    3  A    between atoms: N_16  and  C_17
REMARK    4  A    between atoms: C_17  and  C_18
REMARK    5  A    between atoms: C_21  and  O_22
REMARK    6  A    between atoms: O_22  and  C_23
REMARK                            x       y       z     vdW  Elec       q    Type
REMARK                         _______ _______ _______ _____ _____    ______ ____
ROOT
ATOM     13  C   UNL     1      -0.525   0.475  24.704  0.00  0.00    +0.096 C 
ATOM     14  C   UNL     1      -0.053   0.715  24.071  0.00  0.00    +0.028 C 
ATOM     15  C   UNL     1       0.231   1.472  24.238  0.00  0.00    +0.073 C 
ATOM     16  N   UNL     1      -0.067   1.700  24.973  0.00  0.00    -0.268 NA
ATOM     29  C   UNL     1      -0.534   1.083  25.261  0.00  0.00    +0.082 C 
ENDROOT
BRANCH  13  11
ATOM      8  C   UNL     1      -1.849  -1.199  24.662  0.00  0.00    +0.250 A 
ATOM      9  N   UNL     1      -1.205  -1.515  25.068  0.00  0.00    -0.107 NA
ATOM     10  N   UNL     1      -0.630  -0.927  25.133  0.00  0.00    -0.111 NA
ATOM     11  C   UNL     1      -0.919  -0.247  24.767  0.00  0.00    +0.227 A 
ATOM     12  O   UNL     1      -1.673  -0.415  24.476  0.00  0.00    -0.419 OA
BRANCH   8   5
ATOM      1  C   UNL     1      -4.642  -2.790  23.912  0.00  0.00    +0.031 C 
ATOM      2  C   UNL     1      -3.944  -2.392  24.100  0.00  0.00    -0.022 A 
ATOM      3  C   UNL     1      -3.269  -2.819  24.312  0.00  0.00    -0.004 A 
ATOM      4  C   UNL     1      -2.571  -2.421  24.499  0.00  0.00    +0.004 A 
ATOM      5  C   UNL     1      -2.548  -1.597  24.474  0.00  0.00    +0.055 A 
ATOM      6  C   UNL     1      -3.221  -1.170  24.263  0.00  0.00    +0.004 A 
ATOM      7  C   UNL     1      -3.919  -1.568  24.075  0.00  0.00    -0.004 A 
ENDBRANCH   8   5
ENDBRANCH  13  11
BRANCH  16  17
ATOM     17  C   UNL     1       0.078   2.418  25.353  0.00  0.00    +0.099 C 
BRANCH  17  18
ATOM     18  C   UNL     1      -0.529   2.971  25.435  0.00  0.00    -0.006 A 
ATOM     19  C   UNL     1      -0.650   3.539  24.849  0.00  0.00    +0.000 A 
ATOM     20  C   UNL     1      -1.257   4.092  24.930  0.00  0.00    +0.037 A 
ATOM     21  C   UNL     1      -1.742   4.077  25.597  0.00  0.00    +0.147 A 
ATOM     27  C   UNL     1      -1.621   3.509  26.183  0.00  0.00    +0.037 A 
ATOM     28  C   UNL     1      -1.014   2.955  26.102  0.00  0.00    +0.000 A 
BRANCH  21  22
ATOM     22  O   UNL     1      -2.348   4.630  25.679  0.00  0.00    -0.404 OA
BRANCH  22  23
ATOM     23  C   UNL     1      -3.128   4.376  25.772  0.00  0.00    +0.575 C 
ATOM     24  F   UNL     1      -3.907   4.123  25.864  0.00  0.00    -0.133 F 
ATOM     25  F   UNL     1      -3.193   4.275  24.955  0.00  0.00    -0.133 F 
ATOM     26  F   UNL     1      -3.064   4.478  26.587  0.00  0.00    -0.133 F 
ENDBRANCH  22  23
ENDBRANCH  21  22
ENDBRANCH  17  18
ENDBRANCH  16  17
TORSDOF 6
ENDMDL
