MODEL 1
REMARK VINA RESULT:     -12.5      0.000      0.000
REMARK  Name = 
REMARK  5 active torsions:
REMARK  status: ('A' for Active; 'I' for Inactive)
REMARK    1  A    between atoms: O_2  and  C_3
REMARK    2  A    between atoms: C_6  and  C_9
REMARK    3  A    between atoms: C_15  and  N_16
REMARK    4  A    between atoms: C_17  and  C_19
REMARK    5  A    between atoms: C_24  and  C_25
REMARK                            x       y       z     vdW  Elec       q    Type
REMARK                         _______ _______ _______ _____ _____    ______ ____
ROOT
ATOM      9  C   UNL     1      -4.485   0.712  24.959  0.00  0.00    +0.048 C 
ATOM     10  C   UNL     1      -5.149   0.955  25.385  0.00  0.00    +0.042 C 
ATOM     11  C   UNL     1      -5.255   1.762  25.253  0.00  0.00    +0.184 C 
ATOM     12  O   UNL     1      -5.855   2.231  25.572  0.00  0.00    -0.220 OA
ATOM     13  C   UNL     1      -4.657   2.018  24.746  0.00  0.00    +0.202 C 
ATOM     14  O   UNL     1      -4.553   2.789  24.469  0.00  0.00    -0.219 OA
ATOM     15  C   UNL     1      -4.181   1.370  24.564  0.00  0.00    +0.132 C 
ENDROOT
BRANCH   9   6
ATOM      3  C   UNL     1      -3.566  -1.585  24.881  0.00  0.00    +0.139 A 
ATOM      4  C   UNL     1      -3.967  -1.279  24.229  0.00  0.00    +0.037 A 
ATOM      5  C   UNL     1      -4.274  -0.513  24.255  0.00  0.00    -0.001 A 
ATOM      6  C   UNL     1      -4.178  -0.053  24.933  0.00  0.00    -0.020 A 
ATOM      7  C   UNL     1      -3.776  -0.360  25.586  0.00  0.00    -0.001 A 
ATOM      8  C   UNL     1      -3.470  -1.125  25.560  0.00  0.00    +0.037 A 
BRANCH   3   2
ATOM      1  C   UNL     1      -2.525  -2.489  24.505  0.00  0.00    +0.252 C 
ATOM      2  O   UNL     1      -3.259  -2.350  24.855  0.00  0.00    -0.471 OA
ENDBRANCH   3   2
ENDBRANCH   9   6
BRANCH  15  16
ATOM     16  N   UNL     1      -3.517   1.377  24.074  0.00  0.00    -0.200 NA
ATOM     17  C   UNL     1      -3.003   2.022  24.085  0.00  0.00    +0.269 C 
ATOM     18  O   UNL     1      -3.153   2.659  24.587  0.00  0.00    -0.268 OA
BRANCH  17  19
ATOM     19  C   UNL     1      -2.339   2.029  23.595  0.00  0.00    +0.109 A 
ATOM     20  C   UNL     1      -2.347   2.007  22.770  0.00  0.00    +0.159 A 
ATOM     21  C   UNL     1      -3.017   1.974  22.291  0.00  0.00    +0.076 C 
ATOM     22  O   UNL     1      -1.564   2.024  22.509  0.00  0.00    -0.358 OA
ATOM     23  N   UNL     1      -1.074   2.057  23.172  0.00  0.00    -0.077 NA
ATOM     24  C   UNL     1      -1.554   2.060  23.843  0.00  0.00    +0.127 A 
BRANCH  24  25
ATOM     25  C   UNL     1      -1.293   2.089  24.625  0.00  0.00    +0.021 A 
ATOM     26  C   UNL     1      -1.309   2.802  25.039  0.00  0.00    +0.002 A 
ATOM     27  C   UNL     1      -1.049   2.830  25.821  0.00  0.00    +0.000 A 
ATOM     28  C   UNL     1      -0.771   2.146  26.190  0.00  0.00    +0.000 A 
ATOM     29  C   UNL     1      -0.755   1.433  25.775  0.00  0.00    +0.000 A 
ATOM     30  C   UNL     1      -1.015   1.404  24.993  0.00  0.00    +0.002 A 
ENDBRANCH  24  25
ENDBRANCH  17  19
ENDBRANCH  15  16
TORSDOF 5
ENDMDL
MODEL 2
REMARK VINA RESULT:     -12.4      1.711      3.308
REMARK  Name = 
REMARK  5 active torsions:
REMARK  status: ('A' for Active; 'I' for Inactive)
REMARK    1  A    between atoms: O_2  and  C_3
REMARK    2  A    between atoms: C_6  and  C_9
REMARK    3  A    between atoms: C_15  and  N_16
REMARK    4  A    between atoms: C_17  and  C_19
REMARK    5  A    between atoms: C_24  and  C_25
REMARK                            x       y       z     vdW  Elec       q    Type
REMARK                         _______ _______ _______ _____ _____    ______ ____
ROOT
ATOM      9  C   UNL     1      -3.262   1.887  23.458  0.00  0.00    +0.048 C 
ATOM     10  C   UNL     1      -3.367   1.882  22.640  0.00  0.00    +0.042 C 
ATOM     11  C   UNL     1      -2.621   1.876  22.288  0.00  0.00    +0.184 C 
ATOM     12  O   UNL     1      -2.467   1.870  21.477  0.00  0.00    -0.220 OA
ATOM     13  C   UNL     1      -2.056   1.876  22.889  0.00  0.00    +0.202 C 
ATOM     14  O   UNL     1      -1.237   1.870  22.784  0.00  0.00    -0.219 OA
ATOM     15  C   UNL     1      -2.452   1.883  23.612  0.00  0.00    +0.132 C 
ENDROOT
BRANCH   9   6
ATOM      3  C   UNL     1      -5.064   1.908  25.154  0.00  0.00    +0.139 A 
ATOM      4  C   UNL     1      -4.635   1.218  25.019  0.00  0.00    +0.037 A 
ATOM      5  C   UNL     1      -4.034   1.211  24.453  0.00  0.00    -0.001 A 
ATOM      6  C   UNL     1      -3.863   1.894  24.024  0.00  0.00    -0.020 A 
ATOM      7  C   UNL     1      -4.294   2.585  24.160  0.00  0.00    -0.001 A 
ATOM      8  C   UNL     1      -4.895   2.592  24.725  0.00  0.00    +0.037 A 
BRANCH   3   2
ATOM      1  C   UNL     1      -5.843   2.613  26.125  0.00  0.00    +0.252 C 
ATOM      2  O   UNL     1      -5.665   1.915  25.720  0.00  0.00    -0.471 OA
ENDBRANCH   3   2
ENDBRANCH   9   6
BRANCH  15  16
ATOM     16  N   UNL     1      -2.100   1.885  24.358  0.00  0.00    -0.200 NA
ATOM     17  C   UNL     1      -1.380   2.272  24.474  0.00  0.00    +0.269 C 
ATOM     18  O   UNL     1      -1.013   2.656  23.843  0.00  0.00    -0.268 OA
BRANCH  17  19
ATOM     19  C   UNL     1      -1.028   2.274  25.220  0.00  0.00    +0.109 A 
ATOM     20  C   UNL     1      -0.715   1.617  25.610  0.00  0.00    +0.159 A 
ATOM     21  C   UNL     1      -0.700   0.844  25.323  0.00  0.00    +0.076 C 
ATOM     22  O   UNL     1      -0.421   1.870  26.338  0.00  0.00    -0.358 OA
ATOM     23  N   UNL     1      -0.552   2.683  26.397  0.00  0.00    -0.077 NA
ATOM     24  C   UNL     1      -0.927   2.932  25.706  0.00  0.00    +0.127 A 
BRANCH  24  25
ATOM     25  C   UNL     1      -1.160   3.704  25.532  0.00  0.00    +0.021 A 
ATOM     26  C   UNL     1      -0.686   4.180  25.053  0.00  0.00    +0.002 A 
ATOM     27  C   UNL     1      -0.919   4.952  24.879  0.00  0.00    +0.000 A 
ATOM     28  C   UNL     1      -1.626   5.248  25.184  0.00  0.00    +0.000 A 
ATOM     29  C   UNL     1      -2.100   4.772  25.663  0.00  0.00    +0.000 A 
ATOM     30  C   UNL     1      -1.867   4.000  25.837  0.00  0.00    +0.002 A 
ENDBRANCH  24  25
ENDBRANCH  17  19
ENDBRANCH  15  16
TORSDOF 5
ENDMDL
MODEL 3
REMARK VINA RESULT:     -12.2      1.346      3.799
REMARK  Name = 
REMARK  5 active torsions:
REMARK  status: ('A' for Active; 'I' for Inactive)
REMARK    1  A    between atoms: O_2  and  C_3
REMARK    2  A    between atoms: C_6  and  C_9
REMARK    3  A    between atoms: C_15  and  N_16
REMARK    4  A    between atoms: C_17  and  C_19
REMARK    5  A    between atoms: C_24  and  C_25
REMARK                            x       y       z     vdW  Elec       q    Type
REMARK                         _______ _______ _______ _____ _____    ______ ____
ROOT
ATOM      9  C   UNL     1      -3.274   2.129  23.693  0.00  0.00    +0.048 C 
ATOM     10  C   UNL     1      -3.332   2.368  22.905  0.00  0.00    +0.042 C 
ATOM     11  C   UNL     1      -2.669   2.086  22.505  0.00  0.00    +0.184 C 
ATOM     12  O   UNL     1      -2.502   2.197  21.704  0.00  0.00    -0.220 OA
ATOM     13  C   UNL     1      -2.202   1.672  23.044  0.00  0.00    +0.202 C 
ATOM     14  O   UNL     1      -1.485   1.298  22.878  0.00  0.00    -0.219 OA
ATOM     15  C   UNL     1      -2.576   1.699  23.778  0.00  0.00    +0.132 C 
ENDROOT
BRANCH   9   6
ATOM      3  C   UNL     1      -4.912   2.616  25.484  0.00  0.00    +0.139 A 
ATOM      4  C   UNL     1      -5.085   2.050  24.910  0.00  0.00    +0.037 A 
ATOM      5  C   UNL     1      -4.539   1.888  24.313  0.00  0.00    -0.001 A 
ATOM      6  C   UNL     1      -3.820   2.291  24.290  0.00  0.00    -0.020 A 
ATOM      7  C   UNL     1      -3.647   2.857  24.865  0.00  0.00    -0.001 A 
ATOM      8  C   UNL     1      -4.192   3.020  25.463  0.00  0.00    +0.037 A 
BRANCH   3   2
ATOM      1  C   UNL     1      -6.094   2.268  26.208  0.00  0.00    +0.252 C 
ATOM      2  O   UNL     1      -5.457   2.778  26.081  0.00  0.00    -0.471 OA
ENDBRANCH   3   2
ENDBRANCH   9   6
BRANCH  15  16
ATOM     16  N   UNL     1      -2.300   1.356  24.477  0.00  0.00    -0.200 NA
ATOM     17  C   UNL     1      -1.926   0.621  24.455  0.00  0.00    +0.269 C 
ATOM     18  O   UNL     1      -1.828   0.229  23.736  0.00  0.00    -0.268 OA
BRANCH  17  19
ATOM     19  C   UNL     1      -1.650   0.278  25.153  0.00  0.00    +0.109 A 
ATOM     20  C   UNL     1      -1.051   0.577  25.636  0.00  0.00    +0.159 A 
ATOM     21  C   UNL     1      -0.625   1.271  25.506  0.00  0.00    +0.076 C 
ATOM     22  O   UNL     1      -0.955   0.060  26.272  0.00  0.00    -0.358 OA
ATOM     23  N   UNL     1      -1.494  -0.558  26.181  0.00  0.00    -0.077 NA
ATOM     24  C   UNL     1      -1.923  -0.424  25.490  0.00  0.00    +0.127 A 
BRANCH  24  25
ATOM     25  C   UNL     1      -2.521  -0.906  25.188  0.00  0.00    +0.021 A 
ATOM     26  C   UNL     1      -2.357  -1.430  24.573  0.00  0.00    +0.002 A 
ATOM     27  C   UNL     1      -2.954  -1.912  24.271  0.00  0.00    +0.000 A 
ATOM     28  C   UNL     1      -3.716  -1.870  24.584  0.00  0.00    +0.000 A 
ATOM     29  C   UNL     1      -3.881  -1.345  25.200  0.00  0.00    +0.000 A 
ATOM     30  C   UNL     1      -3.283  -0.863  25.502  0.00  0.00    +0.002 A 
ENDBRANCH  24  25
ENDBRANCH  17  19
ENDBRANCH  15  16
TORSDOF 5
ENDMDL
MODEL 4
REMARK VINA RESULT:     -11.4      1.305      2.767
REMARK  Name = 
REMARK  5 active torsions:
REMARK  status: ('A' for Active; 'I' for Inactive)
REMARK    1  A    between atoms: O_2  and  C_3
REMARK    2  A    between atoms: C_6  and  C_9
REMARK    3  A    between atoms: C_15  and  N_16
REMARK    4  A    between atoms: C_17  and  C_19
REMARK    5  A    between atoms: C_24  and  C_25
REMARK                            x       y       z     vdW  Elec       q    Type
REMARK                         _______ _______ _______ _____ _____    ______ ____
ROOT
ATOM      9  C   UNL     1      -1.860   0.336  25.222  0.00  0.00    +0.048 C 
ATOM     10  C   UNL     1      -1.255   0.325  25.784  0.00  0.00    +0.042 C 
ATOM     11  C   UNL     1      -0.862   1.049  25.748  0.00  0.00    +0.184 C 
ATOM     12  O   UNL     1      -0.220   1.276  26.215  0.00  0.00    -0.220 OA
ATOM     13  C   UNL     1      -1.223   1.507  25.165  0.00  0.00    +0.202 C 
ATOM     14  O   UNL     1      -1.005   2.272  24.945  0.00  0.00    -0.219 OA
ATOM     15  C   UNL     1      -1.839   1.066  24.840  0.00  0.00    +0.132 C 
ENDROOT
BRANCH   9   6
ATOM      3  C   UNL     1      -3.453  -1.502  24.766  0.00  0.00    +0.139 A 
ATOM      4  C   UNL     1      -2.830  -1.358  24.245  0.00  0.00    +0.037 A 
ATOM      5  C   UNL     1      -2.299  -0.745  24.397  0.00  0.00    -0.001 A 
ATOM      6  C   UNL     1      -2.391  -0.277  25.070  0.00  0.00    -0.020 A 
ATOM      7  C   UNL     1      -3.014  -0.422  25.592  0.00  0.00    -0.001 A 
ATOM      8  C   UNL     1      -3.545  -1.035  25.439  0.00  0.00    +0.037 A 
BRANCH   3   2
ATOM      1  C   UNL     1      -4.345  -2.175  23.874  0.00  0.00    +0.252 C 
ATOM      2  O   UNL     1      -3.984  -2.115  24.614  0.00  0.00    -0.471 OA
ENDBRANCH   3   2
ENDBRANCH   9   6
BRANCH  15  16
ATOM     16  N   UNL     1      -2.347   1.312  24.237  0.00  0.00    -0.200 NA
ATOM     17  C   UNL     1      -2.596   2.098  24.203  0.00  0.00    +0.269 C 
ATOM     18  O   UNL     1      -2.337   2.637  24.771  0.00  0.00    -0.268 OA
BRANCH  17  19
ATOM     19  C   UNL     1      -3.104   2.344  23.601  0.00  0.00    +0.109 A 
ATOM     20  C   UNL     1      -2.933   2.343  22.793  0.00  0.00    +0.159 A 
ATOM     21  C   UNL     1      -2.227   2.096  22.447  0.00  0.00    +0.076 C 
ATOM     22  O   UNL     1      -3.594   2.633  22.394  0.00  0.00    -0.358 OA
ATOM     23  N   UNL     1      -4.173   2.812  22.955  0.00  0.00    -0.077 NA
ATOM     24  C   UNL     1      -3.869   2.634  23.700  0.00  0.00    +0.127 A 
BRANCH  24  25
ATOM     25  C   UNL     1      -4.262   2.728  24.420  0.00  0.00    +0.021 A 
ATOM     26  C   UNL     1      -4.088   3.373  24.903  0.00  0.00    +0.002 A 
ATOM     27  C   UNL     1      -4.481   3.468  25.622  0.00  0.00    +0.000 A 
ATOM     28  C   UNL     1      -5.048   2.918  25.858  0.00  0.00    +0.000 A 
ATOM     29  C   UNL     1      -5.223   2.272  25.374  0.00  0.00    +0.000 A 
ATOM     30  C   UNL     1      -4.830   2.178  24.654  0.00  0.00    +0.002 A 
ENDBRANCH  24  25
ENDBRANCH  17  19
ENDBRANCH  15  16
TORSDOF 5
ENDMDL
MODEL 5
REMARK VINA RESULT:     -11.2      1.666      2.880
REMARK  Name = 
REMARK  5 active torsions:
REMARK  status: ('A' for Active; 'I' for Inactive)
REMARK    1  A    between atoms: O_2  and  C_3
REMARK    2  A    between atoms: C_6  and  C_9
REMARK    3  A    between atoms: C_15  and  N_16
REMARK    4  A    between atoms: C_17  and  C_19
REMARK    5  A    between atoms: C_24  and  C_25
REMARK                            x       y       z     vdW  Elec       q    Type
REMARK                         _______ _______ _______ _____ _____    ______ ____
ROOT
ATOM      9  C   UNL     1      -2.497   1.369  23.450  0.00  0.00    +0.048 C 
ATOM     10  C   UNL     1      -2.401   1.292  22.633  0.00  0.00    +0.042 C 
ATOM     11  C   UNL     1      -2.781   1.929  22.272  0.00  0.00    +0.184 C 
ATOM     12  O   UNL     1      -2.823   2.071  21.460  0.00  0.00    -0.220 OA
ATOM     13  C   UNL     1      -3.110   2.399  22.864  0.00  0.00    +0.202 C 
ATOM     14  O   UNL     1      -3.541   3.094  22.748  0.00  0.00    -0.219 OA
ATOM     15  C   UNL     1      -2.935   2.053  23.592  0.00  0.00    +0.132 C 
ENDROOT
BRANCH   9   6
ATOM      3  C   UNL     1      -1.621  -0.181  25.168  0.00  0.00    +0.139 A 
ATOM      4  C   UNL     1      -2.425  -0.181  24.986  0.00  0.00    +0.037 A 
ATOM      5  C   UNL     1      -2.717   0.336  24.413  0.00  0.00    -0.001 A 
ATOM      6  C   UNL     1      -2.205   0.852  24.023  0.00  0.00    -0.020 A 
ATOM      7  C   UNL     1      -1.400   0.851  24.206  0.00  0.00    -0.001 A 
ATOM      8  C   UNL     1      -1.108   0.334  24.779  0.00  0.00    +0.037 A 
BRANCH   3   2
ATOM      1  C   UNL     1      -0.819  -1.311  25.524  0.00  0.00    +0.252 C 
ATOM      2  O   UNL     1      -1.329  -0.698  25.741  0.00  0.00    -0.471 OA
ENDBRANCH   3   2
ENDBRANCH   9   6
BRANCH  15  16
ATOM     16  N   UNL     1      -3.158   2.341  24.332  0.00  0.00    -0.200 NA
ATOM     17  C   UNL     1      -3.258   3.152  24.447  0.00  0.00    +0.269 C 
ATOM     18  O   UNL     1      -3.133   3.675  23.821  0.00  0.00    -0.268 OA
BRANCH  17  19
ATOM     19  C   UNL     1      -3.481   3.440  25.187  0.00  0.00    +0.109 A 
ATOM     20  C   UNL     1      -4.216   3.331  25.547  0.00  0.00    +0.159 A 
ATOM     21  C   UNL     1      -4.855   2.917  25.231  0.00  0.00    +0.076 C 
ATOM     22  O   UNL     1      -4.198   3.711  26.280  0.00  0.00    -0.358 OA
ATOM     23  N   UNL     1      -3.452   4.053  26.372  0.00  0.00    -0.077 NA
ATOM     24  C   UNL     1      -3.010   3.885  25.697  0.00  0.00    +0.127 A 
BRANCH  24  25
ATOM     25  C   UNL     1      -2.232   4.122  25.555  0.00  0.00    +0.021 A 
ATOM     26  C   UNL     1      -2.082   4.818  25.140  0.00  0.00    +0.002 A 
ATOM     27  C   UNL     1      -1.304   5.054  24.998  0.00  0.00    +0.000 A 
ATOM     28  C   UNL     1      -0.677   4.595  25.273  0.00  0.00    +0.000 A 
ATOM     29  C   UNL     1      -0.827   3.898  25.689  0.00  0.00    +0.000 A 
ATOM     30  C   UNL     1      -1.605   3.661  25.830  0.00  0.00    +0.002 A 
ENDBRANCH  24  25
ENDBRANCH  17  19
ENDBRANCH  15  16
TORSDOF 5
ENDMDL
MODEL 6
REMARK VINA RESULT:     -10.8      1.090      4.018
REMARK  Name = 
REMARK  5 active torsions:
REMARK  status: ('A' for Active; 'I' for Inactive)
REMARK    1  A    between atoms: O_2  and  C_3
REMARK    2  A    between atoms: C_6  and  C_9
REMARK    3  A    between atoms: C_15  and  N_16
REMARK    4  A    between atoms: C_17  and  C_19
REMARK    5  A    between atoms: C_24  and  C_25
REMARK                            x       y       z     vdW  Elec       q    Type
REMARK                         _______ _______ _______ _____ _____    ______ ____
ROOT
ATOM      9  C   UNL     1      -1.866   2.043  23.801  0.00  0.00    +0.048 C 
ATOM     10  C   UNL     1      -1.524   2.129  23.055  0.00  0.00    +0.042 C 
ATOM     11  C   UNL     1      -2.120   2.043  22.491  0.00  0.00    +0.184 C 
ATOM     12  O   UNL     1      -2.023   2.088  21.673  0.00  0.00    -0.220 OA
ATOM     13  C   UNL     1      -2.829   1.903  22.888  0.00  0.00    +0.202 C 
ATOM     14  O   UNL     1      -3.566   1.784  22.537  0.00  0.00    -0.219 OA
ATOM     15  C   UNL     1      -2.672   1.903  23.698  0.00  0.00    +0.132 C 
ENDROOT
BRANCH   9   6
ATOM      3  C   UNL     1      -0.679   2.180  25.969  0.00  0.00    +0.139 A 
ATOM      4  C   UNL     1      -0.601   1.508  25.498  0.00  0.00    +0.037 A 
ATOM      5  C   UNL     1      -0.997   1.462  24.776  0.00  0.00    -0.001 A 
ATOM      6  C   UNL     1      -1.470   2.089  24.524  0.00  0.00    -0.020 A 
ATOM      7  C   UNL     1      -1.548   2.762  24.995  0.00  0.00    -0.001 A 
ATOM      8  C   UNL     1      -1.152   2.808  25.718  0.00  0.00    +0.037 A 
BRANCH   3   2
ATOM      1  C   UNL     1       0.456   2.591  26.735  0.00  0.00    +0.252 C 
ATOM      2  O   UNL     1      -0.283   2.226  26.691  0.00  0.00    -0.471 OA
ENDBRANCH   3   2
ENDBRANCH   9   6
BRANCH  15  16
ATOM     16  N   UNL     1      -3.225   1.784  24.299  0.00  0.00    -0.200 NA
ATOM     17  C   UNL     1      -3.835   1.238  24.197  0.00  0.00    +0.269 C 
ATOM     18  O   UNL     1      -3.892   0.811  23.493  0.00  0.00    -0.268 OA
BRANCH  17  19
ATOM     19  C   UNL     1      -4.387   1.119  24.798  0.00  0.00    +0.109 A 
ATOM     20  C   UNL     1      -4.907   1.686  25.097  0.00  0.00    +0.159 A 
ATOM     21  C   UNL     1      -4.967   2.470  24.847  0.00  0.00    +0.076 C 
ATOM     22  O   UNL     1      -5.358   1.330  25.689  0.00  0.00    -0.358 OA
ATOM     23  N   UNL     1      -5.116   0.544  25.756  0.00  0.00    -0.077 NA
ATOM     24  C   UNL     1      -4.516   0.414  25.206  0.00  0.00    +0.127 A 
BRANCH  24  25
ATOM     25  C   UNL     1      -4.115  -0.297  25.084  0.00  0.00    +0.021 A 
ATOM     26  C   UNL     1      -4.299  -0.767  24.432  0.00  0.00    +0.002 A 
ATOM     27  C   UNL     1      -3.898  -1.478  24.310  0.00  0.00    +0.000 A 
ATOM     28  C   UNL     1      -3.314  -1.718  24.839  0.00  0.00    +0.000 A 
ATOM     29  C   UNL     1      -3.129  -1.247  25.492  0.00  0.00    +0.000 A 
ATOM     30  C   UNL     1      -3.530  -0.536  25.614  0.00  0.00    +0.002 A 
ENDBRANCH  24  25
ENDBRANCH  17  19
ENDBRANCH  15  16
TORSDOF 5
ENDMDL
MODEL 7
REMARK VINA RESULT:     -10.7      1.515      3.097
REMARK  Name = 
REMARK  5 active torsions:
REMARK  status: ('A' for Active; 'I' for Inactive)
REMARK    1  A    between atoms: O_2  and  C_3
REMARK    2  A    between atoms: C_6  and  C_9
REMARK    3  A    between atoms: C_15  and  N_16
REMARK    4  A    between atoms: C_17  and  C_19
REMARK    5  A    between atoms: C_24  and  C_25
REMARK                            x       y       z     vdW  Elec       q    Type
REMARK                         _______ _______ _______ _____ _____    ______ ____
ROOT
ATOM      9  C   UNL     1      -3.094   0.356  24.825  0.00  0.00    +0.048 C 
ATOM     10  C   UNL     1      -3.556  -0.147  25.289  0.00  0.00    +0.042 C 
ATOM     11  C   UNL     1      -3.071  -0.752  25.568  0.00  0.00    +0.184 C 
ATOM     12  O   UNL     1      -3.305  -1.377  26.053  0.00  0.00    -0.220 OA
ATOM     13  C   UNL     1      -2.309  -0.624  25.276  0.00  0.00    +0.202 C 
ATOM     14  O   UNL     1      -1.649  -1.098  25.419  0.00  0.00    -0.219 OA
ATOM     15  C   UNL     1      -2.324   0.061  24.818  0.00  0.00    +0.132 C 
ENDROOT
BRANCH   9   6
ATOM      3  C   UNL     1      -3.883   2.393  23.661  0.00  0.00    +0.139 A 
ATOM      4  C   UNL     1      -3.565   1.768  23.228  0.00  0.00    +0.037 A 
ATOM      5  C   UNL     1      -3.302   1.089  23.616  0.00  0.00    -0.001 A 
ATOM      6  C   UNL     1      -3.357   1.035  24.437  0.00  0.00    -0.020 A 
ATOM      7  C   UNL     1      -3.676   1.661  24.871  0.00  0.00    -0.001 A 
ATOM      8  C   UNL     1      -3.939   2.340  24.483  0.00  0.00    +0.037 A 
BRANCH   3   2
ATOM      1  C   UNL     1      -3.925   3.818  23.550  0.00  0.00    +0.252 C 
ATOM      2  O   UNL     1      -4.146   3.072  23.273  0.00  0.00    -0.471 OA
ENDBRANCH   3   2
ENDBRANCH   9   6
BRANCH  15  16
ATOM     16  N   UNL     1      -1.681   0.393  24.420  0.00  0.00    -0.200 NA
ATOM     17  C   UNL     1      -0.958   0.481  24.807  0.00  0.00    +0.269 C 
ATOM     18  O   UNL     1      -0.878   0.238  25.592  0.00  0.00    -0.268 OA
BRANCH  17  19
ATOM     19  C   UNL     1      -0.315   0.813  24.410  0.00  0.00    +0.109 A 
ATOM     20  C   UNL     1       0.089   0.474  23.776  0.00  0.00    +0.159 A 
ATOM     21  C   UNL     1      -0.077  -0.254  23.428  0.00  0.00    +0.076 C 
ATOM     22  O   UNL     1       0.690   0.994  23.552  0.00  0.00    -0.358 OA
ATOM     23  N   UNL     1       0.656   1.653  24.047  0.00  0.00    -0.077 NA
ATOM     24  C   UNL     1       0.035   1.541  24.578  0.00  0.00    +0.127 A 
BRANCH  24  25
ATOM     25  C   UNL     1      -0.196   2.065  25.172  0.00  0.00    +0.021 A 
ATOM     26  C   UNL     1      -0.080   1.867  25.964  0.00  0.00    +0.002 A 
ATOM     27  C   UNL     1      -0.311   2.391  26.558  0.00  0.00    +0.000 A 
ATOM     28  C   UNL     1      -0.658   3.113  26.360  0.00  0.00    +0.000 A 
ATOM     29  C   UNL     1      -0.774   3.310  25.567  0.00  0.00    +0.000 A 
ATOM     30  C   UNL     1      -0.543   2.786  24.973  0.00  0.00    +0.002 A 
ENDBRANCH  24  25
ENDBRANCH  17  19
ENDBRANCH  15  16
TORSDOF 5
ENDMDL
MODEL 8
REMARK VINA RESULT:     -10.7      1.765      3.574
REMARK  Name = 
REMARK  5 active torsions:
REMARK  status: ('A' for Active; 'I' for Inactive)
REMARK    1  A    between atoms: O_2  and  C_3
REMARK    2  A    between atoms: C_6  and  C_9
REMARK    3  A    between atoms: C_15  and  N_16
REMARK    4  A    between atoms: C_17  and  C_19
REMARK    5  A    between atoms: C_24  and  C_25
REMARK                            x       y       z     vdW  Elec       q    Type
REMARK                         _______ _______ _______ _____ _____    ______ ____
ROOT
ATOM      9  C   UNL     1      -0.709  -0.081  24.368  0.00  0.00    +0.048 C 
ATOM     10  C   UNL     1      -0.211  -0.415  23.801  0.00  0.00    +0.042 C 
ATOM     11  C   UNL     1       0.330   0.162  23.568  0.00  0.00    +0.184 C 
ATOM     12  O   UNL     1       0.930   0.066  23.009  0.00  0.00    -0.220 OA
ATOM     13  C   UNL     1       0.168   0.851  23.991  0.00  0.00    +0.202 C 
ATOM     14  O   UNL     1       0.576   1.566  23.930  0.00  0.00    -0.219 OA
ATOM     15  C   UNL     1      -0.475   0.701  24.486  0.00  0.00    +0.132 C 
ENDROOT
BRANCH   9   6
ATOM      3  C   UNL     1      -2.578  -1.229  25.517  0.00  0.00    +0.139 A 
ATOM      4  C   UNL     1      -1.914  -0.991  25.945  0.00  0.00    +0.037 A 
ATOM      5  C   UNL     1      -1.292  -0.609  25.562  0.00  0.00    -0.001 A 
ATOM      6  C   UNL     1      -1.332  -0.464  24.751  0.00  0.00    -0.020 A 
ATOM      7  C   UNL     1      -1.996  -0.702  24.323  0.00  0.00    -0.001 A 
ATOM      8  C   UNL     1      -2.619  -1.084  24.705  0.00  0.00    +0.037 A 
BRANCH   3   2
ATOM      1  C   UNL     1      -3.590  -2.238  25.530  0.00  0.00    +0.252 C 
ATOM      2  O   UNL     1      -3.200  -1.611  25.899  0.00  0.00    -0.471 OA
ENDBRANCH   3   2
ENDBRANCH   9   6
BRANCH  15  16
ATOM     16  N   UNL     1      -0.822   1.238  25.007  0.00  0.00    -0.200 NA
ATOM     17  C   UNL     1      -0.971   2.012  24.763  0.00  0.00    +0.269 C 
ATOM     18  O   UNL     1      -0.771   2.248  23.998  0.00  0.00    -0.268 OA
BRANCH  17  19
ATOM     19  C   UNL     1      -1.318   2.549  25.284  0.00  0.00    +0.109 A 
ATOM     20  C   UNL     1      -0.975   2.847  25.973  0.00  0.00    +0.159 A 
ATOM     21  C   UNL     1      -0.225   2.660  26.261  0.00  0.00    +0.076 C 
ATOM     22  O   UNL     1      -1.514   3.365  26.322  0.00  0.00    -0.358 OA
ATOM     23  N   UNL     1      -2.190   3.387  25.849  0.00  0.00    -0.077 NA
ATOM     24  C   UNL     1      -2.069   2.883  25.208  0.00  0.00    +0.127 A 
BRANCH  24  25
ATOM     25  C   UNL     1      -2.604   2.737  24.597  0.00  0.00    +0.021 A 
ATOM     26  C   UNL     1      -2.444   3.010  23.835  0.00  0.00    +0.002 A 
ATOM     27  C   UNL     1      -2.979   2.864  23.225  0.00  0.00    +0.000 A 
ATOM     28  C   UNL     1      -3.674   2.447  23.376  0.00  0.00    +0.000 A 
ATOM     29  C   UNL     1      -3.834   2.174  24.138  0.00  0.00    +0.000 A 
ATOM     30  C   UNL     1      -3.299   2.319  24.749  0.00  0.00    +0.002 A 
ENDBRANCH  24  25
ENDBRANCH  17  19
ENDBRANCH  15  16
TORSDOF 5
ENDMDL
MODEL 9
REMARK VINA RESULT:     -10.6      1.524      3.102
REMARK  Name = 
REMARK  5 active torsions:
REMARK  status: ('A' for Active; 'I' for Inactive)
REMARK    1  A    between atoms: O_2  and  C_3
REMARK    2  A    between atoms: C_6  and  C_9
REMARK    3  A    between atoms: C_15  and  N_16
REMARK    4  A    between atoms: C_17  and  C_19
REMARK    5  A    between atoms: C_24  and  C_25
REMARK                            x       y       z     vdW  Elec       q    Type
REMARK                         _______ _______ _______ _____ _____    ______ ____
ROOT
ATOM      9  C   UNL     1      -2.831   1.159  23.620  0.00  0.00    +0.048 C 
ATOM     10  C   UNL     1      -2.833   1.062  22.800  0.00  0.00    +0.042 C 
ATOM     11  C   UNL     1      -2.638   1.786  22.457  0.00  0.00    +0.184 C 
ATOM     12  O   UNL     1      -2.576   1.939  21.649  0.00  0.00    -0.220 OA
ATOM     13  C   UNL     1      -2.514   2.330  23.065  0.00  0.00    +0.202 C 
ATOM     14  O   UNL     1      -2.307   3.124  22.970  0.00  0.00    -0.219 OA
ATOM     15  C   UNL     1      -2.633   1.943  23.783  0.00  0.00    +0.132 C 
ENDROOT
BRANCH   9   6
ATOM      3  C   UNL     1      -3.327  -0.594  25.294  0.00  0.00    +0.139 A 
ATOM      4  C   UNL     1      -3.929  -0.303  24.812  0.00  0.00    +0.037 A 
ATOM      5  C   UNL     1      -3.764   0.282  24.254  0.00  0.00    -0.001 A 
ATOM      6  C   UNL     1      -2.996   0.575  24.178  0.00  0.00    -0.020 A 
ATOM      7  C   UNL     1      -2.394   0.282  24.661  0.00  0.00    -0.001 A 
ATOM      8  C   UNL     1      -2.559  -0.302  25.219  0.00  0.00    +0.037 A 
BRANCH   3   2
ATOM      1  C   UNL     1      -3.441  -1.976  25.643  0.00  0.00    +0.252 C 
ATOM      2  O   UNL     1      -3.493  -1.179  25.852  0.00  0.00    -0.471 OA
ENDBRANCH   3   2
ENDBRANCH   9   6
BRANCH  15  16
ATOM     16  N   UNL     1      -2.567   2.281  24.533  0.00  0.00    -0.200 NA
ATOM     17  C   UNL     1      -2.832   3.051  24.664  0.00  0.00    +0.269 C 
ATOM     18  O   UNL     1      -3.163   3.484  24.044  0.00  0.00    -0.268 OA
BRANCH  17  19
ATOM     19  C   UNL     1      -2.765   3.389  25.414  0.00  0.00    +0.109 A 
ATOM     20  C   UNL     1      -2.061   3.585  25.796  0.00  0.00    +0.159 A 
ATOM     21  C   UNL     1      -1.300   3.478  25.495  0.00  0.00    +0.076 C 
ATOM     22  O   UNL     1      -2.251   3.906  26.531  0.00  0.00    -0.358 OA
ATOM     23  N   UNL     1      -3.074   3.909  26.603  0.00  0.00    -0.077 NA
ATOM     24  C   UNL     1      -3.391   3.588  25.912  0.00  0.00    +0.127 A 
BRANCH  24  25
ATOM     25  C   UNL     1      -4.193   3.486  25.749  0.00  0.00    +0.021 A 
ATOM     26  C   UNL     1      -4.581   4.011  25.246  0.00  0.00    +0.002 A 
ATOM     27  C   UNL     1      -5.383   3.909  25.082  0.00  0.00    +0.000 A 
ATOM     28  C   UNL     1      -5.798   3.282  25.422  0.00  0.00    +0.000 A 
ATOM     29  C   UNL     1      -5.409   2.756  25.927  0.00  0.00    +0.000 A 
ATOM     30  C   UNL     1      -4.606   2.859  26.090  0.00  0.00    +0.002 A 
ENDBRANCH  24  25
ENDBRANCH  17  19
ENDBRANCH  15  16
TORSDOF 5
ENDMDL
