MODEL 1
REMARK VINA RESULT:     -17.0      0.000      0.000
REMARK  Name = 
REMARK  3 active torsions:
REMARK  status: ('A' for Active; 'I' for Inactive)
REMARK    1  A    between atoms: C_5  and  C_8
REMARK    2  A    between atoms: N_10  and  C_11
REMARK    3  A    between atoms: C_21  and  C_23
REMARK                            x       y       z     vdW  Elec       q    Type
REMARK                         _______ _______ _______ _____ _____    ______ ____
ROOT
ATOM     11  C   UNL     1      -2.578   1.611  23.906  0.00  0.00    +0.130 A 
ATOM     12  C   UNL     1      -2.776   2.411  23.878  0.00  0.00    +0.023 A 
ATOM     13  C   UNL     1      -3.514   2.664  24.146  0.00  0.00    +0.014 A 
ATOM     14  C   UNL     1      -4.055   2.116  24.443  0.00  0.00    +0.041 A 
ATOM     15  C   UNL     1      -4.901   2.068  24.796  0.00  0.00    +0.058 C 
ATOM     16  C   UNL     1      -5.450   2.471  24.967  0.00  0.00    +0.011 C 
ATOM     17  C   UNL     1      -5.252   1.681  24.992  0.00  0.00    +0.043 C 
ATOM     18  C   UNL     1      -5.200   0.701  25.104  0.00  0.00    +0.096 C 
ATOM     19  N   UNL     1      -4.431   0.567  24.807  0.00  0.00    -0.276 N 
ATOM     20  C   UNL     1      -4.866   1.120  24.910  0.00  0.00    +0.099 C 
ATOM     21  C   UNL     1      -3.753   0.151  24.585  0.00  0.00    +0.249 C 
ATOM     22  O   UNL     1      -3.107   0.555  24.266  0.00  0.00    -0.270 OA
ATOM     30  C   UNL     1      -4.366   1.721  24.624  0.00  0.00    +0.110 C 
ATOM     31  N   UNL     1      -3.857   1.315  24.470  0.00  0.00    -0.298 N 
ATOM     32  C   UNL     1      -3.119   1.063  24.202  0.00  0.00    +0.276 A 
ATOM     33  O   UNL     1      -2.703   0.354  24.128  0.00  0.00    -0.266 OA
ENDROOT
BRANCH  21  23
ATOM     23  C   UNL     1      -3.720  -0.667  24.683  0.00  0.00    +0.054 A 
ATOM     24  C   UNL     1      -3.990  -1.165  24.084  0.00  0.00    +0.007 A 
ATOM     25  C   UNL     1      -3.957  -1.984  24.182  0.00  0.00    +0.030 A 
ATOM     26  C   UNL     1      -3.654  -2.304  24.880  0.00  0.00    +0.140 A 
ATOM     27  F   UNL     1      -3.622  -3.123  24.978  0.00  0.00    -0.204 F 
ATOM     28  C   UNL     1      -3.384  -1.806  25.479  0.00  0.00    +0.030 A 
ATOM     29  C   UNL     1      -3.417  -0.987  25.381  0.00  0.00    +0.007 A 
ENDBRANCH  21  23
BRANCH  11  10
ATOM      8  C   UNL     1      -1.154   1.716  23.923  0.00  0.00    +0.269 C 
ATOM      9  O   UNL     1      -0.415   1.464  23.654  0.00  0.00    -0.268 OA
ATOM     10  N   UNL     1      -1.840   1.359  23.637  0.00  0.00    -0.171 NA
BRANCH   8   5
ATOM      1  F   UNL     1      -1.358   4.149  26.142  0.00  0.00    -0.204 F 
ATOM      2  C   UNL     1      -1.307   3.540  25.587  0.00  0.00    +0.140 A 
ATOM      3  C   UNL     1      -1.349   3.713  24.781  0.00  0.00    +0.030 A 
ATOM      4  C   UNL     1      -1.298   3.104  24.226  0.00  0.00    +0.007 A 
ATOM      5  C   UNL     1      -1.205   2.324  24.478  0.00  0.00    +0.056 A 
ATOM      6  C   UNL     1      -1.163   2.152  25.284  0.00  0.00    +0.007 A 
ATOM      7  C   UNL     1      -1.214   2.761  25.839  0.00  0.00    +0.030 A 
ENDBRANCH   8   5
ENDBRANCH  11  10
TORSDOF 3
ENDMDL
MODEL 2
REMARK VINA RESULT:     -16.5      1.158      3.897
REMARK  Name = 
REMARK  3 active torsions:
REMARK  status: ('A' for Active; 'I' for Inactive)
REMARK    1  A    between atoms: C_5  and  C_8
REMARK    2  A    between atoms: N_10  and  C_11
REMARK    3  A    between atoms: C_21  and  C_23
REMARK                            x       y       z     vdW  Elec       q    Type
REMARK                         _______ _______ _______ _____ _____    ______ ____
ROOT
ATOM     11  C   UNL     1      -3.192   0.873  24.251  0.00  0.00    +0.130 A 
ATOM     12  C   UNL     1      -3.811   0.331  24.187  0.00  0.00    +0.023 A 
ATOM     13  C   UNL     1      -4.568   0.538  24.440  0.00  0.00    +0.014 A 
ATOM     14  C   UNL     1      -4.707   1.286  24.757  0.00  0.00    +0.041 A 
ATOM     15  C   UNL     1      -5.385   1.799  25.107  0.00  0.00    +0.058 C 
ATOM     16  C   UNL     1      -6.070   1.777  25.257  0.00  0.00    +0.011 C 
ATOM     17  C   UNL     1      -5.457   2.310  25.319  0.00  0.00    +0.043 C 
ATOM     18  C   UNL     1      -4.857   3.079  25.474  0.00  0.00    +0.096 C 
ATOM     19  N   UNL     1      -4.141   2.759  25.187  0.00  0.00    -0.276 N 
ATOM     20  C   UNL     1      -4.818   2.551  25.264  0.00  0.00    +0.099 C 
ATOM     21  C   UNL     1      -3.341   2.719  24.988  0.00  0.00    +0.249 C 
ATOM     22  O   UNL     1      -3.033   2.029  24.655  0.00  0.00    -0.270 OA
ATOM     30  C   UNL     1      -4.743   1.782  24.954  0.00  0.00    +0.110 C 
ATOM     31  N   UNL     1      -4.088   1.829  24.821  0.00  0.00    -0.298 N 
ATOM     32  C   UNL     1      -3.331   1.622  24.568  0.00  0.00    +0.276 A 
ATOM     33  O   UNL     1      -2.583   1.967  24.528  0.00  0.00    -0.266 OA
ENDROOT
BRANCH  21  23
ATOM     23  C   UNL     1      -2.850   3.367  25.122  0.00  0.00    +0.054 A 
ATOM     24  C   UNL     1      -2.428   3.426  25.828  0.00  0.00    +0.007 A 
ATOM     25  C   UNL     1      -1.936   4.076  25.962  0.00  0.00    +0.030 A 
ATOM     26  C   UNL     1      -1.867   4.665  25.389  0.00  0.00    +0.140 A 
ATOM     27  F   UNL     1      -1.375   5.314  25.524  0.00  0.00    -0.204 F 
ATOM     28  C   UNL     1      -2.288   4.607  24.684  0.00  0.00    +0.030 A 
ATOM     29  C   UNL     1      -2.780   3.957  24.549  0.00  0.00    +0.007 A 
ENDBRANCH  21  23
BRANCH  11  10
ATOM      8  C   UNL     1      -2.104  -0.053  24.232  0.00  0.00    +0.269 C 
ATOM      9  O   UNL     1      -1.346  -0.260  23.979  0.00  0.00    -0.268 OA
ATOM     10  N   UNL     1      -2.435   0.666  23.998  0.00  0.00    -0.171 NA
BRANCH   8   5
ATOM      1  F   UNL     1      -3.808  -2.098  26.182  0.00  0.00    -0.204 F 
ATOM      2  C   UNL     1      -3.381  -1.586  25.694  0.00  0.00    +0.140 A 
ATOM      3  C   UNL     1      -3.475  -1.624  24.875  0.00  0.00    +0.030 A 
ATOM      4  C   UNL     1      -3.049  -1.112  24.387  0.00  0.00    +0.007 A 
ATOM      5  C   UNL     1      -2.530  -0.564  24.720  0.00  0.00    +0.056 A 
ATOM      6  C   UNL     1      -2.437  -0.526  25.539  0.00  0.00    +0.007 A 
ATOM      7  C   UNL     1      -2.863  -1.038  26.026  0.00  0.00    +0.030 A 
ENDBRANCH   8   5
ENDBRANCH  11  10
TORSDOF 3
ENDMDL
MODEL 3
REMARK VINA RESULT:     -15.3      1.753      3.652
REMARK  Name = 
REMARK  3 active torsions:
REMARK  status: ('A' for Active; 'I' for Inactive)
REMARK    1  A    between atoms: C_5  and  C_8
REMARK    2  A    between atoms: N_10  and  C_11
REMARK    3  A    between atoms: C_21  and  C_23
REMARK                            x       y       z     vdW  Elec       q    Type
REMARK                         _______ _______ _______ _____ _____    ______ ____
ROOT
ATOM     11  C   UNL     1      -3.677   1.313  24.132  0.00  0.00    +0.130 A 
ATOM     12  C   UNL     1      -4.370   0.914  24.334  0.00  0.00    +0.023 A 
ATOM     13  C   UNL     1      -4.334   0.227  24.788  0.00  0.00    +0.014 A 
ATOM     14  C   UNL     1      -3.605  -0.063  25.040  0.00  0.00    +0.041 A 
ATOM     15  C   UNL     1      -3.239  -0.753  25.525  0.00  0.00    +0.058 C 
ATOM     16  C   UNL     1      -3.419  -1.328  25.886  0.00  0.00    +0.011 C 
ATOM     17  C   UNL     1      -2.736  -0.932  25.685  0.00  0.00    +0.043 C 
ATOM     18  C   UNL     1      -1.815  -0.602  25.548  0.00  0.00    +0.096 C 
ATOM     19  N   UNL     1      -1.976   0.077  25.089  0.00  0.00    -0.276 N 
ATOM     20  C   UNL     1      -2.343  -0.447  25.401  0.00  0.00    +0.099 C 
ATOM     21  C   UNL     1      -1.833   0.763  24.652  0.00  0.00    +0.249 C 
ATOM     22  O   UNL     1      -2.464   1.181  24.323  0.00  0.00    -0.270 OA
ATOM     30  C   UNL     1      -3.108  -0.207  25.178  0.00  0.00    +0.110 C 
ATOM     31  N   UNL     1      -2.911   0.336  24.839  0.00  0.00    -0.298 N 
ATOM     32  C   UNL     1      -2.947   1.023  24.385  0.00  0.00    +0.276 A 
ATOM     33  O   UNL     1      -2.424   1.576  24.067  0.00  0.00    -0.266 OA
ENDROOT
BRANCH  21  23
ATOM     23  C   UNL     1      -1.060   1.029  24.544  0.00  0.00    +0.054 A 
ATOM     24  C   UNL     1      -0.738   1.582  25.063  0.00  0.00    +0.007 A 
ATOM     25  C   UNL     1       0.036   1.848  24.955  0.00  0.00    +0.030 A 
ATOM     26  C   UNL     1       0.487   1.561  24.327  0.00  0.00    +0.140 A 
ATOM     27  F   UNL     1       1.260   1.828  24.218  0.00  0.00    -0.204 F 
ATOM     28  C   UNL     1       0.165   1.008  23.807  0.00  0.00    +0.030 A 
ATOM     29  C   UNL     1      -0.609   0.742  23.915  0.00  0.00    +0.007 A 
ENDBRANCH  21  23
BRANCH  11  10
ATOM      8  C   UNL     1      -4.218   2.614  23.899  0.00  0.00    +0.269 C 
ATOM      9  O   UNL     1      -4.254   3.303  23.445  0.00  0.00    -0.268 OA
ATOM     10  N   UNL     1      -3.714   2.000  23.678  0.00  0.00    -0.171 NA
BRANCH   8   5
ATOM      1  F   UNL     1      -6.087   2.322  26.602  0.00  0.00    -0.204 F 
ATOM      2  C   UNL     1      -5.620   2.395  25.926  0.00  0.00    +0.140 A 
ATOM      3  C   UNL     1      -5.878   2.077  25.210  0.00  0.00    +0.030 A 
ATOM      4  C   UNL     1      -5.410   2.150  24.534  0.00  0.00    +0.007 A 
ATOM      5  C   UNL     1      -4.685   2.541  24.575  0.00  0.00    +0.056 A 
ATOM      6  C   UNL     1      -4.427   2.859  25.292  0.00  0.00    +0.007 A 
ATOM      7  C   UNL     1      -4.895   2.786  25.968  0.00  0.00    +0.030 A 
ENDBRANCH   8   5
ENDBRANCH  11  10
TORSDOF 3
ENDMDL
MODEL 4
REMARK VINA RESULT:     -15.3      1.176      2.631
REMARK  Name = 
REMARK  3 active torsions:
REMARK  status: ('A' for Active; 'I' for Inactive)
REMARK    1  A    between atoms: C_5  and  C_8
REMARK    2  A    between atoms: N_10  and  C_11
REMARK    3  A    between atoms: C_21  and  C_23
REMARK                            x       y       z     vdW  Elec       q    Type
REMARK                         _______ _______ _______ _____ _____    ______ ____
ROOT
ATOM     11  C   UNL     1      -3.134   1.693  23.969  0.00  0.00    +0.130 A 
ATOM     12  C   UNL     1      -2.656   2.331  23.755  0.00  0.00    +0.023 A 
ATOM     13  C   UNL     1      -1.835   2.253  23.762  0.00  0.00    +0.014 A 
ATOM     14  C   UNL     1      -1.492   1.536  23.983  0.00  0.00    +0.041 A 
ATOM     15  C   UNL     1      -0.668   1.143  24.091  0.00  0.00    +0.058 C 
ATOM     16  C   UNL     1       0.018   1.277  24.033  0.00  0.00    +0.011 C 
ATOM     17  C   UNL     1      -0.457   0.650  24.243  0.00  0.00    +0.043 C 
ATOM     18  C   UNL     1      -0.853  -0.210  24.526  0.00  0.00    +0.096 C 
ATOM     19  N   UNL     1      -1.664  -0.012  24.481  0.00  0.00    -0.276 N 
ATOM     20  C   UNL     1      -1.036   0.305  24.366  0.00  0.00    +0.099 C 
ATOM     21  C   UNL     1      -2.482  -0.105  24.528  0.00  0.00    +0.249 C 
ATOM     22  O   UNL     1      -2.981   0.525  24.338  0.00  0.00    -0.270 OA
ATOM     30  C   UNL     1      -1.321   1.052  24.134  0.00  0.00    +0.110 C 
ATOM     31  N   UNL     1      -1.970   0.898  24.197  0.00  0.00    -0.298 N 
ATOM     32  C   UNL     1      -2.791   0.977  24.190  0.00  0.00    +0.276 A 
ATOM     33  O   UNL     1      -3.452   0.512  24.352  0.00  0.00    -0.266 OA
ENDROOT
BRANCH  21  23
ATOM     23  C   UNL     1      -2.802  -0.827  24.765  0.00  0.00    +0.054 A 
ATOM     24  C   UNL     1      -2.964  -0.965  25.562  0.00  0.00    +0.007 A 
ATOM     25  C   UNL     1      -3.285  -1.688  25.799  0.00  0.00    +0.030 A 
ATOM     26  C   UNL     1      -3.443  -2.272  25.239  0.00  0.00    +0.140 A 
ATOM     27  F   UNL     1      -3.763  -2.995  25.476  0.00  0.00    -0.204 F 
ATOM     28  C   UNL     1      -3.281  -2.135  24.442  0.00  0.00    +0.030 A 
ATOM     29  C   UNL     1      -2.961  -1.412  24.205  0.00  0.00    +0.007 A 
ENDBRANCH  21  23
BRANCH  11  10
ATOM      8  C   UNL     1      -4.311   2.409  24.346  0.00  0.00    +0.269 C 
ATOM      9  O   UNL     1      -5.133   2.488  24.338  0.00  0.00    -0.268 OA
ATOM     10  N   UNL     1      -3.955   1.773  23.961  0.00  0.00    -0.171 NA
BRANCH   8   5
ATOM      1  F   UNL     1      -2.455   4.638  25.918  0.00  0.00    -0.204 F 
ATOM      2  C   UNL     1      -2.919   4.081  25.525  0.00  0.00    +0.140 A 
ATOM      3  C   UNL     1      -3.074   4.168  24.719  0.00  0.00    +0.030 A 
ATOM      4  C   UNL     1      -3.538   3.610  24.326  0.00  0.00    +0.007 A 
ATOM      5  C   UNL     1      -3.847   2.967  24.739  0.00  0.00    +0.056 A 
ATOM      6  C   UNL     1      -3.692   2.880  25.545  0.00  0.00    +0.007 A 
ATOM      7  C   UNL     1      -3.228   3.437  25.938  0.00  0.00    +0.030 A 
ENDBRANCH   8   5
ENDBRANCH  11  10
TORSDOF 3
ENDMDL
MODEL 5
REMARK VINA RESULT:     -14.8      1.473      2.303
REMARK  Name = 
REMARK  3 active torsions:
REMARK  status: ('A' for Active; 'I' for Inactive)
REMARK    1  A    between atoms: C_5  and  C_8
REMARK    2  A    between atoms: N_10  and  C_11
REMARK    3  A    between atoms: C_21  and  C_23
REMARK                            x       y       z     vdW  Elec       q    Type
REMARK                         _______ _______ _______ _____ _____    ______ ____
ROOT
ATOM     11  C   UNL     1      -3.327   3.037  24.914  0.00  0.00    +0.130 A 
ATOM     12  C   UNL     1      -3.211   3.647  24.370  0.00  0.00    +0.023 A 
ATOM     13  C   UNL     1      -3.034   3.471  23.584  0.00  0.00    +0.014 A 
ATOM     14  C   UNL     1      -2.972   2.685  23.341  0.00  0.00    +0.041 A 
ATOM     15  C   UNL     1      -2.799   2.180  22.593  0.00  0.00    +0.058 C 
ATOM     16  C   UNL     1      -2.647   2.242  21.910  0.00  0.00    +0.011 C 
ATOM     17  C   UNL     1      -2.762   1.643  22.450  0.00  0.00    +0.043 C 
ATOM     18  C   UNL     1      -2.864   0.793  22.943  0.00  0.00    +0.096 C 
ATOM     19  N   UNL     1      -3.037   1.092  23.704  0.00  0.00    -0.276 N 
ATOM     20  C   UNL     1      -2.895   1.350  23.055  0.00  0.00    +0.099 C 
ATOM     21  C   UNL     1      -3.217   1.089  24.509  0.00  0.00    +0.249 C 
ATOM     22  O   UNL     1      -3.314   1.803  24.912  0.00  0.00    -0.270 OA
ATOM     30  C   UNL     1      -2.943   2.161  23.237  0.00  0.00    +0.110 C 
ATOM     31  N   UNL     1      -3.087   2.075  23.885  0.00  0.00    -0.298 N 
ATOM     32  C   UNL     1      -3.265   2.251  24.671  0.00  0.00    +0.276 A 
ATOM     33  O   UNL     1      -3.417   1.843  25.371  0.00  0.00    -0.266 OA
ENDROOT
BRANCH  21  23
ATOM     23  C   UNL     1      -3.300   0.374  24.911  0.00  0.00    +0.054 A 
ATOM     24  C   UNL     1      -2.640   0.009  25.245  0.00  0.00    +0.007 A 
ATOM     25  C   UNL     1      -2.723  -0.707  25.647  0.00  0.00    +0.030 A 
ATOM     26  C   UNL     1      -3.466  -1.058  25.714  0.00  0.00    +0.140 A 
ATOM     27  F   UNL     1      -3.549  -1.774  26.116  0.00  0.00    -0.204 F 
ATOM     28  C   UNL     1      -4.126  -0.694  25.380  0.00  0.00    +0.030 A 
ATOM     29  C   UNL     1      -4.043   0.022  24.978  0.00  0.00    +0.007 A 
ENDBRANCH  21  23
BRANCH  11  10
ATOM      8  C   UNL     1      -3.015   3.721  26.129  0.00  0.00    +0.269 C 
ATOM      9  O   UNL     1      -3.193   3.898  26.916  0.00  0.00    -0.268 OA
ATOM     10  N   UNL     1      -3.504   3.214  25.699  0.00  0.00    -0.171 NA
BRANCH   8   5
ATOM      1  F   UNL     1      -0.347   5.040  24.705  0.00  0.00    -0.204 F 
ATOM      2  C   UNL     1      -1.014   4.710  25.061  0.00  0.00    +0.140 A 
ATOM      3  C   UNL     1      -1.740   5.102  25.021  0.00  0.00    +0.030 A 
ATOM      4  C   UNL     1      -2.407   4.772  25.377  0.00  0.00    +0.007 A 
ATOM      5  C   UNL     1      -2.348   4.051  25.773  0.00  0.00    +0.056 A 
ATOM      6  C   UNL     1      -1.623   3.659  25.813  0.00  0.00    +0.007 A 
ATOM      7  C   UNL     1      -0.956   3.989  25.456  0.00  0.00    +0.030 A 
ENDBRANCH   8   5
ENDBRANCH  11  10
TORSDOF 3
ENDMDL
MODEL 6
REMARK VINA RESULT:     -14.8      1.859      3.426
REMARK  Name = 
REMARK  3 active torsions:
REMARK  status: ('A' for Active; 'I' for Inactive)
REMARK    1  A    between atoms: C_5  and  C_8
REMARK    2  A    between atoms: N_10  and  C_11
REMARK    3  A    between atoms: C_21  and  C_23
REMARK                            x       y       z     vdW  Elec       q    Type
REMARK                         _______ _______ _______ _____ _____    ______ ____
ROOT
ATOM     11  C   UNL     1      -2.088  -0.077  25.372  0.00  0.00    +0.130 A 
ATOM     12  C   UNL     1      -1.730  -0.810  25.249  0.00  0.00    +0.023 A 
ATOM     13  C   UNL     1      -2.148  -1.417  24.878  0.00  0.00    +0.014 A 
ATOM     14  C   UNL     1      -2.924  -1.290  24.629  0.00  0.00    +0.041 A 
ATOM     15  C   UNL     1      -3.620  -1.723  24.214  0.00  0.00    +0.058 C 
ATOM     16  C   UNL     1      -3.793  -2.342  23.931  0.00  0.00    +0.011 C 
ATOM     17  C   UNL     1      -4.143  -1.616  24.053  0.00  0.00    +0.043 C 
ATOM     18  C   UNL     1      -4.731  -0.824  24.109  0.00  0.00    +0.096 C 
ATOM     19  N   UNL     1      -4.212  -0.292  24.492  0.00  0.00    -0.276 N 
ATOM     20  C   UNL     1      -4.200  -0.965  24.260  0.00  0.00    +0.099 C 
ATOM     21  C   UNL     1      -3.946   0.408  24.839  0.00  0.00    +0.249 C 
ATOM     22  O   UNL     1      -3.180   0.452  25.144  0.00  0.00    -0.270 OA
ATOM     30  C   UNL     1      -3.422  -1.156  24.488  0.00  0.00    +0.110 C 
ATOM     31  N   UNL     1      -3.282  -0.556  24.751  0.00  0.00    -0.298 N 
ATOM     32  C   UNL     1      -2.864   0.050  25.123  0.00  0.00    +0.276 A 
ATOM     33  O   UNL     1      -2.991   0.833  25.349  0.00  0.00    -0.266 OA
ENDROOT
BRANCH  21  23
ATOM     23  C   UNL     1      -4.444   1.063  24.880  0.00  0.00    +0.054 A 
ATOM     24  C   UNL     1      -4.361   1.680  24.339  0.00  0.00    +0.007 A 
ATOM     25  C   UNL     1      -4.860   2.337  24.381  0.00  0.00    +0.030 A 
ATOM     26  C   UNL     1      -5.443   2.375  24.964  0.00  0.00    +0.140 A 
ATOM     27  F   UNL     1      -5.942   3.031  25.005  0.00  0.00    -0.204 F 
ATOM     28  C   UNL     1      -5.526   1.758  25.505  0.00  0.00    +0.030 A 
ATOM     29  C   UNL     1      -5.027   1.102  25.463  0.00  0.00    +0.007 A 
ENDBRANCH  21  23
BRANCH  11  10
ATOM      8  C   UNL     1      -0.930   0.756  25.455  0.00  0.00    +0.269 C 
ATOM      9  O   UNL     1      -0.511   1.363  25.827  0.00  0.00    -0.268 OA
ATOM     10  N   UNL     1      -1.669   0.529  25.743  0.00  0.00    -0.171 NA
BRANCH   8   5
ATOM      1  F   UNL     1       0.352  -0.757  22.818  0.00  0.00    -0.204 F 
ATOM      2  C   UNL     1       0.031  -0.379  23.478  0.00  0.00    +0.140 A 
ATOM      3  C   UNL     1       0.102  -0.722  24.225  0.00  0.00    +0.030 A 
ATOM      4  C   UNL     1      -0.218  -0.343  24.884  0.00  0.00    +0.007 A 
ATOM      5  C   UNL     1      -0.609   0.377  24.796  0.00  0.00    +0.056 A 
ATOM      6  C   UNL     1      -0.681   0.720  24.048  0.00  0.00    +0.007 A 
ATOM      7  C   UNL     1      -0.360   0.342  23.389  0.00  0.00    +0.030 A 
ENDBRANCH   8   5
ENDBRANCH  11  10
TORSDOF 3
ENDMDL
MODEL 7
REMARK VINA RESULT:     -14.4      1.107      4.672
REMARK  Name = 
REMARK  3 active torsions:
REMARK  status: ('A' for Active; 'I' for Inactive)
REMARK    1  A    between atoms: C_5  and  C_8
REMARK    2  A    between atoms: N_10  and  C_11
REMARK    3  A    between atoms: C_21  and  C_23
REMARK                            x       y       z     vdW  Elec       q    Type
REMARK                         _______ _______ _______ _____ _____    ______ ____
ROOT
ATOM     11  C   UNL     1      -2.978   0.794  24.177  0.00  0.00    +0.130 A 
ATOM     12  C   UNL     1      -2.786   0.035  23.919  0.00  0.00    +0.023 A 
ATOM     13  C   UNL     1      -1.995  -0.187  23.841  0.00  0.00    +0.014 A 
ATOM     14  C   UNL     1      -1.396   0.351  24.022  0.00  0.00    +0.041 A 
ATOM     15  C   UNL     1      -0.480   0.418  24.043  0.00  0.00    +0.058 C 
ATOM     16  C   UNL     1       0.102   0.048  23.915  0.00  0.00    +0.011 C 
ATOM     17  C   UNL     1      -0.091   0.797  24.170  0.00  0.00    +0.043 C 
ATOM     18  C   UNL     1      -0.121   1.732  24.488  0.00  0.00    +0.096 C 
ATOM     19  N   UNL     1      -0.949   1.840  24.527  0.00  0.00    -0.276 N 
ATOM     20  C   UNL     1      -0.493   1.323  24.350  0.00  0.00    +0.099 C 
ATOM     21  C   UNL     1      -1.670   2.219  24.658  0.00  0.00    +0.249 C 
ATOM     22  O   UNL     1      -2.378   1.817  24.523  0.00  0.00    -0.270 OA
ATOM     30  C   UNL     1      -1.049   0.736  24.152  0.00  0.00    +0.110 C 
ATOM     31  N   UNL     1      -1.588   1.110  24.281  0.00  0.00    -0.298 N 
ATOM     32  C   UNL     1      -2.379   1.332  24.358  0.00  0.00    +0.276 A 
ATOM     33  O   UNL     1      -2.809   1.998  24.586  0.00  0.00    -0.266 OA
ENDROOT
BRANCH  21  23
ATOM     23  C   UNL     1      -1.684   3.000  24.923  0.00  0.00    +0.054 A 
ATOM     24  C   UNL     1      -1.785   3.162  25.725  0.00  0.00    +0.007 A 
ATOM     25  C   UNL     1      -1.799   3.944  25.990  0.00  0.00    +0.030 A 
ATOM     26  C   UNL     1      -1.710   4.563  25.452  0.00  0.00    +0.140 A 
ATOM     27  F   UNL     1      -1.724   5.344  25.717  0.00  0.00    -0.204 F 
ATOM     28  C   UNL     1      -1.609   4.402  24.650  0.00  0.00    +0.030 A 
ATOM     29  C   UNL     1      -1.595   3.620  24.385  0.00  0.00    +0.007 A 
ENDBRANCH  21  23
BRANCH  11  10
ATOM      8  C   UNL     1      -4.315   0.487  24.574  0.00  0.00    +0.269 C 
ATOM      9  O   UNL     1      -5.107   0.709  24.651  0.00  0.00    -0.268 OA
ATOM     10  N   UNL     1      -3.768   1.015  24.255  0.00  0.00    -0.171 NA
BRANCH   8   5
ATOM      1  F   UNL     1      -3.340  -2.512  25.544  0.00  0.00    -0.204 F 
ATOM      2  C   UNL     1      -3.584  -1.762  25.302  0.00  0.00    +0.140 A 
ATOM      3  C   UNL     1      -3.840  -1.642  24.526  0.00  0.00    +0.030 A 
ATOM      4  C   UNL     1      -4.083  -0.892  24.283  0.00  0.00    +0.007 A 
ATOM      5  C   UNL     1      -4.072  -0.263  24.816  0.00  0.00    +0.056 A 
ATOM      6  C   UNL     1      -3.816  -0.383  25.592  0.00  0.00    +0.007 A 
ATOM      7  C   UNL     1      -3.572  -1.133  25.835  0.00  0.00    +0.030 A 
ENDBRANCH   8   5
ENDBRANCH  11  10
TORSDOF 3
ENDMDL
