MODEL 1
REMARK VINA RESULT:     -11.0      0.000      0.000
REMARK  Name = 
REMARK  4 active torsions:
REMARK  status: ('A' for Active; 'I' for Inactive)
REMARK    1  A    between atoms: C_5  and  N_8
REMARK    2  A    between atoms: C_12  and  C_13
REMARK    3  A    between atoms: C_15  and  C_18
REMARK    4  A    between atoms: C_21  and  C_24
REMARK                            x       y       z     vdW  Elec       q    Type
REMARK                         _______ _______ _______ _____ _____    ______ ____
ROOT
ATOM     13  C   UNL     1      -3.244   2.859  24.914  0.00  0.00    +0.251 A 
ATOM     14  N   UNL     1      -3.257   2.065  25.140  0.00  0.00    -0.190 NA
ATOM     15  C   UNL     1      -3.462   1.616  24.479  0.00  0.00    +0.205 A 
ATOM     16  N   UNL     1      -3.576   2.132  23.846  0.00  0.00    -0.056 NA
ATOM     17  O   UNL     1      -3.442   2.899  24.115  0.00  0.00    -0.336 OA
ENDROOT
BRANCH  15  18
ATOM     18  C   UNL     1      -3.540   0.795  24.455  0.00  0.00    +0.058 A 
ATOM     19  C   UNL     1      -4.191   0.432  24.809  0.00  0.00    +0.006 A 
ATOM     20  C   UNL     1      -4.269  -0.389  24.786  0.00  0.00    +0.019 A 
ATOM     21  C   UNL     1      -3.696  -0.847  24.409  0.00  0.00    +0.084 A 
ATOM     22  N   UNL     1      -3.045  -0.485  24.055  0.00  0.00    -0.244 NA
ATOM     23  C   UNL     1      -2.967   0.337  24.079  0.00  0.00    +0.102 A 
BRANCH  21  24
ATOM     24  C   UNL     1      -3.773  -1.668  24.386  0.00  0.00    +0.056 A 
ATOM     25  C   UNL     1      -4.233  -2.022  23.799  0.00  0.00    +0.104 A 
ATOM     26  N   UNL     1      -4.311  -2.844  23.776  0.00  0.00    -0.222 NA
ATOM     27  C   UNL     1      -3.929  -3.310  24.339  0.00  0.00    +0.199 A 
ATOM     28  N   UNL     1      -3.470  -2.956  24.926  0.00  0.00    -0.222 NA
ATOM     29  C   UNL     1      -3.392  -2.135  24.949  0.00  0.00    +0.104 A 
ENDBRANCH  21  24
ENDBRANCH  15  18
BRANCH  13  12
ATOM      8  N   UNL     1      -2.310   3.761  25.601  0.00  0.00    -0.268 NA
ATOM      9  C   UNL     1      -2.387   4.413  26.100  0.00  0.00    +0.072 C 
ATOM     10  C   UNL     1      -3.193   4.553  26.212  0.00  0.00    +0.019 C 
ATOM     11  C   UNL     1      -3.612   3.988  25.781  0.00  0.00    +0.027 C 
ATOM     12  C   UNL     1      -3.066   3.498  25.403  0.00  0.00    +0.138 C 
BRANCH   8   5
ATOM      1  C   UNL     1       0.532   2.437  24.572  0.00  0.00    +0.090 C 
ATOM      2  N   UNL     1      -0.178   2.768  24.829  0.00  0.00    -0.271 NA
ATOM      3  C   UNL     1      -0.572   3.317  24.356  0.00  0.00    +0.074 C 
ATOM      4  C   UNL     1      -1.282   3.649  24.613  0.00  0.00    +0.033 C 
ATOM      5  C   UNL     1      -1.599   3.430  25.343  0.00  0.00    +0.061 C 
ATOM      6  C   UNL     1      -1.205   2.881  25.816  0.00  0.00    +0.033 C 
ATOM      7  C   UNL     1      -0.494   2.549  25.558  0.00  0.00    +0.074 C 
ENDBRANCH   8   5
ENDBRANCH  13  12
TORSDOF 4
ENDMDL
MODEL 2
REMARK VINA RESULT:     -10.9      0.988      2.229
REMARK  Name = 
REMARK  4 active torsions:
REMARK  status: ('A' for Active; 'I' for Inactive)
REMARK    1  A    between atoms: C_5  and  N_8
REMARK    2  A    between atoms: C_12  and  C_13
REMARK    3  A    between atoms: C_15  and  C_18
REMARK    4  A    between atoms: C_21  and  C_24
REMARK                            x       y       z     vdW  Elec       q    Type
REMARK                         _______ _______ _______ _____ _____    ______ ____
ROOT
ATOM     13  C   UNL     1      -2.055   2.723  24.289  0.00  0.00    +0.251 A 
ATOM     14  N   UNL     1      -2.205   1.995  24.649  0.00  0.00    -0.190 NA
ATOM     15  C   UNL     1      -2.464   1.471  24.067  0.00  0.00    +0.205 A 
ATOM     16  N   UNL     1      -2.475   1.874  23.348  0.00  0.00    -0.056 NA
ATOM     17  O   UNL     1      -2.222   2.646  23.485  0.00  0.00    -0.336 OA
ENDROOT
BRANCH  15  18
ATOM     18  C   UNL     1      -2.676   0.682  24.185  0.00  0.00    +0.058 A 
ATOM     19  C   UNL     1      -3.462   0.449  24.096  0.00  0.00    +0.006 A 
ATOM     20  C   UNL     1      -3.674  -0.340  24.214  0.00  0.00    +0.019 A 
ATOM     21  C   UNL     1      -3.100  -0.895  24.420  0.00  0.00    +0.084 A 
ATOM     22  N   UNL     1      -2.313  -0.662  24.509  0.00  0.00    -0.244 NA
ATOM     23  C   UNL     1      -2.101   0.127  24.391  0.00  0.00    +0.102 A 
BRANCH  21  24
ATOM     24  C   UNL     1      -3.311  -1.684  24.538  0.00  0.00    +0.056 A 
ATOM     25  C   UNL     1      -3.712  -2.095  23.946  0.00  0.00    +0.104 A 
ATOM     26  N   UNL     1      -3.924  -2.884  24.064  0.00  0.00    -0.222 NA
ATOM     27  C   UNL     1      -3.735  -3.261  24.773  0.00  0.00    +0.199 A 
ATOM     28  N   UNL     1      -3.334  -2.849  25.365  0.00  0.00    -0.222 NA
ATOM     29  C   UNL     1      -3.122  -2.060  25.247  0.00  0.00    +0.104 A 
ENDBRANCH  21  24
ENDBRANCH  15  18
BRANCH  13  12
ATOM      8  N   UNL     1      -2.251   3.948  25.075  0.00  0.00    -0.268 NA
ATOM      9  C   UNL     1      -1.757   4.542  25.364  0.00  0.00    +0.072 C 
ATOM     10  C   UNL     1      -0.985   4.366  25.132  0.00  0.00    +0.019 C 
ATOM     11  C   UNL     1      -1.002   3.663  24.701  0.00  0.00    +0.027 C 
ATOM     12  C   UNL     1      -1.786   3.404  24.666  0.00  0.00    +0.138 C 
BRANCH   8   5
ATOM      1  C   UNL     1      -5.521   3.776  25.488  0.00  0.00    +0.090 C 
ATOM      2  N   UNL     1      -4.703   3.819  25.384  0.00  0.00    -0.271 NA
ATOM      3  C   UNL     1      -4.198   3.574  25.989  0.00  0.00    +0.074 C 
ATOM      4  C   UNL     1      -3.381   3.617  25.886  0.00  0.00    +0.033 C 
ATOM      5  C   UNL     1      -3.069   3.905  25.178  0.00  0.00    +0.061 C 
ATOM      6  C   UNL     1      -3.574   4.150  24.574  0.00  0.00    +0.033 C 
ATOM      7  C   UNL     1      -4.392   4.107  24.678  0.00  0.00    +0.074 C 
ENDBRANCH   8   5
ENDBRANCH  13  12
TORSDOF 4
ENDMDL
MODEL 3
REMARK VINA RESULT:     -10.3      1.036      1.578
REMARK  Name = 
REMARK  4 active torsions:
REMARK  status: ('A' for Active; 'I' for Inactive)
REMARK    1  A    between atoms: C_5  and  N_8
REMARK    2  A    between atoms: C_12  and  C_13
REMARK    3  A    between atoms: C_15  and  C_18
REMARK    4  A    between atoms: C_21  and  C_24
REMARK                            x       y       z     vdW  Elec       q    Type
REMARK                         _______ _______ _______ _____ _____    ______ ____
ROOT
ATOM     13  C   UNL     1      -4.350   2.536  24.678  0.00  0.00    +0.251 A 
ATOM     14  N   UNL     1      -4.212   1.771  24.954  0.00  0.00    -0.190 NA
ATOM     15  C   UNL     1      -3.915   1.324  24.327  0.00  0.00    +0.205 A 
ATOM     16  N   UNL     1      -3.868   1.813  23.665  0.00  0.00    -0.056 NA
ATOM     17  O   UNL     1      -4.137   2.562  23.882  0.00  0.00    -0.336 OA
ENDROOT
BRANCH  15  18
ATOM     18  C   UNL     1      -3.701   0.528  24.358  0.00  0.00    +0.058 A 
ATOM     19  C   UNL     1      -4.266  -0.056  24.220  0.00  0.00    +0.006 A 
ATOM     20  C   UNL     1      -4.052  -0.853  24.251  0.00  0.00    +0.019 A 
ATOM     21  C   UNL     1      -3.273  -1.065  24.420  0.00  0.00    +0.084 A 
ATOM     22  N   UNL     1      -2.708  -0.480  24.559  0.00  0.00    -0.244 NA
ATOM     23  C   UNL     1      -2.922   0.316  24.528  0.00  0.00    +0.102 A 
BRANCH  21  24
ATOM     24  C   UNL     1      -3.059  -1.861  24.451  0.00  0.00    +0.056 A 
ATOM     25  C   UNL     1      -3.640  -2.441  24.539  0.00  0.00    +0.104 A 
ATOM     26  N   UNL     1      -3.426  -3.237  24.570  0.00  0.00    -0.222 NA
ATOM     27  C   UNL     1      -2.632  -3.454  24.513  0.00  0.00    +0.199 A 
ATOM     28  N   UNL     1      -2.052  -2.874  24.424  0.00  0.00    -0.222 NA
ATOM     29  C   UNL     1      -2.265  -2.078  24.393  0.00  0.00    +0.104 A 
ENDBRANCH  21  24
ENDBRANCH  15  18
BRANCH  13  12
ATOM      8  N   UNL     1      -4.206   3.776  25.453  0.00  0.00    -0.268 NA
ATOM      9  C   UNL     1      -4.725   4.282  25.848  0.00  0.00    +0.072 C 
ATOM     10  C   UNL     1      -5.489   3.982  25.760  0.00  0.00    +0.019 C 
ATOM     11  C   UNL     1      -5.441   3.292  25.311  0.00  0.00    +0.027 C 
ATOM     12  C   UNL     1      -4.648   3.165  25.121  0.00  0.00    +0.138 C 
BRANCH   8   5
ATOM      1  C   UNL     1      -0.933   4.139  25.241  0.00  0.00    +0.090 C 
ATOM      2  N   UNL     1      -1.752   4.048  25.294  0.00  0.00    -0.271 NA
ATOM      3  C   UNL     1      -2.083   3.677  25.952  0.00  0.00    +0.074 C 
ATOM      4  C   UNL     1      -2.901   3.586  26.005  0.00  0.00    +0.033 C 
ATOM      5  C   UNL     1      -3.388   3.867  25.400  0.00  0.00    +0.061 C 
ATOM      6  C   UNL     1      -3.055   4.237  24.743  0.00  0.00    +0.033 C 
ATOM      7  C   UNL     1      -2.237   4.328  24.690  0.00  0.00    +0.074 C 
ENDBRANCH   8   5
ENDBRANCH  13  12
TORSDOF 4
ENDMDL
MODEL 4
REMARK VINA RESULT:      -9.8      2.312      4.942
REMARK  Name = 
REMARK  4 active torsions:
REMARK  status: ('A' for Active; 'I' for Inactive)
REMARK    1  A    between atoms: C_5  and  N_8
REMARK    2  A    between atoms: C_12  and  C_13
REMARK    3  A    between atoms: C_15  and  C_18
REMARK    4  A    between atoms: C_21  and  C_24
REMARK                            x       y       z     vdW  Elec       q    Type
REMARK                         _______ _______ _______ _____ _____    ______ ____
ROOT
ATOM     13  C   UNL     1      -2.537   0.747  24.914  0.00  0.00    +0.251 A 
ATOM     14  N   UNL     1      -1.991   0.733  24.296  0.00  0.00    -0.190 NA
ATOM     15  C   UNL     1      -1.251   0.551  24.612  0.00  0.00    +0.205 A 
ATOM     16  N   UNL     1      -1.340   0.451  25.426  0.00  0.00    -0.056 NA
ATOM     17  O   UNL     1      -2.134   0.572  25.612  0.00  0.00    -0.336 OA
ENDROOT
BRANCH  15  18
ATOM     18  C   UNL     1      -0.546   0.480  24.189  0.00  0.00    +0.058 A 
ATOM     19  C   UNL     1      -0.276  -0.265  23.961  0.00  0.00    +0.006 A 
ATOM     20  C   UNL     1       0.429  -0.336  23.537  0.00  0.00    +0.019 A 
ATOM     21  C   UNL     1       0.863   0.338  23.342  0.00  0.00    +0.084 A 
ATOM     22  N   UNL     1       0.592   1.083  23.571  0.00  0.00    -0.244 NA
ATOM     23  C   UNL     1      -0.113   1.154  23.994  0.00  0.00    +0.102 A 
BRANCH  21  24
ATOM     24  C   UNL     1       1.567   0.268  22.919  0.00  0.00    +0.056 A 
ATOM     25  C   UNL     1       1.581  -0.150  22.208  0.00  0.00    +0.104 A 
ATOM     26  N   UNL     1       2.286  -0.221  21.784  0.00  0.00    -0.222 NA
ATOM     27  C   UNL     1       2.976   0.126  22.072  0.00  0.00    +0.199 A 
ATOM     28  N   UNL     1       2.963   0.544  22.783  0.00  0.00    -0.222 NA
ATOM     29  C   UNL     1       2.258   0.614  23.207  0.00  0.00    +0.104 A 
ENDBRANCH  21  24
ENDBRANCH  15  18
BRANCH  13  12
ATOM      8  N   UNL     1      -3.944   0.346  24.781  0.00  0.00    -0.268 NA
ATOM      9  C   UNL     1      -4.663   0.747  24.725  0.00  0.00    +0.072 C 
ATOM     10  C   UNL     1      -4.505   1.557  24.756  0.00  0.00    +0.019 C 
ATOM     11  C   UNL     1      -3.690   1.655  24.830  0.00  0.00    +0.027 C 
ATOM     12  C   UNL     1      -3.343   0.906  24.846  0.00  0.00    +0.138 C 
BRANCH   8   5
ATOM      1  C   UNL     1      -3.546  -2.930  24.750  0.00  0.00    +0.090 C 
ATOM      2  N   UNL     1      -3.646  -2.111  24.758  0.00  0.00    -0.271 NA
ATOM      3  C   UNL     1      -3.650  -1.703  25.475  0.00  0.00    +0.074 C 
ATOM      4  C   UNL     1      -3.749  -0.884  25.483  0.00  0.00    +0.033 C 
ATOM      5  C   UNL     1      -3.845  -0.473  24.773  0.00  0.00    +0.061 C 
ATOM      6  C   UNL     1      -3.840  -0.881  24.057  0.00  0.00    +0.033 C 
ATOM      7  C   UNL     1      -3.741  -1.700  24.049  0.00  0.00    +0.074 C 
ENDBRANCH   8   5
ENDBRANCH  13  12
TORSDOF 4
ENDMDL
MODEL 5
REMARK VINA RESULT:      -9.5      2.075      4.909
REMARK  Name = 
REMARK  4 active torsions:
REMARK  status: ('A' for Active; 'I' for Inactive)
REMARK    1  A    between atoms: C_5  and  N_8
REMARK    2  A    between atoms: C_12  and  C_13
REMARK    3  A    between atoms: C_15  and  C_18
REMARK    4  A    between atoms: C_21  and  C_24
REMARK                            x       y       z     vdW  Elec       q    Type
REMARK                         _______ _______ _______ _____ _____    ______ ____
ROOT
ATOM     13  C   UNL     1      -3.505  -1.292  24.283  0.00  0.00    +0.251 A 
ATOM     14  N   UNL     1      -3.720  -0.651  24.757  0.00  0.00    -0.190 NA
ATOM     15  C   UNL     1      -3.955  -0.035  24.261  0.00  0.00    +0.205 A 
ATOM     16  N   UNL     1      -3.887  -0.295  23.482  0.00  0.00    -0.056 NA
ATOM     17  O   UNL     1      -3.608  -1.070  23.495  0.00  0.00    -0.336 OA
ENDROOT
BRANCH  15  18
ATOM     18  C   UNL     1      -4.215   0.710  24.503  0.00  0.00    +0.058 A 
ATOM     19  C   UNL     1      -4.833   0.775  25.045  0.00  0.00    +0.006 A 
ATOM     20  C   UNL     1      -5.093   1.520  25.287  0.00  0.00    +0.019 A 
ATOM     21  C   UNL     1      -4.734   2.199  24.987  0.00  0.00    +0.084 A 
ATOM     22  N   UNL     1      -4.116   2.135  24.445  0.00  0.00    -0.244 NA
ATOM     23  C   UNL     1      -3.856   1.389  24.203  0.00  0.00    +0.102 A 
BRANCH  21  24
ATOM     24  C   UNL     1      -4.994   2.945  25.229  0.00  0.00    +0.056 A 
ATOM     25  C   UNL     1      -5.751   3.035  25.543  0.00  0.00    +0.104 A 
ATOM     26  N   UNL     1      -6.011   3.780  25.785  0.00  0.00    -0.222 NA
ATOM     27  C   UNL     1      -5.513   4.434  25.713  0.00  0.00    +0.199 A 
ATOM     28  N   UNL     1      -4.755   4.343  25.399  0.00  0.00    -0.222 NA
ATOM     29  C   UNL     1      -4.496   3.598  25.157  0.00  0.00    +0.104 A 
ENDBRANCH  21  24
ENDBRANCH  15  18
BRANCH  13  12
ATOM      8  N   UNL     1      -2.451  -2.219  24.716  0.00  0.00    -0.268 NA
ATOM      9  C   UNL     1      -2.431  -3.005  24.967  0.00  0.00    +0.072 C 
ATOM     10  C   UNL     1      -3.204  -3.294  24.958  0.00  0.00    +0.019 C 
ATOM     11  C   UNL     1      -3.700  -2.687  24.700  0.00  0.00    +0.027 C 
ATOM     12  C   UNL     1      -3.234  -2.023  24.550  0.00  0.00    +0.138 C 
BRANCH   8   5
ATOM      1  C   UNL     1       0.153  -0.214  24.421  0.00  0.00    +0.090 C 
ATOM      2  N   UNL     1      -0.498  -0.715  24.495  0.00  0.00    -0.271 NA
ATOM      3  C   UNL     1      -0.902  -0.763  25.213  0.00  0.00    +0.074 C 
ATOM      4  C   UNL     1      -1.553  -1.264  25.286  0.00  0.00    +0.033 C 
ATOM      5  C   UNL     1      -1.800  -1.718  24.642  0.00  0.00    +0.061 C 
ATOM      6  C   UNL     1      -1.395  -1.669  23.925  0.00  0.00    +0.033 C 
ATOM      7  C   UNL     1      -0.744  -1.168  23.852  0.00  0.00    +0.074 C 
ENDBRANCH   8   5
ENDBRANCH  13  12
TORSDOF 4
ENDMDL
MODEL 6
REMARK VINA RESULT:      -8.5     17.577     19.458
REMARK  Name = 
REMARK  4 active torsions:
REMARK  status: ('A' for Active; 'I' for Inactive)
REMARK    1  A    between atoms: C_5  and  N_8
REMARK    2  A    between atoms: C_12  and  C_13
REMARK    3  A    between atoms: C_15  and  C_18
REMARK    4  A    between atoms: C_21  and  C_24
REMARK                            x       y       z     vdW  Elec       q    Type
REMARK                         _______ _______ _______ _____ _____    ______ ____
ROOT
ATOM     13  C   UNL     1      15.517   7.618  19.335  0.00  0.00    +0.251 A 
ATOM     14  N   UNL     1      14.787   7.475  18.978  0.00  0.00    -0.190 NA
ATOM     15  C   UNL     1      14.552   8.165  18.592  0.00  0.00    +0.205 A 
ATOM     16  N   UNL     1      15.137   8.735  18.712  0.00  0.00    -0.056 NA
ATOM     17  O   UNL     1      15.732   8.397  19.170  0.00  0.00    -0.336 OA
ENDROOT
BRANCH  15  18
ATOM     18  C   UNL     1      13.855   8.268  18.163  0.00  0.00    +0.058 A 
ATOM     19  C   UNL     1      13.390   8.938  18.287  0.00  0.00    +0.006 A 
ATOM     20  C   UNL     1      12.692   9.040  17.858  0.00  0.00    +0.019 A 
ATOM     21  C   UNL     1      12.461   8.473  17.305  0.00  0.00    +0.084 A 
ATOM     22  N   UNL     1      12.927   7.803  17.181  0.00  0.00    -0.244 NA
ATOM     23  C   UNL     1      13.624   7.701  17.610  0.00  0.00    +0.102 A 
BRANCH  21  24
ATOM     24  C   UNL     1      11.764   8.576  16.875  0.00  0.00    +0.056 A 
ATOM     25  C   UNL     1      11.783   8.956  16.144  0.00  0.00    +0.104 A 
ATOM     26  N   UNL     1      11.085   9.058  15.714  0.00  0.00    -0.222 NA
ATOM     27  C   UNL     1      10.370   8.781  16.017  0.00  0.00    +0.199 A 
ATOM     28  N   UNL     1      10.351   8.400  16.748  0.00  0.00    -0.222 NA
ATOM     29  C   UNL     1      11.048   8.298  17.178  0.00  0.00    +0.104 A 
ENDBRANCH  21  24
ENDBRANCH  15  18
BRANCH  13  12
ATOM      8  N   UNL     1      16.001   7.051  20.601  0.00  0.00    -0.268 NA
ATOM      9  C   UNL     1      16.497   6.426  20.810  0.00  0.00    +0.072 C 
ATOM     10  C   UNL     1      16.756   6.064  20.115  0.00  0.00    +0.019 C 
ATOM     11  C   UNL     1      16.421   6.467  19.478  0.00  0.00    +0.027 C 
ATOM     12  C   UNL     1      15.954   7.078  19.779  0.00  0.00    +0.138 C 
BRANCH   8   5
ATOM      1  C   UNL     1      14.474   9.094  22.696  0.00  0.00    +0.090 C 
ATOM      2  N   UNL     1      14.856   8.583  22.172  0.00  0.00    -0.271 NA
ATOM      3  C   UNL     1      15.596   8.784  21.867  0.00  0.00    +0.074 C 
ATOM      4  C   UNL     1      15.978   8.273  21.343  0.00  0.00    +0.033 C 
ATOM      5  C   UNL     1      15.619   7.562  21.125  0.00  0.00    +0.061 C 
ATOM      6  C   UNL     1      14.880   7.363  21.431  0.00  0.00    +0.033 C 
ATOM      7  C   UNL     1      14.498   7.873  21.954  0.00  0.00    +0.074 C 
ENDBRANCH   8   5
ENDBRANCH  13  12
TORSDOF 4
ENDMDL
MODEL 7
REMARK VINA RESULT:      -8.5     17.862     19.047
REMARK  Name = 
REMARK  4 active torsions:
REMARK  status: ('A' for Active; 'I' for Inactive)
REMARK    1  A    between atoms: C_5  and  N_8
REMARK    2  A    between atoms: C_12  and  C_13
REMARK    3  A    between atoms: C_15  and  C_18
REMARK    4  A    between atoms: C_21  and  C_24
REMARK                            x       y       z     vdW  Elec       q    Type
REMARK                         _______ _______ _______ _____ _____    ______ ____
ROOT
ATOM     13  C   UNL     1      13.910   7.916  20.648  0.00  0.00    +0.251 A 
ATOM     14  N   UNL     1      13.687   8.339  19.975  0.00  0.00    -0.190 NA
ATOM     15  C   UNL     1      13.180   7.863  19.531  0.00  0.00    +0.205 A 
ATOM     16  N   UNL     1      13.090   7.147  19.928  0.00  0.00    -0.056 NA
ATOM     17  O   UNL     1      13.540   7.180  20.618  0.00  0.00    -0.336 OA
ENDROOT
BRANCH  15  18
ATOM     18  C   UNL     1      12.826   8.068  18.814  0.00  0.00    +0.058 A 
ATOM     19  C   UNL     1      12.375   8.757  18.759  0.00  0.00    +0.006 A 
ATOM     20  C   UNL     1      12.021   8.962  18.042  0.00  0.00    +0.019 A 
ATOM     21  C   UNL     1      12.118   8.479  17.381  0.00  0.00    +0.084 A 
ATOM     22  N   UNL     1      12.569   7.790  17.436  0.00  0.00    -0.244 NA
ATOM     23  C   UNL     1      12.923   7.585  18.153  0.00  0.00    +0.102 A 
BRANCH  21  24
ATOM     24  C   UNL     1      11.764   8.684  16.664  0.00  0.00    +0.056 A 
ATOM     25  C   UNL     1      10.942   8.685  16.597  0.00  0.00    +0.104 A 
ATOM     26  N   UNL     1      10.588   8.890  15.880  0.00  0.00    -0.222 NA
ATOM     27  C   UNL     1      11.056   9.094  15.232  0.00  0.00    +0.199 A 
ATOM     28  N   UNL     1      11.878   9.092  15.300  0.00  0.00    -0.222 NA
ATOM     29  C   UNL     1      12.232   8.887  16.016  0.00  0.00    +0.104 A 
ENDBRANCH  21  24
ENDBRANCH  15  18
BRANCH  13  12
ATOM      8  N   UNL     1      15.211   7.997  21.324  0.00  0.00    -0.268 NA
ATOM      9  C   UNL     1      15.499   8.383  21.994  0.00  0.00    +0.072 C 
ATOM     10  C   UNL     1      14.876   8.809  22.329  0.00  0.00    +0.019 C 
ATOM     11  C   UNL     1      14.205   8.686  21.865  0.00  0.00    +0.027 C 
ATOM     12  C   UNL     1      14.413   8.184  21.244  0.00  0.00    +0.138 C 
BRANCH   8   5
ATOM      1  C   UNL     1      16.957   6.046  19.315  0.00  0.00    +0.090 C 
ATOM      2  N   UNL     1      16.520   6.534  19.817  0.00  0.00    -0.271 NA
ATOM      3  C   UNL     1      16.067   6.202  20.421  0.00  0.00    +0.074 C 
ATOM      4  C   UNL     1      15.630   6.690  20.924  0.00  0.00    +0.033 C 
ATOM      5  C   UNL     1      15.648   7.509  20.822  0.00  0.00    +0.061 C 
ATOM      6  C   UNL     1      16.102   7.839  20.217  0.00  0.00    +0.033 C 
ATOM      7  C   UNL     1      16.538   7.352  19.715  0.00  0.00    +0.074 C 
ENDBRANCH   8   5
ENDBRANCH  13  12
TORSDOF 4
ENDMDL
MODEL 8
REMARK VINA RESULT:      -8.2     15.713     18.960
REMARK  Name = 
REMARK  4 active torsions:
REMARK  status: ('A' for Active; 'I' for Inactive)
REMARK    1  A    between atoms: C_5  and  N_8
REMARK    2  A    between atoms: C_12  and  C_13
REMARK    3  A    between atoms: C_15  and  C_18
REMARK    4  A    between atoms: C_21  and  C_24
REMARK                            x       y       z     vdW  Elec       q    Type
REMARK                         _______ _______ _______ _____ _____    ______ ____
ROOT
ATOM     13  C   UNL     1      15.383   6.849  19.359  0.00  0.00    +0.251 A 
ATOM     14  N   UNL     1      14.792   6.645  19.898  0.00  0.00    -0.190 NA
ATOM     15  C   UNL     1      14.155   7.156  19.783  0.00  0.00    +0.205 A 
ATOM     16  N   UNL     1      14.352   7.675  19.173  0.00  0.00    -0.056 NA
ATOM     17  O   UNL     1      15.110   7.485  18.911  0.00  0.00    -0.336 OA
ENDROOT
BRANCH  15  18
ATOM     18  C   UNL     1      13.446   7.148  20.204  0.00  0.00    +0.058 A 
ATOM     19  C   UNL     1      13.443   7.329  21.009  0.00  0.00    +0.006 A 
ATOM     20  C   UNL     1      12.733   7.321  21.430  0.00  0.00    +0.019 A 
ATOM     21  C   UNL     1      12.027   7.134  21.047  0.00  0.00    +0.084 A 
ATOM     22  N   UNL     1      12.030   6.953  20.242  0.00  0.00    -0.244 NA
ATOM     23  C   UNL     1      12.740   6.961  19.820  0.00  0.00    +0.102 A 
BRANCH  21  24
ATOM     24  C   UNL     1      11.318   7.126  21.468  0.00  0.00    +0.056 A 
ATOM     25  C   UNL     1      10.937   6.411  21.621  0.00  0.00    +0.104 A 
ATOM     26  N   UNL     1      10.227   6.404  22.042  0.00  0.00    -0.222 NA
ATOM     27  C   UNL     1       9.899   7.111  22.310  0.00  0.00    +0.199 A 
ATOM     28  N   UNL     1      10.280   7.827  22.157  0.00  0.00    -0.222 NA
ATOM     29  C   UNL     1      10.990   7.834  21.736  0.00  0.00    +0.104 A 
ENDBRANCH  21  24
ENDBRANCH  15  18
BRANCH  13  12
ATOM      8  N   UNL     1      16.805   6.680  19.689  0.00  0.00    -0.268 NA
ATOM      9  C   UNL     1      17.405   6.171  19.443  0.00  0.00    +0.072 C 
ATOM     10  C   UNL     1      17.088   5.656  18.882  0.00  0.00    +0.019 C 
ATOM     11  C   UNL     1      16.292   5.847  18.782  0.00  0.00    +0.027 C 
ATOM     12  C   UNL     1      16.117   6.480  19.281  0.00  0.00    +0.138 C 
BRANCH   8   5
ATOM      1  C   UNL     1      17.104   9.094  21.920  0.00  0.00    +0.090 C 
ATOM      2  N   UNL     1      17.029   8.490  21.362  0.00  0.00    -0.271 NA
ATOM      3  C   UNL     1      17.054   8.668  20.557  0.00  0.00    +0.074 C 
ATOM      4  C   UNL     1      16.979   8.065  19.999  0.00  0.00    +0.033 C 
ATOM      5  C   UNL     1      16.879   7.283  20.247  0.00  0.00    +0.061 C 
ATOM      6  C   UNL     1      16.855   7.107  21.052  0.00  0.00    +0.033 C 
ATOM      7  C   UNL     1      16.930   7.710  21.610  0.00  0.00    +0.074 C 
ENDBRANCH   8   5
ENDBRANCH  13  12
TORSDOF 4
ENDMDL
MODEL 9
REMARK VINA RESULT:      -7.8     15.603     18.130
REMARK  Name = 
REMARK  4 active torsions:
REMARK  status: ('A' for Active; 'I' for Inactive)
REMARK    1  A    between atoms: C_5  and  N_8
REMARK    2  A    between atoms: C_12  and  C_13
REMARK    3  A    between atoms: C_15  and  C_18
REMARK    4  A    between atoms: C_21  and  C_24
REMARK                            x       y       z     vdW  Elec       q    Type
REMARK                         _______ _______ _______ _____ _____    ______ ____
ROOT
ATOM     13  C   UNL     1      11.624   7.414  20.499  0.00  0.00    +0.251 A 
ATOM     14  N   UNL     1      11.851   7.906  19.876  0.00  0.00    -0.190 NA
ATOM     15  C   UNL     1      12.162   7.432  19.277  0.00  0.00    +0.205 A 
ATOM     16  N   UNL     1      12.127   6.648  19.529  0.00  0.00    -0.056 NA
ATOM     17  O   UNL     1      11.795   6.636  20.283  0.00  0.00    -0.336 OA
ENDROOT
BRANCH  15  18
ATOM     18  C   UNL     1      12.456   7.697  18.553  0.00  0.00    +0.058 A 
ATOM     19  C   UNL     1      13.164   7.392  18.260  0.00  0.00    +0.006 A 
ATOM     20  C   UNL     1      13.459   7.656  17.535  0.00  0.00    +0.019 A 
ATOM     21  C   UNL     1      13.045   8.226  17.105  0.00  0.00    +0.084 A 
ATOM     22  N   UNL     1      12.337   8.531  17.398  0.00  0.00    -0.244 NA
ATOM     23  C   UNL     1      12.042   8.266  18.122  0.00  0.00    +0.102 A 
BRANCH  21  24
ATOM     24  C   UNL     1      13.339   8.490  16.381  0.00  0.00    +0.056 A 
ATOM     25  C   UNL     1      12.830   8.829  15.828  0.00  0.00    +0.104 A 
ATOM     26  N   UNL     1      13.124   9.094  15.104  0.00  0.00    -0.222 NA
ATOM     27  C   UNL     1      13.928   9.019  14.933  0.00  0.00    +0.199 A 
ATOM     28  N   UNL     1      14.437   8.681  15.486  0.00  0.00    -0.222 NA
ATOM     29  C   UNL     1      14.143   8.416  16.210  0.00  0.00    +0.104 A 
ENDBRANCH  21  24
ENDBRANCH  15  18
BRANCH  13  12
ATOM      8  N   UNL     1      11.687   7.987  21.850  0.00  0.00    -0.268 NA
ATOM      9  C   UNL     1      11.137   8.147  22.443  0.00  0.00    +0.072 C 
ATOM     10  C   UNL     1      10.393   7.916  22.169  0.00  0.00    +0.019 C 
ATOM     11  C   UNL     1      10.485   7.613  21.407  0.00  0.00    +0.027 C 
ATOM     12  C   UNL     1      11.285   7.657  21.210  0.00  0.00    +0.138 C 
BRANCH   8   5
ATOM      1  C   UNL     1      14.932   8.564  22.012  0.00  0.00    +0.090 C 
ATOM      2  N   UNL     1      14.121   8.420  21.971  0.00  0.00    -0.271 NA
ATOM      3  C   UNL     1      13.834   7.652  22.067  0.00  0.00    +0.074 C 
ATOM      4  C   UNL     1      13.022   7.508  22.026  0.00  0.00    +0.033 C 
ATOM      5  C   UNL     1      12.498   8.131  21.890  0.00  0.00    +0.061 C 
ATOM      6  C   UNL     1      12.786   8.898  21.795  0.00  0.00    +0.033 C 
ATOM      7  C   UNL     1      13.598   9.042  21.835  0.00  0.00    +0.074 C 
ENDBRANCH   8   5
ENDBRANCH  13  12
TORSDOF 4
ENDMDL
MODEL 10
REMARK VINA RESULT:      -7.2     15.777     18.355
REMARK  Name = 
REMARK  4 active torsions:
REMARK  status: ('A' for Active; 'I' for Inactive)
REMARK    1  A    between atoms: C_5  and  N_8
REMARK    2  A    between atoms: C_12  and  C_13
REMARK    3  A    between atoms: C_15  and  C_18
REMARK    4  A    between atoms: C_21  and  C_24
REMARK                            x       y       z     vdW  Elec       q    Type
REMARK                         _______ _______ _______ _____ _____    ______ ____
ROOT
ATOM     13  C   UNL     1      14.305   7.558  20.284  0.00  0.00    +0.251 A 
ATOM     14  N   UNL     1      13.798   8.007  19.812  0.00  0.00    -0.190 NA
ATOM     15  C   UNL     1      13.672   7.593  19.109  0.00  0.00    +0.205 A 
ATOM     16  N   UNL     1      14.100   6.890  19.148  0.00  0.00    -0.056 NA
ATOM     17  O   UNL     1      14.491   6.868  19.873  0.00  0.00    -0.336 OA
ENDROOT
BRANCH  15  18
ATOM     18  C   UNL     1      13.201   7.840  18.479  0.00  0.00    +0.058 A 
ATOM     19  C   UNL     1      13.213   8.630  18.239  0.00  0.00    +0.006 A 
ATOM     20  C   UNL     1      12.741   8.877  17.609  0.00  0.00    +0.019 A 
ATOM     21  C   UNL     1      12.258   8.335  17.218  0.00  0.00    +0.084 A 
ATOM     22  N   UNL     1      12.245   7.545  17.458  0.00  0.00    -0.244 NA
ATOM     23  C   UNL     1      12.717   7.298  18.088  0.00  0.00    +0.102 A 
BRANCH  21  24
ATOM     24  C   UNL     1      11.786   8.582  16.588  0.00  0.00    +0.056 A 
ATOM     25  C   UNL     1      10.964   8.567  16.658  0.00  0.00    +0.104 A 
ATOM     26  N   UNL     1      10.492   8.815  16.027  0.00  0.00    -0.222 NA
ATOM     27  C   UNL     1      10.843   9.076  15.328  0.00  0.00    +0.199 A 
ATOM     28  N   UNL     1      11.664   9.090  15.258  0.00  0.00    -0.222 NA
ATOM     29  C   UNL     1      12.136   8.843  15.888  0.00  0.00    +0.104 A 
ENDBRANCH  21  24
ENDBRANCH  15  18
BRANCH  13  12
ATOM      8  N   UNL     1      14.118   7.815  21.719  0.00  0.00    -0.268 NA
ATOM      9  C   UNL     1      14.612   8.038  22.341  0.00  0.00    +0.072 C 
ATOM     10  C   UNL     1      15.376   8.125  22.042  0.00  0.00    +0.019 C 
ATOM     11  C   UNL     1      15.354   7.955  21.235  0.00  0.00    +0.027 C 
ATOM     12  C   UNL     1      14.576   7.764  21.035  0.00  0.00    +0.138 C 
BRANCH   8   5
ATOM      1  C   UNL     1      10.877   7.232  21.929  0.00  0.00    +0.090 C 
ATOM      2  N   UNL     1      11.688   7.378  21.877  0.00  0.00    -0.271 NA
ATOM      3  C   UNL     1      12.218   6.747  21.840  0.00  0.00    +0.074 C 
ATOM      4  C   UNL     1      13.029   6.893  21.787  0.00  0.00    +0.033 C 
ATOM      5  C   UNL     1      13.308   7.669  21.771  0.00  0.00    +0.061 C 
ATOM      6  C   UNL     1      12.777   8.299  21.809  0.00  0.00    +0.033 C 
ATOM      7  C   UNL     1      11.966   8.153  21.861  0.00  0.00    +0.074 C 
ENDBRANCH   8   5
ENDBRANCH  13  12
TORSDOF 4
ENDMDL
