MODEL 1
REMARK VINA RESULT:      -8.7      0.000      0.000
REMARK  Name = 
REMARK  5 active torsions:
REMARK  status: ('A' for Active; 'I' for Inactive)
REMARK    1  A    between atoms: N_2  and  C_4
REMARK    2  A    between atoms: C_7  and  C_10
REMARK    3  A    between atoms: N_12  and  C_13
REMARK    4  A    between atoms: C_17  and  N_21
REMARK    5  A    between atoms: C_24  and  C_28
REMARK                            x       y       z     vdW  Elec       q    Type
REMARK                         _______ _______ _______ _____ _____    ______ ____
ROOT
ATOM     13  C   UNL     1      -1.673   2.073  24.343  0.00  0.00    +0.155 C 
ATOM     14  C   UNL     1      -1.272   2.792  24.294  0.00  0.00    +0.166 C 
ATOM     15  O   UNL     1      -0.467   2.628  24.217  0.00  0.00    -0.350 OA
ATOM     16  C   UNL     1      -0.371   1.810  24.218  0.00  0.00    +0.166 C 
ATOM     17  C   UNL     1       0.184   1.202  24.171  0.00  0.00    +0.154 C 
ATOM     18  C   UNL     1      -0.217   0.483  24.219  0.00  0.00    +0.166 C 
ATOM     19  O   UNL     1      -1.022   0.647  24.296  0.00  0.00    -0.350 OA
ATOM     20  C   UNL     1      -1.117   1.467  24.296  0.00  0.00    +0.166 C 
ENDROOT
BRANCH  17  21
ATOM     21  N   UNL     1       1.000   1.296  24.089  0.00  0.00    -0.200 NA
ATOM     22  C   UNL     1       1.420   0.822  23.560  0.00  0.00    +0.236 A 
ATOM     23  N   UNL     1       2.235   0.917  23.479  0.00  0.00    -0.217 NA
ATOM     24  C   UNL     1       2.655   0.443  22.950  0.00  0.00    +0.063 A 
ATOM     25  C   UNL     1       2.259  -0.126  22.502  0.00  0.00    +0.035 A 
ATOM     26  C   UNL     1       1.443  -0.221  22.584  0.00  0.00    +0.103 A 
ATOM     27  N   UNL     1       1.024   0.254  23.113  0.00  0.00    -0.211 NA
BRANCH  24  28
ATOM     28  C   UNL     1       3.470   0.537  22.868  0.00  0.00    +0.040 C 
ATOM     29  C   UNL     1       3.849   1.118  22.420  0.00  0.00    +0.006 C 
ATOM     30  C   UNL     1       4.662   1.007  22.495  0.00  0.00    +0.000 C 
ATOM     31  C   UNL     1       4.787   0.359  22.989  0.00  0.00    +0.000 C 
ATOM     32  C   UNL     1       4.050   0.068  23.219  0.00  0.00    +0.006 C 
ENDBRANCH  24  28
ENDBRANCH  17  21
BRANCH  13  12
ATOM     10  C   UNL     1      -2.905   2.432  24.975  0.00  0.00    +0.265 C 
ATOM     11  O   UNL     1      -2.503   2.980  25.444  0.00  0.00    -0.268 OA
ATOM     12  N   UNL     1      -2.489   1.979  24.424  0.00  0.00    -0.198 NA
BRANCH  10   7
ATOM      4  C   UNL     1      -5.350   2.148  25.220  0.00  0.00    +0.048 A 
ATOM      5  C   UNL     1      -5.015   2.900  25.276  0.00  0.00    +0.015 A 
ATOM      6  C   UNL     1      -4.200   2.994  25.194  0.00  0.00    +0.006 A 
ATOM      7  C   UNL     1      -3.720   2.337  25.057  0.00  0.00    +0.055 A 
ATOM      8  C   UNL     1      -4.055   1.586  25.001  0.00  0.00    +0.006 A 
ATOM      9  C   UNL     1      -4.871   1.491  25.083  0.00  0.00    +0.015 A 
BRANCH   4   2
ATOM      1  C   UNL     1      -6.631   1.891  24.640  0.00  0.00    +0.112 C 
ATOM      2  N   UNL     1      -6.166   2.053  25.302  0.00  0.00    -0.304 N 
ATOM      3  C   UNL     1      -6.517   2.121  26.045  0.00  0.00    +0.112 C 
ENDBRANCH   4   2
ENDBRANCH  10   7
ENDBRANCH  13  12
TORSDOF 5
ENDMDL
MODEL 2
REMARK VINA RESULT:      -8.3      1.085      7.258
REMARK  Name = 
REMARK  5 active torsions:
REMARK  status: ('A' for Active; 'I' for Inactive)
REMARK    1  A    between atoms: N_2  and  C_4
REMARK    2  A    between atoms: C_7  and  C_10
REMARK    3  A    between atoms: N_12  and  C_13
REMARK    4  A    between atoms: C_17  and  N_21
REMARK    5  A    between atoms: C_24  and  C_28
REMARK                            x       y       z     vdW  Elec       q    Type
REMARK                         _______ _______ _______ _____ _____    ______ ____
ROOT
ATOM     13  C   UNL     1       0.408   0.627  23.720  0.00  0.00    +0.155 C 
ATOM     14  C   UNL     1      -0.090   0.328  23.134  0.00  0.00    +0.166 C 
ATOM     15  O   UNL     1      -0.869   0.434  23.384  0.00  0.00    -0.350 OA
ATOM     16  C   UNL     1      -0.853   0.798  24.123  0.00  0.00    +0.166 C 
ATOM     17  C   UNL     1      -1.323   1.090  24.735  0.00  0.00    +0.154 C 
ATOM     18  C   UNL     1      -0.825   1.388  25.321  0.00  0.00    +0.166 C 
ATOM     19  O   UNL     1      -0.046   1.282  25.071  0.00  0.00    -0.350 OA
ATOM     20  C   UNL     1      -0.063   0.917  24.331  0.00  0.00    +0.166 C 
ENDROOT
BRANCH  17  21
ATOM     21  N   UNL     1      -2.148   1.083  24.757  0.00  0.00    -0.200 NA
ATOM     22  C   UNL     1      -2.562   1.777  24.923  0.00  0.00    +0.236 A 
ATOM     23  N   UNL     1      -3.386   1.770  24.945  0.00  0.00    -0.217 NA
ATOM     24  C   UNL     1      -3.801   2.464  25.111  0.00  0.00    +0.063 A 
ATOM     25  C   UNL     1      -3.390   3.165  25.255  0.00  0.00    +0.035 A 
ATOM     26  C   UNL     1      -2.565   3.172  25.233  0.00  0.00    +0.103 A 
ATOM     27  N   UNL     1      -2.151   2.477  25.067  0.00  0.00    -0.211 NA
BRANCH  24  28
ATOM     28  C   UNL     1      -4.625   2.458  25.133  0.00  0.00    +0.040 C 
ATOM     29  C   UNL     1      -5.101   2.929  25.615  0.00  0.00    +0.006 C 
ATOM     30  C   UNL     1      -5.888   2.742  25.457  0.00  0.00    +0.000 C 
ATOM     31  C   UNL     1      -5.899   2.155  24.878  0.00  0.00    +0.000 C 
ATOM     32  C   UNL     1      -5.118   1.980  24.678  0.00  0.00    +0.006 C 
ENDBRANCH  24  28
ENDBRANCH  17  21
BRANCH  13  12
ATOM     10  C   UNL     1       1.633   0.258  23.081  0.00  0.00    +0.265 C 
ATOM     11  O   UNL     1       1.206  -0.123  22.486  0.00  0.00    -0.268 OA
ATOM     12  N   UNL     1       1.233   0.633  23.698  0.00  0.00    -0.198 NA
BRANCH  10   7
ATOM      4  C   UNL     1       4.106   0.278  23.014  0.00  0.00    +0.048 A 
ATOM      5  C   UNL     1       3.683   0.954  22.804  0.00  0.00    +0.015 A 
ATOM      6  C   UNL     1       2.859   0.947  22.826  0.00  0.00    +0.006 A 
ATOM      7  C   UNL     1       2.457   0.265  23.059  0.00  0.00    +0.055 A 
ATOM      8  C   UNL     1       2.880  -0.411  23.269  0.00  0.00    +0.006 A 
ATOM      9  C   UNL     1       3.705  -0.405  23.247  0.00  0.00    +0.015 A 
BRANCH   4   2
ATOM      1  C   UNL     1       5.327   0.062  22.303  0.00  0.00    +0.112 C 
ATOM      2  N   UNL     1       4.931   0.284  22.992  0.00  0.00    -0.304 N 
ATOM      3  C   UNL     1       5.360   0.512  23.659  0.00  0.00    +0.112 C 
ENDBRANCH   4   2
ENDBRANCH  10   7
ENDBRANCH  13  12
TORSDOF 5
ENDMDL
MODEL 3
REMARK VINA RESULT:      -7.3     15.139     16.144
REMARK  Name = 
REMARK  5 active torsions:
REMARK  status: ('A' for Active; 'I' for Inactive)
REMARK    1  A    between atoms: N_2  and  C_4
REMARK    2  A    between atoms: C_7  and  C_10
REMARK    3  A    between atoms: N_12  and  C_13
REMARK    4  A    between atoms: C_17  and  N_21
REMARK    5  A    between atoms: C_24  and  C_28
REMARK                            x       y       z     vdW  Elec       q    Type
REMARK                         _______ _______ _______ _____ _____    ______ ____
ROOT
ATOM     13  C   UNL     1      -6.790 -10.113  15.503  0.00  0.00    +0.155 C 
ATOM     14  C   UNL     1      -6.024  -9.880  15.700  0.00  0.00    +0.166 C 
ATOM     15  O   UNL     1      -5.570  -9.887  15.012  0.00  0.00    -0.350 OA
ATOM     16  C   UNL     1      -6.055 -10.124  14.389  0.00  0.00    +0.166 C 
ATOM     17  C   UNL     1      -6.076 -10.275  13.578  0.00  0.00    +0.154 C 
ATOM     18  C   UNL     1      -6.842 -10.509  13.380  0.00  0.00    +0.166 C 
ATOM     19  O   UNL     1      -7.295 -10.502  14.069  0.00  0.00    -0.350 OA
ATOM     20  C   UNL     1      -6.809 -10.264  14.693  0.00  0.00    +0.166 C 
ENDROOT
BRANCH  17  21
ATOM     21  N   UNL     1      -5.440 -10.205  13.056  0.00  0.00    -0.200 NA
ATOM     22  C   UNL     1      -5.520  -9.760  12.366  0.00  0.00    +0.236 A 
ATOM     23  N   UNL     1      -4.886  -9.690  11.844  0.00  0.00    -0.217 NA
ATOM     24  C   UNL     1      -4.966  -9.245  11.154  0.00  0.00    +0.063 A 
ATOM     25  C   UNL     1      -5.681  -8.870  10.986  0.00  0.00    +0.035 A 
ATOM     26  C   UNL     1      -6.317  -8.940  11.508  0.00  0.00    +0.103 A 
ATOM     27  N   UNL     1      -6.236  -9.385  12.197  0.00  0.00    -0.211 NA
BRANCH  24  28
ATOM     28  C   UNL     1      -4.332  -9.174  10.632  0.00  0.00    +0.040 C 
ATOM     29  C   UNL     1      -4.377  -8.942   9.841  0.00  0.00    +0.006 C 
ATOM     30  C   UNL     1      -3.614  -8.948   9.529  0.00  0.00    +0.000 C 
ATOM     31  C   UNL     1      -3.096  -9.183  10.127  0.00  0.00    +0.000 C 
ATOM     32  C   UNL     1      -3.540  -9.323  10.808  0.00  0.00    +0.006 C 
ENDBRANCH  24  28
ENDBRANCH  17  21
BRANCH  13  12
ATOM     10  C   UNL     1      -7.446  -9.729  16.713  0.00  0.00    +0.265 C 
ATOM     11  O   UNL     1      -6.831  -9.203  16.879  0.00  0.00    -0.268 OA
ATOM     12  N   UNL     1      -7.425 -10.184  16.025  0.00  0.00    -0.198 NA
BRANCH  10   7
ATOM      4  C   UNL     1      -9.351  -9.939  18.279  0.00  0.00    +0.048 A 
ATOM      5  C   UNL     1      -8.745 -10.498  18.289  0.00  0.00    +0.015 A 
ATOM      6  C   UNL     1      -8.110 -10.428  17.767  0.00  0.00    +0.006 A 
ATOM      7  C   UNL     1      -8.081  -9.799  17.235  0.00  0.00    +0.055 A 
ATOM      8  C   UNL     1      -8.687  -9.239  17.224  0.00  0.00    +0.006 A 
ATOM      9  C   UNL     1      -9.322  -9.309  17.746  0.00  0.00    +0.015 A 
BRANCH   4   2
ATOM      1  C   UNL     1      -9.888 -10.401  19.520  0.00  0.00    +0.112 C 
ATOM      2  N   UNL     1      -9.986 -10.008  18.801  0.00  0.00    -0.304 N 
ATOM      3  C   UNL     1     -10.720  -9.686  18.604  0.00  0.00    +0.112 C 
ENDBRANCH   4   2
ENDBRANCH  10   7
ENDBRANCH  13  12
TORSDOF 5
ENDMDL
MODEL 4
REMARK VINA RESULT:      -5.7     16.988     18.018
REMARK  Name = 
REMARK  5 active torsions:
REMARK  status: ('A' for Active; 'I' for Inactive)
REMARK    1  A    between atoms: N_2  and  C_4
REMARK    2  A    between atoms: C_7  and  C_10
REMARK    3  A    between atoms: N_12  and  C_13
REMARK    4  A    between atoms: C_17  and  N_21
REMARK    5  A    between atoms: C_24  and  C_28
REMARK                            x       y       z     vdW  Elec       q    Type
REMARK                         _______ _______ _______ _____ _____    ______ ____
ROOT
ATOM     13  C   UNL     1      12.209  -6.083  32.352  0.00  0.00    +0.155 C 
ATOM     14  C   UNL     1      11.823  -5.419  32.052  0.00  0.00    +0.166 C 
ATOM     15  O   UNL     1      12.367  -4.800  32.023  0.00  0.00    -0.350 OA
ATOM     16  C   UNL     1      13.089  -5.081  32.305  0.00  0.00    +0.166 C 
ATOM     17  C   UNL     1      13.872  -4.872  32.461  0.00  0.00    +0.154 C 
ATOM     18  C   UNL     1      14.258  -5.536  32.762  0.00  0.00    +0.166 C 
ATOM     19  O   UNL     1      13.714  -6.155  32.791  0.00  0.00    -0.350 OA
ATOM     20  C   UNL     1      12.991  -5.874  32.509  0.00  0.00    +0.166 C 
ENDROOT
BRANCH  17  21
ATOM     21  N   UNL     1      14.209  -4.129  32.339  0.00  0.00    -0.200 NA
ATOM     22  C   UNL     1      14.862  -4.049  31.841  0.00  0.00    +0.236 A 
ATOM     23  N   UNL     1      15.199  -3.307  31.718  0.00  0.00    -0.217 NA
ATOM     24  C   UNL     1      15.852  -3.227  31.220  0.00  0.00    +0.063 A 
ATOM     25  C   UNL     1      16.168  -3.891  30.845  0.00  0.00    +0.035 A 
ATOM     26  C   UNL     1      15.831  -4.634  30.968  0.00  0.00    +0.103 A 
ATOM     27  N   UNL     1      15.178  -4.713  31.466  0.00  0.00    -0.211 NA
BRANCH  24  28
ATOM     28  C   UNL     1      16.190  -2.485  31.097  0.00  0.00    +0.040 C 
ATOM     29  C   UNL     1      16.420  -1.953  31.685  0.00  0.00    +0.006 C 
ATOM     30  C   UNL     1      16.728  -1.284  31.316  0.00  0.00    +0.000 C 
ATOM     31  C   UNL     1      16.689  -1.401  30.501  0.00  0.00    +0.000 C 
ATOM     32  C   UNL     1      16.356  -2.143  30.366  0.00  0.00    +0.006 C 
ENDBRANCH  24  28
ENDBRANCH  17  21
BRANCH  13  12
ATOM     10  C   UNL     1      11.471  -7.204  31.861  0.00  0.00    +0.265 C 
ATOM     11  O   UNL     1      11.408  -6.839  31.123  0.00  0.00    -0.268 OA
ATOM     12  N   UNL     1      11.872  -6.826  32.475  0.00  0.00    -0.198 NA
BRANCH  10   7
ATOM      4  C   UNL     1      10.459  -9.432  32.228  0.00  0.00    +0.048 A 
ATOM      5  C   UNL     1      11.216  -9.371  31.906  0.00  0.00    +0.015 A 
ATOM      6  C   UNL     1      11.553  -8.629  31.784  0.00  0.00    +0.006 A 
ATOM      7  C   UNL     1      11.134  -7.947  31.983  0.00  0.00    +0.055 A 
ATOM      8  C   UNL     1      10.377  -8.008  32.305  0.00  0.00    +0.006 A 
ATOM      9  C   UNL     1      10.039  -8.751  32.428  0.00  0.00    +0.015 A 
BRANCH   4   2
ATOM      1  C   UNL     1       9.432 -10.386  31.950  0.00  0.00    +0.112 C 
ATOM      2  N   UNL     1      10.122 -10.175  32.351  0.00  0.00    -0.304 N 
ATOM      3  C   UNL     1      10.474 -10.708  32.873  0.00  0.00    +0.112 C 
ENDBRANCH   4   2
ENDBRANCH  10   7
ENDBRANCH  13  12
TORSDOF 5
ENDMDL
MODEL 5
REMARK VINA RESULT:      -5.2     19.045     19.829
REMARK  Name = 
REMARK  5 active torsions:
REMARK  status: ('A' for Active; 'I' for Inactive)
REMARK    1  A    between atoms: N_2  and  C_4
REMARK    2  A    between atoms: C_7  and  C_10
REMARK    3  A    between atoms: N_12  and  C_13
REMARK    4  A    between atoms: C_17  and  N_21
REMARK    5  A    between atoms: C_24  and  C_28
REMARK                            x       y       z     vdW  Elec       q    Type
REMARK                         _______ _______ _______ _____ _____    ______ ____
ROOT
ATOM     13  C   UNL     1      16.263  -6.171  29.023  0.00  0.00    +0.155 C 
ATOM     14  C   UNL     1      15.851  -6.277  29.729  0.00  0.00    +0.166 C 
ATOM     15  O   UNL     1      16.031  -5.644  30.226  0.00  0.00    -0.350 OA
ATOM     16  C   UNL     1      16.554  -5.147  29.828  0.00  0.00    +0.166 C 
ATOM     17  C   UNL     1      16.990  -4.449  29.888  0.00  0.00    +0.154 C 
ATOM     18  C   UNL     1      17.403  -4.343  29.182  0.00  0.00    +0.166 C 
ATOM     19  O   UNL     1      17.222  -4.976  28.685  0.00  0.00    -0.350 OA
ATOM     20  C   UNL     1      16.698  -5.473  29.084  0.00  0.00    +0.166 C 
ENDROOT
BRANCH  17  21
ATOM     21  N   UNL     1      17.009  -3.944  30.541  0.00  0.00    -0.200 NA
ATOM     22  C   UNL     1      16.896  -3.133  30.439  0.00  0.00    +0.236 A 
ATOM     23  N   UNL     1      16.915  -2.629  31.092  0.00  0.00    -0.217 NA
ATOM     24  C   UNL     1      16.803  -1.818  30.990  0.00  0.00    +0.063 A 
ATOM     25  C   UNL     1      16.671  -1.511  30.236  0.00  0.00    +0.035 A 
ATOM     26  C   UNL     1      16.652  -2.016  29.583  0.00  0.00    +0.103 A 
ATOM     27  N   UNL     1      16.764  -2.827  29.685  0.00  0.00    -0.211 NA
BRANCH  24  28
ATOM     28  C   UNL     1      16.822  -1.314  31.642  0.00  0.00    +0.040 C 
ATOM     29  C   UNL     1      16.523  -1.481  32.393  0.00  0.00    +0.006 C 
ATOM     30  C   UNL     1      16.659  -0.824  32.873  0.00  0.00    +0.000 C 
ATOM     31  C   UNL     1      17.042  -0.252  32.420  0.00  0.00    +0.000 C 
ATOM     32  C   UNL     1      17.142  -0.555  31.659  0.00  0.00    +0.006 C 
ENDBRANCH  24  28
ENDBRANCH  17  21
BRANCH  13  12
ATOM     10  C   UNL     1      15.594  -7.168  28.248  0.00  0.00    +0.265 C 
ATOM     11  O   UNL     1      14.962  -7.155  28.779  0.00  0.00    -0.268 OA
ATOM     12  N   UNL     1      16.244  -6.675  28.370  0.00  0.00    -0.198 NA
BRANCH  10   7
ATOM      4  C   UNL     1      15.535  -8.680  26.290  0.00  0.00    +0.048 A 
ATOM      5  C   UNL     1      15.534  -8.993  27.054  0.00  0.00    +0.015 A 
ATOM      6  C   UNL     1      15.554  -8.489  27.706  0.00  0.00    +0.006 A 
ATOM      7  C   UNL     1      15.574  -7.672  27.596  0.00  0.00    +0.055 A 
ATOM      8  C   UNL     1      15.575  -7.359  26.832  0.00  0.00    +0.006 A 
ATOM      9  C   UNL     1      15.556  -7.863  26.179  0.00  0.00    +0.015 A 
BRANCH   4   2
ATOM      1  C   UNL     1      16.215  -9.514  25.350  0.00  0.00    +0.112 C 
ATOM      2  N   UNL     1      15.516  -9.184  25.637  0.00  0.00    -0.304 N 
ATOM      3  C   UNL     1      14.797  -9.359  25.272  0.00  0.00    +0.112 C 
ENDBRANCH   4   2
ENDBRANCH  10   7
ENDBRANCH  13  12
TORSDOF 5
ENDMDL
