MODEL 1
REMARK VINA RESULT:     -13.1      0.000      0.000
REMARK  Name = 
REMARK  2 active torsions:
REMARK  status: ('A' for Active; 'I' for Inactive)
REMARK    1  A    between atoms: C_5  and  C_8
REMARK    2  A    between atoms: N_16  and  C_17
REMARK                            x       y       z     vdW  Elec       q    Type
REMARK                         _______ _______ _______ _____ _____    ______ ____
ROOT
ATOM      8  C   UNL     1      -4.012   0.192  24.728  0.00  0.00    +0.249 C 
ATOM      9  O   UNL     1      -4.777   0.499  24.702  0.00  0.00    -0.270 OA
ATOM     10  N   UNL     1      -3.364   0.702  24.781  0.00  0.00    -0.273 N 
ATOM     11  C   UNL     1      -2.599   0.395  24.807  0.00  0.00    +0.115 C 
ATOM     12  C   UNL     1      -1.952   0.903  24.860  0.00  0.00    +0.116 C 
ATOM     13  N   UNL     1      -2.070   1.720  24.887  0.00  0.00    -0.261 N 
ATOM     14  C   UNL     1      -2.835   2.027  24.861  0.00  0.00    +0.116 C 
ATOM     15  C   UNL     1      -2.782   2.849  24.897  0.00  0.00    +0.116 C 
ATOM     16  N   UNL     1      -1.983   3.050  24.945  0.00  0.00    -0.264 N 
ATOM     23  C   UNL     1      -1.544   2.352  24.939  0.00  0.00    +0.307 C 
ATOM     24  O   UNL     1      -0.721   2.297  24.978  0.00  0.00    -0.252 OA
ATOM     25  C   UNL     1      -3.483   1.517  24.808  0.00  0.00    +0.115 C 
ENDROOT
BRANCH   8   5
ATOM      1  C   UNL     1      -3.536  -3.072  24.618  0.00  0.00    +0.031 C 
ATOM      2  C   UNL     1      -3.655  -2.256  24.646  0.00  0.00    -0.022 A 
ATOM      3  C   UNL     1      -3.591  -1.854  25.363  0.00  0.00    -0.004 A 
ATOM      4  C   UNL     1      -3.710  -1.037  25.391  0.00  0.00    +0.004 A 
ATOM      5  C   UNL     1      -3.893  -0.624  24.701  0.00  0.00    +0.054 A 
ATOM      6  C   UNL     1      -3.957  -1.026  23.983  0.00  0.00    +0.004 A 
ATOM      7  C   UNL     1      -3.838  -1.842  23.956  0.00  0.00    -0.004 A 
ENDBRANCH   8   5
BRANCH  16  17
ATOM     17  C   UNL     1      -1.678   3.815  24.991  0.00  0.00    +0.082 C 
ATOM     18  C   UNL     1      -2.098   4.404  25.389  0.00  0.00    +0.052 C 
ATOM     19  C   UNL     1      -1.793   5.169  25.435  0.00  0.00    +0.144 C 
ATOM     20  O   UNL     1      -1.067   5.345  25.083  0.00  0.00    -0.354 OA
ATOM     21  C   UNL     1      -0.648   4.758  24.685  0.00  0.00    +0.144 C 
ATOM     22  C   UNL     1      -0.953   3.993  24.639  0.00  0.00    +0.052 C 
ENDBRANCH  16  17
TORSDOF 2
ENDMDL
MODEL 2
REMARK VINA RESULT:     -12.9      1.377      5.187
REMARK  Name = 
REMARK  2 active torsions:
REMARK  status: ('A' for Active; 'I' for Inactive)
REMARK    1  A    between atoms: C_5  and  C_8
REMARK    2  A    between atoms: N_16  and  C_17
REMARK                            x       y       z     vdW  Elec       q    Type
REMARK                         _______ _______ _______ _____ _____    ______ ____
ROOT
ATOM      8  C   UNL     1      -3.512   2.858  25.186  0.00  0.00    +0.249 C 
ATOM      9  O   UNL     1      -4.302   3.007  25.371  0.00  0.00    -0.270 OA
ATOM     10  N   UNL     1      -3.267   2.089  25.012  0.00  0.00    -0.273 N 
ATOM     11  C   UNL     1      -2.477   1.939  24.827  0.00  0.00    +0.115 C 
ATOM     12  C   UNL     1      -2.232   1.171  24.654  0.00  0.00    +0.116 C 
ATOM     13  N   UNL     1      -2.777   0.552  24.665  0.00  0.00    -0.261 N 
ATOM     14  C   UNL     1      -3.567   0.701  24.850  0.00  0.00    +0.116 C 
ATOM     15  C   UNL     1      -3.976  -0.014  24.819  0.00  0.00    +0.116 C 
ATOM     16  N   UNL     1      -3.439  -0.606  24.614  0.00  0.00    -0.264 N 
ATOM     23  C   UNL     1      -2.699  -0.256  24.519  0.00  0.00    +0.307 C 
ATOM     24  O   UNL     1      -2.001  -0.645  24.314  0.00  0.00    -0.252 OA
ATOM     25  C   UNL     1      -3.812   1.470  25.024  0.00  0.00    +0.115 C 
ENDROOT
BRANCH   8   5
ATOM      1  C   UNL     1      -1.330   5.333  25.137  0.00  0.00    +0.031 C 
ATOM      2  C   UNL     1      -1.875   4.714  25.150  0.00  0.00    -0.022 A 
ATOM      3  C   UNL     1      -2.016   4.302  25.850  0.00  0.00    -0.004 A 
ATOM      4  C   UNL     1      -2.561   3.683  25.863  0.00  0.00    +0.004 A 
ATOM      5  C   UNL     1      -2.966   3.476  25.174  0.00  0.00    +0.054 A 
ATOM      6  C   UNL     1      -2.826   3.889  24.473  0.00  0.00    +0.004 A 
ATOM      7  C   UNL     1      -2.281   4.508  24.461  0.00  0.00    -0.004 A 
ENDBRANCH   8   5
BRANCH  16  17
ATOM     17  C   UNL     1      -3.613  -1.407  24.521  0.00  0.00    +0.082 C 
ATOM     18  C   UNL     1      -4.033  -1.664  23.858  0.00  0.00    +0.052 C 
ATOM     19  C   UNL     1      -4.206  -2.465  23.764  0.00  0.00    +0.144 C 
ATOM     20  O   UNL     1      -3.959  -3.009  24.333  0.00  0.00    -0.354 OA
ATOM     21  C   UNL     1      -3.540  -2.753  24.995  0.00  0.00    +0.144 C 
ATOM     22  C   UNL     1      -3.367  -1.952  25.089  0.00  0.00    +0.052 C 
ENDBRANCH  16  17
TORSDOF 2
ENDMDL
