MODEL 1
REMARK VINA RESULT:      -9.4      0.000      0.000
REMARK  Name = 
REMARK  6 active torsions:
REMARK  status: ('A' for Active; 'I' for Inactive)
REMARK    1  A    between atoms: S_2  and  N_4
REMARK    2  A    between atoms: S_2  and  C_25
REMARK    3  A    between atoms: N_4  and  C_5
REMARK    4  A    between atoms: C_9  and  N_13
REMARK    5  A    between atoms: C_16  and  C_20
REMARK    6  A    between atoms: C_30  and  C_31
REMARK                            x       y       z     vdW  Elec       q    Type
REMARK                         _______ _______ _______ _____ _____    ______ ____
ROOT
ATOM      5  C   UNL     1      -2.170   1.568  24.019  0.00  0.00    +0.157 C 
ATOM      6  C   UNL     1      -1.828   2.311  23.917  0.00  0.00    +0.164 C 
ATOM      7  O   UNL     1      -1.009   2.215  23.902  0.00  0.00    -0.350 OA
ATOM      8  C   UNL     1      -0.844   1.413  23.995  0.00  0.00    +0.166 C 
ATOM      9  C   UNL     1      -0.237   0.856  24.044  0.00  0.00    +0.154 C 
ATOM     10  C   UNL     1      -0.579   0.113  24.145  0.00  0.00    +0.166 C 
ATOM     11  O   UNL     1      -1.398   0.209  24.160  0.00  0.00    -0.350 OA
ATOM     12  C   UNL     1      -1.562   1.012  24.067  0.00  0.00    +0.164 C 
ENDROOT
BRANCH   9  13
ATOM     13  N   UNL     1       0.571   1.016  23.998  0.00  0.00    -0.200 NA
ATOM     14  C   UNL     1       1.044   0.604  23.462  0.00  0.00    +0.237 A 
ATOM     15  N   UNL     1       1.852   0.764  23.417  0.00  0.00    -0.209 NA
ATOM     16  C   UNL     1       2.325   0.351  22.881  0.00  0.00    +0.120 A 
ATOM     17  C   UNL     1       1.990  -0.222  22.391  0.00  0.00    +0.043 A 
ATOM     18  C   UNL     1       1.181  -0.382  22.437  0.00  0.00    +0.104 A 
ATOM     19  N   UNL     1       0.709   0.031  22.972  0.00  0.00    -0.211 NA
BRANCH  16  20
ATOM     20  C   UNL     1       3.132   0.511  22.835  0.00  0.00    +0.163 A 
ATOM     21  C   UNL     1       3.742  -0.024  22.987  0.00  0.00    +0.042 A 
ATOM     22  C   UNL     1       4.459   0.368  22.875  0.00  0.00    +0.044 A 
ATOM     23  C   UNL     1       4.293   1.145  22.655  0.00  0.00    +0.180 A 
ATOM     24  O   UNL     1       3.473   1.233  22.630  0.00  0.00    -0.449 OA
ENDBRANCH  16  20
ENDBRANCH   9  13
BRANCH   5   4
ATOM      4  N   UNL     1      -2.978   1.407  24.064  0.00  0.00    -0.074 NA
BRANCH   4   2
ATOM      1  O   UNL     1      -3.703   2.220  23.646  0.00  0.00    -0.152 OA
ATOM      2  S   UNL     1      -3.490   1.961  24.399  0.00  0.00    +0.078 S 
ATOM      3  O   UNL     1      -3.278   1.702  25.153  0.00  0.00    -0.152 OA
BRANCH   2  25
ATOM     25  C   UNL     1      -4.003   2.514  24.734  0.00  0.00    +0.133 A 
ATOM     26  C   UNL     1      -3.763   3.299  24.818  0.00  0.00    +0.021 A 
ATOM     27  C   UNL     1      -4.276   3.853  25.152  0.00  0.00    +0.001 A 
ATOM     28  C   UNL     1      -5.027   3.622  25.402  0.00  0.00    +0.001 A 
ATOM     29  C   UNL     1      -5.266   2.837  25.318  0.00  0.00    +0.012 A 
ATOM     30  C   UNL     1      -4.754   2.283  24.984  0.00  0.00    +0.087 A 
BRANCH  30  31
ATOM     31  C   UNL     1      -4.994   1.498  24.899  0.00  0.00    +0.102 C 
ATOM     32  N   UNL     1      -5.233   0.713  24.815  0.00  0.00    -0.191 NA
ENDBRANCH  30  31
ENDBRANCH   2  25
ENDBRANCH   4   2
ENDBRANCH   5   4
TORSDOF 6
ENDMDL
MODEL 2
REMARK VINA RESULT:      -8.4      1.875      2.552
REMARK  Name = 
REMARK  6 active torsions:
REMARK  status: ('A' for Active; 'I' for Inactive)
REMARK    1  A    between atoms: S_2  and  N_4
REMARK    2  A    between atoms: S_2  and  C_25
REMARK    3  A    between atoms: N_4  and  C_5
REMARK    4  A    between atoms: C_9  and  N_13
REMARK    5  A    between atoms: C_16  and  C_20
REMARK    6  A    between atoms: C_30  and  C_31
REMARK                            x       y       z     vdW  Elec       q    Type
REMARK                         _______ _______ _______ _____ _____    ______ ____
ROOT
ATOM      5  C   UNL     1      -1.635   0.432  24.817  0.00  0.00    +0.157 C 
ATOM      6  C   UNL     1      -1.155   0.081  25.387  0.00  0.00    +0.164 C 
ATOM      7  O   UNL     1      -0.371   0.257  25.203  0.00  0.00    -0.350 OA
ATOM      8  C   UNL     1      -0.366   0.717  24.519  0.00  0.00    +0.166 C 
ATOM      9  C   UNL     1       0.121   1.111  23.982  0.00  0.00    +0.154 C 
ATOM     10  C   UNL     1      -0.360   1.463  23.411  0.00  0.00    +0.166 C 
ATOM     11  O   UNL     1      -1.144   1.286  23.595  0.00  0.00    -0.350 OA
ATOM     12  C   UNL     1      -1.148   0.825  24.280  0.00  0.00    +0.164 C 
ENDROOT
BRANCH   9  13
ATOM     13  N   UNL     1       0.945   1.147  24.011  0.00  0.00    -0.200 NA
ATOM     14  C   UNL     1       1.396   0.743  23.451  0.00  0.00    +0.237 A 
ATOM     15  N   UNL     1       2.219   0.779  23.480  0.00  0.00    -0.209 NA
ATOM     16  C   UNL     1       2.670   0.375  22.919  0.00  0.00    +0.120 A 
ATOM     17  C   UNL     1       2.297  -0.065  22.329  0.00  0.00    +0.043 A 
ATOM     18  C   UNL     1       1.473  -0.101  22.300  0.00  0.00    +0.104 A 
ATOM     19  N   UNL     1       1.023   0.303  22.861  0.00  0.00    -0.211 NA
BRANCH  16  20
ATOM     20  C   UNL     1       3.493   0.410  22.948  0.00  0.00    +0.163 A 
ATOM     21  C   UNL     1       3.959   1.051  22.717  0.00  0.00    +0.042 A 
ATOM     22  C   UNL     1       4.749   0.849  22.839  0.00  0.00    +0.044 A 
ATOM     23  C   UNL     1       4.772   0.083  23.145  0.00  0.00    +0.180 A 
ATOM     24  O   UNL     1       3.995  -0.188  23.212  0.00  0.00    -0.449 OA
ENDBRANCH  16  20
ENDBRANCH   9  13
BRANCH   5   4
ATOM      4  N   UNL     1      -2.460   0.396  24.787  0.00  0.00    -0.074 NA
BRANCH   4   2
ATOM      1  O   UNL     1      -2.862  -0.181  23.857  0.00  0.00    -0.152 OA
ATOM      2  S   UNL     1      -2.837  -0.327  24.668  0.00  0.00    +0.078 S 
ATOM      3  O   UNL     1      -2.813  -0.475  25.479  0.00  0.00    -0.152 OA
BRANCH   2  25
ATOM     25  C   UNL     1      -3.215  -1.051  24.548  0.00  0.00    +0.133 A 
ATOM     26  C   UNL     1      -2.773  -1.747  24.518  0.00  0.00    +0.021 A 
ATOM     27  C   UNL     1      -3.150  -2.470  24.398  0.00  0.00    +0.001 A 
ATOM     28  C   UNL     1      -3.970  -2.498  24.308  0.00  0.00    +0.001 A 
ATOM     29  C   UNL     1      -4.412  -1.803  24.337  0.00  0.00    +0.012 A 
ATOM     30  C   UNL     1      -4.035  -1.079  24.458  0.00  0.00    +0.087 A 
BRANCH  30  31
ATOM     31  C   UNL     1      -4.477  -0.383  24.487  0.00  0.00    +0.102 C 
ATOM     32  N   UNL     1      -4.919   0.313  24.518  0.00  0.00    -0.191 NA
ENDBRANCH  30  31
ENDBRANCH   2  25
ENDBRANCH   4   2
ENDBRANCH   5   4
TORSDOF 6
ENDMDL
MODEL 3
REMARK VINA RESULT:      -7.5      3.829      5.139
REMARK  Name = 
REMARK  6 active torsions:
REMARK  status: ('A' for Active; 'I' for Inactive)
REMARK    1  A    between atoms: S_2  and  N_4
REMARK    2  A    between atoms: S_2  and  C_25
REMARK    3  A    between atoms: N_4  and  C_5
REMARK    4  A    between atoms: C_9  and  N_13
REMARK    5  A    between atoms: C_16  and  C_20
REMARK    6  A    between atoms: C_30  and  C_31
REMARK                            x       y       z     vdW  Elec       q    Type
REMARK                         _______ _______ _______ _____ _____    ______ ____
ROOT
ATOM      5  C   UNL     1      -3.987   0.182  24.108  0.00  0.00    +0.157 C 
ATOM      6  C   UNL     1      -3.483   0.367  23.482  0.00  0.00    +0.164 C 
ATOM      7  O   UNL     1      -3.287   1.166  23.541  0.00  0.00    -0.350 OA
ATOM      8  C   UNL     1      -3.670   1.475  24.202  0.00  0.00    +0.166 C 
ATOM      9  C   UNL     1      -3.786   2.159  24.649  0.00  0.00    +0.154 C 
ATOM     10  C   UNL     1      -4.291   1.975  25.274  0.00  0.00    +0.166 C 
ATOM     11  O   UNL     1      -4.487   1.176  25.215  0.00  0.00    -0.350 OA
ATOM     12  C   UNL     1      -4.103   0.867  24.553  0.00  0.00    +0.164 C 
ENDROOT
BRANCH   9  13
ATOM     13  N   UNL     1      -3.455   2.900  24.495  0.00  0.00    -0.200 NA
ATOM     14  C   UNL     1      -2.809   3.162  24.935  0.00  0.00    +0.237 A 
ATOM     15  N   UNL     1      -2.478   3.902  24.782  0.00  0.00    -0.209 NA
ATOM     16  C   UNL     1      -1.831   4.164  25.223  0.00  0.00    +0.120 A 
ATOM     17  C   UNL     1      -1.516   3.686  25.816  0.00  0.00    +0.043 A 
ATOM     18  C   UNL     1      -1.847   2.946  25.970  0.00  0.00    +0.104 A 
ATOM     19  N   UNL     1      -2.493   2.684  25.529  0.00  0.00    -0.211 NA
BRANCH  16  20
ATOM     20  C   UNL     1      -1.500   4.904  25.070  0.00  0.00    +0.163 A 
ATOM     21  C   UNL     1      -0.756   5.044  24.742  0.00  0.00    +0.042 A 
ATOM     22  C   UNL     1      -0.651   5.860  24.687  0.00  0.00    +0.044 A 
ATOM     23  C   UNL     1      -1.330   6.224  24.980  0.00  0.00    +0.180 A 
ATOM     24  O   UNL     1      -1.855   5.633  25.217  0.00  0.00    -0.449 OA
ENDBRANCH  16  20
ENDBRANCH   9  13
BRANCH   5   4
ATOM      4  N   UNL     1      -4.319  -0.558  24.261  0.00  0.00    -0.074 NA
BRANCH   4   2
ATOM      1  O   UNL     1      -4.002  -1.213  25.173  0.00  0.00    -0.152 OA
ATOM      2  S   UNL     1      -3.830  -1.215  24.366  0.00  0.00    +0.078 S 
ATOM      3  O   UNL     1      -3.659  -1.217  23.559  0.00  0.00    -0.152 OA
BRANCH   2  25
ATOM     25  C   UNL     1      -3.342  -1.872  24.471  0.00  0.00    +0.133 A 
ATOM     26  C   UNL     1      -2.597  -1.780  24.814  0.00  0.00    +0.021 A 
ATOM     27  C   UNL     1      -2.109  -2.437  24.919  0.00  0.00    +0.001 A 
ATOM     28  C   UNL     1      -2.366  -3.185  24.683  0.00  0.00    +0.001 A 
ATOM     29  C   UNL     1      -3.111  -3.275  24.341  0.00  0.00    +0.012 A 
ATOM     30  C   UNL     1      -3.599  -2.619  24.235  0.00  0.00    +0.087 A 
BRANCH  30  31
ATOM     31  C   UNL     1      -4.345  -2.710  23.893  0.00  0.00    +0.102 C 
ATOM     32  N   UNL     1      -5.089  -2.801  23.551  0.00  0.00    -0.191 NA
ENDBRANCH  30  31
ENDBRANCH   2  25
ENDBRANCH   4   2
ENDBRANCH   5   4
TORSDOF 6
ENDMDL
MODEL 4
REMARK VINA RESULT:      -7.2      3.055      4.855
REMARK  Name = 
REMARK  6 active torsions:
REMARK  status: ('A' for Active; 'I' for Inactive)
REMARK    1  A    between atoms: S_2  and  N_4
REMARK    2  A    between atoms: S_2  and  C_25
REMARK    3  A    between atoms: N_4  and  C_5
REMARK    4  A    between atoms: C_9  and  N_13
REMARK    5  A    between atoms: C_16  and  C_20
REMARK    6  A    between atoms: C_30  and  C_31
REMARK                            x       y       z     vdW  Elec       q    Type
REMARK                         _______ _______ _______ _____ _____    ______ ____
ROOT
ATOM      5  C   UNL     1      -0.896   2.199  24.490  0.00  0.00    +0.157 C 
ATOM      6  C   UNL     1      -1.268   2.110  23.758  0.00  0.00    +0.164 C 
ATOM      7  O   UNL     1      -1.492   1.320  23.681  0.00  0.00    -0.350 OA
ATOM      8  C   UNL     1      -1.260   0.921  24.364  0.00  0.00    +0.166 C 
ATOM      9  C   UNL     1      -1.254   0.186  24.739  0.00  0.00    +0.154 C 
ATOM     10  C   UNL     1      -0.883   0.275  25.471  0.00  0.00    +0.166 C 
ATOM     11  O   UNL     1      -0.659   1.065  25.548  0.00  0.00    -0.350 OA
ATOM     12  C   UNL     1      -0.891   1.465  24.864  0.00  0.00    +0.164 C 
ENDROOT
BRANCH   9  13
ATOM     13  N   UNL     1      -1.566  -0.515  24.436  0.00  0.00    -0.200 NA
ATOM     14  C   UNL     1      -2.262  -0.828  24.750  0.00  0.00    +0.237 A 
ATOM     15  N   UNL     1      -2.573  -1.528  24.447  0.00  0.00    -0.209 NA
ATOM     16  C   UNL     1      -3.269  -1.841  24.761  0.00  0.00    +0.120 A 
ATOM     17  C   UNL     1      -3.654  -1.452  25.379  0.00  0.00    +0.043 A 
ATOM     18  C   UNL     1      -3.342  -0.750  25.682  0.00  0.00    +0.104 A 
ATOM     19  N   UNL     1      -2.646  -0.439  25.368  0.00  0.00    -0.211 NA
BRANCH  16  20
ATOM     20  C   UNL     1      -3.581  -2.541  24.458  0.00  0.00    +0.163 A 
ATOM     21  C   UNL     1      -4.131  -2.603  23.845  0.00  0.00    +0.042 A 
ATOM     22  C   UNL     1      -4.287  -3.403  23.723  0.00  0.00    +0.044 A 
ATOM     23  C   UNL     1      -3.835  -3.836  24.259  0.00  0.00    +0.180 A 
ATOM     24  O   UNL     1      -3.398  -3.304  24.713  0.00  0.00    -0.449 OA
ENDBRANCH  16  20
ENDBRANCH   9  13
BRANCH   5   4
ATOM      4  N   UNL     1      -0.585   2.901  24.793  0.00  0.00    -0.074 NA
BRANCH   4   2
ATOM      1  O   UNL     1      -0.802   3.451  25.799  0.00  0.00    -0.152 OA
ATOM      2  S   UNL     1      -1.090   3.509  25.028  0.00  0.00    +0.078 S 
ATOM      3  O   UNL     1      -1.378   3.568  24.257  0.00  0.00    -0.152 OA
BRANCH   2  25
ATOM     25  C   UNL     1      -1.595   4.118  25.263  0.00  0.00    +0.133 A 
ATOM     26  C   UNL     1      -2.305   3.940  25.643  0.00  0.00    +0.021 A 
ATOM     27  C   UNL     1      -2.810   4.549  25.878  0.00  0.00    +0.001 A 
ATOM     28  C   UNL     1      -2.605   5.335  25.734  0.00  0.00    +0.001 A 
ATOM     29  C   UNL     1      -1.894   5.512  25.355  0.00  0.00    +0.012 A 
ATOM     30  C   UNL     1      -1.389   4.904  25.119  0.00  0.00    +0.087 A 
BRANCH  30  31
ATOM     31  C   UNL     1      -0.678   5.081  24.739  0.00  0.00    +0.102 C 
ATOM     32  N   UNL     1       0.032   5.259  24.360  0.00  0.00    -0.191 NA
ENDBRANCH  30  31
ENDBRANCH   2  25
ENDBRANCH   4   2
ENDBRANCH   5   4
TORSDOF 6
ENDMDL
