MODEL 1
REMARK VINA RESULT:      -8.8      0.000      0.000
REMARK  Name = 
REMARK  6 active torsions:
REMARK  status: ('A' for Active; 'I' for Inactive)
REMARK    1  A    between atoms: O_2  and  C_3
REMARK    2  A    between atoms: C_3  and  C_4
REMARK    3  A    between atoms: N_6  and  C_7
REMARK    4  A    between atoms: C_11  and  N_15
REMARK    5  A    between atoms: C_18  and  C_22
REMARK    6  A    between atoms: C_26  and  C_28
REMARK                            x       y       z     vdW  Elec       q    Type
REMARK                         _______ _______ _______ _____ _____    ______ ____
ROOT
ATOM     15  N   UNL     1      -0.529   0.686  23.520  0.00  0.00    -0.200 NA
ATOM     16  C   UNL     1      -0.955   0.447  24.185  0.00  0.00    +0.237 A 
ATOM     17  N   UNL     1      -1.744   0.219  24.110  0.00  0.00    -0.212 NA
ATOM     18  C   UNL     1      -2.170  -0.020  24.775  0.00  0.00    +0.086 A 
ATOM     19  C   UNL     1      -1.806  -0.030  25.515  0.00  0.00    +0.040 A 
ATOM     20  C   UNL     1      -1.017   0.198  25.590  0.00  0.00    +0.103 A 
ATOM     21  N   UNL     1      -0.591   0.436  24.925  0.00  0.00    -0.211 NA
ENDROOT
BRANCH  15  11
ATOM      7  C   UNL     1       2.225   0.642  23.040  0.00  0.00    +0.154 C 
ATOM      8  C   UNL     1       1.939   0.040  22.554  0.00  0.00    +0.166 C 
ATOM      9  O   UNL     1       1.121   0.002  22.651  0.00  0.00    -0.350 OA
ATOM     10  C   UNL     1       0.901   0.579  23.197  0.00  0.00    +0.166 C 
ATOM     11  C   UNL     1       0.261   0.914  23.595  0.00  0.00    +0.154 C 
ATOM     12  C   UNL     1       0.547   1.516  24.081  0.00  0.00    +0.166 C 
ATOM     13  O   UNL     1       1.365   1.554  23.983  0.00  0.00    -0.350 OA
ATOM     14  C   UNL     1       1.584   0.975  23.437  0.00  0.00    +0.166 C 
BRANCH   7   6
ATOM      4  C   UNL     1       3.617   0.321  22.985  0.00  0.00    +0.272 C 
ATOM      5  O   UNL     1       3.429  -0.456  22.780  0.00  0.00    -0.271 OA
ATOM      6  N   UNL     1       3.015   0.870  23.115  0.00  0.00    -0.200 NA
BRANCH   4   3
ATOM      3  C   UNL     1       4.406   0.549  23.060  0.00  0.00    +0.229 C 
BRANCH   3   2
ATOM      1  C   UNL     1       5.715   0.237  23.541  0.00  0.00    +0.175 C 
ATOM      2  O   UNL     1       4.980  -0.009  23.260  0.00  0.00    -0.342 OA
ENDBRANCH   3   2
ENDBRANCH   4   3
ENDBRANCH   7   6
ENDBRANCH  15  11
BRANCH  18  22
ATOM     22  C   UNL     1      -2.958  -0.248  24.700  0.00  0.00    +0.018 A 
ATOM     23  C   UNL     1      -3.562   0.282  24.896  0.00  0.00    +0.002 A 
ATOM     24  C   UNL     1      -4.350   0.054  24.822  0.00  0.00    +0.001 A 
ATOM     25  C   UNL     1      -4.538  -0.703  24.551  0.00  0.00    +0.010 A 
ATOM     26  C   UNL     1      -3.936  -1.231  24.355  0.00  0.00    +0.068 A 
ATOM     27  C   UNL     1      -3.146  -1.003  24.429  0.00  0.00    +0.012 A 
BRANCH  26  28
ATOM     28  C   UNL     1      -4.122  -1.988  24.084  0.00  0.00    +0.100 C 
ATOM     29  N   UNL     1      -4.308  -2.745  23.813  0.00  0.00    -0.191 NA
ENDBRANCH  26  28
ENDBRANCH  18  22
TORSDOF 6
ENDMDL
MODEL 2
REMARK VINA RESULT:      -8.7      1.746      2.324
REMARK  Name = 
REMARK  6 active torsions:
REMARK  status: ('A' for Active; 'I' for Inactive)
REMARK    1  A    between atoms: O_2  and  C_3
REMARK    2  A    between atoms: C_3  and  C_4
REMARK    3  A    between atoms: N_6  and  C_7
REMARK    4  A    between atoms: C_11  and  N_15
REMARK    5  A    between atoms: C_18  and  C_22
REMARK    6  A    between atoms: C_26  and  C_28
REMARK                            x       y       z     vdW  Elec       q    Type
REMARK                         _______ _______ _______ _____ _____    ______ ____
ROOT
ATOM     15  N   UNL     1      -1.057   1.077  24.601  0.00  0.00    -0.200 NA
ATOM     16  C   UNL     1      -1.677   1.580  24.394  0.00  0.00    +0.237 A 
ATOM     17  N   UNL     1      -2.450   1.397  24.616  0.00  0.00    -0.212 NA
ATOM     18  C   UNL     1      -3.070   1.901  24.409  0.00  0.00    +0.086 A 
ATOM     19  C   UNL     1      -2.916   2.588  23.979  0.00  0.00    +0.040 A 
ATOM     20  C   UNL     1      -2.143   2.772  23.757  0.00  0.00    +0.103 A 
ATOM     21  N   UNL     1      -1.524   2.268  23.964  0.00  0.00    -0.211 NA
ENDROOT
BRANCH  15  11
ATOM      7  C   UNL     1       1.415   0.730  23.343  0.00  0.00    +0.154 C 
ATOM      8  C   UNL     1       0.996   0.054  23.125  0.00  0.00    +0.166 C 
ATOM      9  O   UNL     1       0.248   0.097  23.470  0.00  0.00    -0.350 OA
ATOM     10  C   UNL     1       0.204   0.799  23.900  0.00  0.00    +0.166 C 
ATOM     11  C   UNL     1      -0.284   1.260  24.378  0.00  0.00    +0.154 C 
ATOM     12  C   UNL     1       0.135   1.936  24.596  0.00  0.00    +0.166 C 
ATOM     13  O   UNL     1       0.883   1.893  24.251  0.00  0.00    -0.350 OA
ATOM     14  C   UNL     1       0.926   1.190  23.821  0.00  0.00    +0.166 C 
BRANCH   7   6
ATOM      4  C   UNL     1       2.685   0.324  22.826  0.00  0.00    +0.272 C 
ATOM      5  O   UNL     1       2.407  -0.450  22.755  0.00  0.00    -0.271 OA
ATOM      6  N   UNL     1       2.189   0.914  23.120  0.00  0.00    -0.200 NA
BRANCH   4   3
ATOM      3  C   UNL     1       3.457   0.507  22.604  0.00  0.00    +0.229 C 
BRANCH   3   2
ATOM      1  C   UNL     1       4.843   0.463  22.948  0.00  0.00    +0.175 C 
ATOM      2  O   UNL     1       4.093   0.122  22.963  0.00  0.00    -0.342 OA
ENDBRANCH   3   2
ENDBRANCH   4   3
ENDBRANCH   7   6
ENDBRANCH  15  11
BRANCH  18  22
ATOM     22  C   UNL     1      -3.842   1.718  24.631  0.00  0.00    +0.018 A 
ATOM     23  C   UNL     1      -4.158   0.976  24.452  0.00  0.00    +0.002 A 
ATOM     24  C   UNL     1      -4.931   0.793  24.674  0.00  0.00    +0.001 A 
ATOM     25  C   UNL     1      -5.389   1.350  25.075  0.00  0.00    +0.010 A 
ATOM     26  C   UNL     1      -5.073   2.091  25.254  0.00  0.00    +0.068 A 
ATOM     27  C   UNL     1      -4.300   2.274  25.031  0.00  0.00    +0.012 A 
BRANCH  26  28
ATOM     28  C   UNL     1      -5.530   2.648  25.655  0.00  0.00    +0.100 C 
ATOM     29  N   UNL     1      -5.986   3.206  26.056  0.00  0.00    -0.191 NA
ENDBRANCH  26  28
ENDBRANCH  18  22
TORSDOF 6
ENDMDL
MODEL 3
REMARK VINA RESULT:      -7.3      2.966      6.353
REMARK  Name = 
REMARK  6 active torsions:
REMARK  status: ('A' for Active; 'I' for Inactive)
REMARK    1  A    between atoms: O_2  and  C_3
REMARK    2  A    between atoms: C_3  and  C_4
REMARK    3  A    between atoms: N_6  and  C_7
REMARK    4  A    between atoms: C_11  and  N_15
REMARK    5  A    between atoms: C_18  and  C_22
REMARK    6  A    between atoms: C_26  and  C_28
REMARK                            x       y       z     vdW  Elec       q    Type
REMARK                         _______ _______ _______ _____ _____    ______ ____
ROOT
ATOM     15  N   UNL     1      -0.623   1.822  24.050  0.00  0.00    -0.200 NA
ATOM     16  C   UNL     1      -0.295   1.072  23.948  0.00  0.00    +0.237 A 
ATOM     17  N   UNL     1       0.364   0.972  23.463  0.00  0.00    -0.212 NA
ATOM     18  C   UNL     1       0.692   0.222  23.361  0.00  0.00    +0.086 A 
ATOM     19  C   UNL     1       0.359  -0.429  23.745  0.00  0.00    +0.040 A 
ATOM     20  C   UNL     1      -0.301  -0.329  24.230  0.00  0.00    +0.103 A 
ATOM     21  N   UNL     1      -0.628   0.422  24.332  0.00  0.00    -0.211 NA
ENDROOT
BRANCH  15  11
ATOM      7  C   UNL     1      -3.208   2.620  24.756  0.00  0.00    +0.154 C 
ATOM      8  C   UNL     1      -3.144   2.862  23.970  0.00  0.00    +0.166 C 
ATOM      9  O   UNL     1      -2.393   2.652  23.700  0.00  0.00    -0.350 OA
ATOM     10  C   UNL     1      -1.994   2.281  24.319  0.00  0.00    +0.166 C 
ATOM     11  C   UNL     1      -1.283   1.922  24.536  0.00  0.00    +0.154 C 
ATOM     12  C   UNL     1      -1.348   1.681  25.322  0.00  0.00    +0.166 C 
ATOM     13  O   UNL     1      -2.098   1.891  25.591  0.00  0.00    -0.350 OA
ATOM     14  C   UNL     1      -2.498   2.262  24.971  0.00  0.00    +0.166 C 
BRANCH   7   6
ATOM      4  C   UNL     1      -4.626   2.603  24.937  0.00  0.00    +0.272 C 
ATOM      5  O   UNL     1      -4.723   2.386  24.146  0.00  0.00    -0.271 OA
ATOM      6  N   UNL     1      -3.868   2.720  25.241  0.00  0.00    -0.200 NA
BRANCH   4   3
ATOM      3  C   UNL     1      -5.286   2.703  25.422  0.00  0.00    +0.229 C 
BRANCH   3   2
ATOM      1  C   UNL     1      -6.360   2.062  26.112  0.00  0.00    +0.175 C 
ATOM      2  O   UNL     1      -5.867   2.119  25.453  0.00  0.00    -0.342 OA
ENDBRANCH   3   2
ENDBRANCH   4   3
ENDBRANCH   7   6
ENDBRANCH  15  11
BRANCH  18  22
ATOM     22  C   UNL     1       1.351   0.121  22.877  0.00  0.00    +0.018 A 
ATOM     23  C   UNL     1       1.277  -0.278  22.157  0.00  0.00    +0.002 A 
ATOM     24  C   UNL     1       1.936  -0.378  21.672  0.00  0.00    +0.001 A 
ATOM     25  C   UNL     1       2.670  -0.080  21.905  0.00  0.00    +0.010 A 
ATOM     26  C   UNL     1       2.743   0.319  22.623  0.00  0.00    +0.068 A 
ATOM     27  C   UNL     1       2.083   0.419  23.109  0.00  0.00    +0.012 A 
BRANCH  26  28
ATOM     28  C   UNL     1       3.476   0.617  22.857  0.00  0.00    +0.100 C 
ATOM     29  N   UNL     1       4.209   0.916  23.090  0.00  0.00    -0.191 NA
ENDBRANCH  26  28
ENDBRANCH  18  22
TORSDOF 6
ENDMDL
