MODEL 1
REMARK VINA RESULT:     -11.4      0.000      0.000
REMARK  Name = 
REMARK  8 active torsions:
REMARK  status: ('A' for Active; 'I' for Inactive)
REMARK    1  A    between atoms: C_4  and  C_5
REMARK    2  A    between atoms: C_9  and  N_29
REMARK    3  A    between atoms: C_11  and  C_12
REMARK    4  A    between atoms: N_14  and  C_15
REMARK    5  A    between atoms: C_15  and  C_16
REMARK    6  A    between atoms: C_15  and  C_26
REMARK    7  A    between atoms: C_16  and  C_17
REMARK    8  A    between atoms: N_32  and  C_33
REMARK                            x       y       z     vdW  Elec       q    Type
REMARK                         _______ _______ _______ _____ _____    ______ ____
ROOT
ATOM      5  C   UNL     1       0.306   0.005  23.727  0.00  0.00    +0.249 C 
ATOM      6  O   UNL     1       0.549  -0.614  23.237  0.00  0.00    -0.270 OA
ATOM      7  N   UNL     1      -0.409  -0.048  24.134  0.00  0.00    -0.268 N 
ATOM      8  C   UNL     1      -0.938  -0.681  24.106  0.00  0.00    +0.116 C 
ATOM      9  C   UNL     1      -1.577  -0.500  24.595  0.00  0.00    +0.119 C 
ATOM     10  C   UNL     1      -1.444   0.244  24.925  0.00  0.00    +0.053 C 
ATOM     11  C   UNL     1      -0.722   0.524  24.640  0.00  0.00    +0.156 C 
ENDROOT
BRANCH   5   4
ATOM      1  C   UNL     1       1.709   0.136  22.867  0.00  0.00    +0.027 C 
ATOM      2  C   UNL     1       1.480   0.741  23.380  0.00  0.00    -0.039 C 
ATOM      3  C   UNL     1       1.954   1.412  23.462  0.00  0.00    +0.027 C 
ATOM      4  C   UNL     1       0.779   0.675  23.809  0.00  0.00    +0.049 C 
ENDBRANCH   5   4
BRANCH   9  29
ATOM     29  N   UNL     1      -2.235  -0.980  24.730  0.00  0.00    -0.187 NA
ATOM     30  C   UNL     1      -2.449  -1.178  25.502  0.00  0.00    +0.344 C 
ATOM     31  O   UNL     1      -2.006  -0.897  26.138  0.00  0.00    -0.249 OA
ATOM     32  N   UNL     1      -3.107  -1.658  25.637  0.00  0.00    -0.159 NA
BRANCH  32  33
ATOM     33  C   UNL     1      -3.550  -1.940  25.001  0.00  0.00    +0.102 A 
ATOM     34  C   UNL     1      -3.554  -2.747  24.827  0.00  0.00    +0.158 A 
ATOM     35  F   UNL     1      -3.116  -3.271  25.288  0.00  0.00    -0.203 F 
ATOM     36  C   UNL     1      -3.997  -3.029  24.190  0.00  0.00    +0.061 A 
ATOM     37  C   UNL     1      -4.435  -2.503  23.728  0.00  0.00    +0.142 A 
ATOM     38  F   UNL     1      -4.878  -2.785  23.092  0.00  0.00    -0.204 F 
ATOM     39  C   UNL     1      -4.430  -1.698  23.903  0.00  0.00    +0.031 A 
ATOM     40  C   UNL     1      -3.987  -1.416  24.539  0.00  0.00    +0.021 A 
ENDBRANCH  32  33
ENDBRANCH   9  29
BRANCH  11  12
ATOM     12  C   UNL     1      -0.374   1.248  24.828  0.00  0.00    +0.260 C 
ATOM     13  O   UNL     1       0.227   1.552  24.352  0.00  0.00    -0.272 OA
ATOM     14  N   UNL     1      -0.627   1.667  25.492  0.00  0.00    -0.196 NA
BRANCH  14  15
ATOM     15  C   UNL     1      -0.279   2.391  25.680  0.00  0.00    +0.179 C 
BRANCH  15  26
ATOM     26  C   UNL     1       0.243   2.444  26.317  0.00  0.00    +0.281 C 
ATOM     27  N   UNL     1       0.040   2.115  27.045  0.00  0.00    -0.086 NA
ATOM     28  O   UNL     1       0.968   2.826  26.224  0.00  0.00    -0.270 OA
ENDBRANCH  15  26
BRANCH  15  16
ATOM     16  C   UNL     1      -0.453   3.061  25.231  0.00  0.00    +0.059 C 
BRANCH  16  17
ATOM     17  C   UNL     1      -1.111   3.522  25.416  0.00  0.00    +0.001 A 
ATOM     18  C   UNL     1      -1.771   3.276  25.845  0.00  0.00    +0.095 A 
ATOM     19  N   UNL     1      -2.293   3.912  25.898  0.00  0.00    -0.244 NA
ATOM     20  C   UNL     1      -1.956   4.552  25.502  0.00  0.00    +0.081 A 
ATOM     21  C   UNL     1      -1.225   4.311  25.204  0.00  0.00    +0.015 A 
ATOM     22  C   UNL     1      -0.759   4.842  24.778  0.00  0.00    +0.001 A 
ATOM     23  C   UNL     1      -1.022   5.612  24.649  0.00  0.00    +0.000 A 
ATOM     24  C   UNL     1      -1.753   5.853  24.948  0.00  0.00    +0.002 A 
ATOM     25  C   UNL     1      -2.220   5.324  25.374  0.00  0.00    +0.019 A 
ENDBRANCH  16  17
ENDBRANCH  15  16
ENDBRANCH  14  15
ENDBRANCH  11  12
TORSDOF 8
ENDMDL
MODEL 2
REMARK VINA RESULT:     -11.3      2.357      5.466
REMARK  Name = 
REMARK  8 active torsions:
REMARK  status: ('A' for Active; 'I' for Inactive)
REMARK    1  A    between atoms: C_4  and  C_5
REMARK    2  A    between atoms: C_9  and  N_29
REMARK    3  A    between atoms: C_11  and  C_12
REMARK    4  A    between atoms: N_14  and  C_15
REMARK    5  A    between atoms: C_15  and  C_16
REMARK    6  A    between atoms: C_15  and  C_26
REMARK    7  A    between atoms: C_16  and  C_17
REMARK    8  A    between atoms: N_32  and  C_33
REMARK                            x       y       z     vdW  Elec       q    Type
REMARK                         _______ _______ _______ _____ _____    ______ ____
ROOT
ATOM      5  C   UNL     1      -0.664   2.889  24.838  0.00  0.00    +0.249 C 
ATOM      6  O   UNL     1      -0.071   3.452  24.953  0.00  0.00    -0.270 OA
ATOM      7  N   UNL     1      -0.489   2.177  24.460  0.00  0.00    -0.268 N 
ATOM      8  C   UNL     1       0.250   1.951  24.169  0.00  0.00    +0.116 C 
ATOM      9  C   UNL     1       0.173   1.200  23.836  0.00  0.00    +0.119 C 
ATOM     10  C   UNL     1      -0.613   0.962  23.922  0.00  0.00    +0.053 C 
ATOM     11  C   UNL     1      -1.021   1.566  24.307  0.00  0.00    +0.156 C 
ENDROOT
BRANCH   5   4
ATOM      1  C   UNL     1      -1.050   4.369  25.458  0.00  0.00    +0.027 C 
ATOM      2  C   UNL     1      -1.624   3.779  25.410  0.00  0.00    -0.039 C 
ATOM      3  C   UNL     1      -2.392   3.929  25.673  0.00  0.00    +0.027 C 
ATOM      4  C   UNL     1      -1.431   3.039  25.100  0.00  0.00    +0.049 C 
ENDBRANCH   5   4
BRANCH   9  29
ATOM     29  N   UNL     1       0.777   0.764  23.480  0.00  0.00    -0.187 NA
ATOM     30  C   UNL     1       0.688  -0.049  23.371  0.00  0.00    +0.344 C 
ATOM     31  O   UNL     1      -0.004  -0.426  23.617  0.00  0.00    -0.249 OA
ATOM     32  N   UNL     1       1.291  -0.486  23.015  0.00  0.00    -0.159 NA
BRANCH  32  33
ATOM     33  C   UNL     1       1.983  -0.109  22.769  0.00  0.00    +0.102 A 
ATOM     34  C   UNL     1       2.171  -0.075  21.967  0.00  0.00    +0.158 A 
ATOM     35  F   UNL     1       1.668  -0.417  21.410  0.00  0.00    -0.203 F 
ATOM     36  C   UNL     1       2.863   0.302  21.720  0.00  0.00    +0.061 A 
ATOM     37  C   UNL     1       3.366   0.644  22.277  0.00  0.00    +0.142 A 
ATOM     38  F   UNL     1       4.057   1.021  22.032  0.00  0.00    -0.204 F 
ATOM     39  C   UNL     1       3.178   0.610  23.079  0.00  0.00    +0.031 A 
ATOM     40  C   UNL     1       2.486   0.233  23.326  0.00  0.00    +0.021 A 
ENDBRANCH  32  33
ENDBRANCH   9  29
BRANCH  11  12
ATOM     12  C   UNL     1      -1.823   1.560  24.505  0.00  0.00    +0.260 C 
ATOM     13  O   UNL     1      -2.074   1.891  25.217  0.00  0.00    -0.272 OA
ATOM     14  N   UNL     1      -2.372   1.222  23.991  0.00  0.00    -0.196 NA
BRANCH  14  15
ATOM     15  C   UNL     1      -3.172   1.215  24.188  0.00  0.00    +0.179 C 
BRANCH  15  26
ATOM     26  C   UNL     1      -3.681   1.779  23.865  0.00  0.00    +0.281 C 
ATOM     27  N   UNL     1      -4.302   2.081  24.314  0.00  0.00    -0.086 NA
ATOM     28  O   UNL     1      -3.566   2.040  23.090  0.00  0.00    -0.270 OA
ENDBRANCH  15  26
BRANCH  15  16
ATOM     16  C   UNL     1      -3.464   0.646  24.710  0.00  0.00    +0.059 C 
BRANCH  16  17
ATOM     17  C   UNL     1      -3.635  -0.113  24.438  0.00  0.00    +0.001 A 
ATOM     18  C   UNL     1      -3.918  -0.308  23.687  0.00  0.00    +0.095 A 
ATOM     19  N   UNL     1      -4.011  -1.127  23.655  0.00  0.00    -0.244 NA
ATOM     20  C   UNL     1      -3.786  -1.438  24.384  0.00  0.00    +0.081 A 
ATOM     21  C   UNL     1      -3.554  -0.812  24.868  0.00  0.00    +0.015 A 
ATOM     22  C   UNL     1      -3.298  -0.959  25.639  0.00  0.00    +0.001 A 
ATOM     23  C   UNL     1      -3.275  -1.732  25.925  0.00  0.00    +0.000 A 
ATOM     24  C   UNL     1      -3.507  -2.358  25.441  0.00  0.00    +0.002 A 
ATOM     25  C   UNL     1      -3.763  -2.212  24.671  0.00  0.00    +0.019 A 
ENDBRANCH  16  17
ENDBRANCH  15  16
ENDBRANCH  14  15
ENDBRANCH  11  12
TORSDOF 8
ENDMDL
MODEL 3
REMARK VINA RESULT:     -11.1      2.575      4.854
REMARK  Name = 
REMARK  8 active torsions:
REMARK  status: ('A' for Active; 'I' for Inactive)
REMARK    1  A    between atoms: C_4  and  C_5
REMARK    2  A    between atoms: C_9  and  N_29
REMARK    3  A    between atoms: C_11  and  C_12
REMARK    4  A    between atoms: N_14  and  C_15
REMARK    5  A    between atoms: C_15  and  C_16
REMARK    6  A    between atoms: C_15  and  C_26
REMARK    7  A    between atoms: C_16  and  C_17
REMARK    8  A    between atoms: N_32  and  C_33
REMARK                            x       y       z     vdW  Elec       q    Type
REMARK                         _______ _______ _______ _____ _____    ______ ____
ROOT
ATOM      5  C   UNL     1      -0.674  -0.678  24.753  0.00  0.00    +0.249 C 
ATOM      6  O   UNL     1      -0.371  -1.310  25.189  0.00  0.00    -0.270 OA
ATOM      7  N   UNL     1      -0.195  -0.289  24.206  0.00  0.00    -0.268 N 
ATOM      8  C   UNL     1       0.592  -0.468  24.036  0.00  0.00    +0.116 C 
ATOM      9  C   UNL     1       0.854   0.059  23.457  0.00  0.00    +0.119 C 
ATOM     10  C   UNL     1       0.228   0.563  23.269  0.00  0.00    +0.053 C 
ATOM     11  C   UNL     1      -0.420   0.348  23.732  0.00  0.00    +0.156 C 
ENDROOT
BRANCH   5   4
ATOM      1  C   UNL     1      -1.617  -1.428  25.880  0.00  0.00    +0.027 C 
ATOM      2  C   UNL     1      -1.926  -0.811  25.427  0.00  0.00    -0.039 C 
ATOM      3  C   UNL     1      -2.707  -0.569  25.539  0.00  0.00    +0.027 C 
ATOM      4  C   UNL     1      -1.454  -0.437  24.864  0.00  0.00    +0.049 C 
ENDBRANCH   5   4
BRANCH   9  29
ATOM     29  N   UNL     1       1.609   0.077  23.124  0.00  0.00    -0.187 NA
ATOM     30  C   UNL     1       1.728  -0.201  22.357  0.00  0.00    +0.344 C 
ATOM     31  O   UNL     1       1.093  -0.498  21.922  0.00  0.00    -0.249 OA
ATOM     32  N   UNL     1       2.484  -0.182  22.024  0.00  0.00    -0.159 NA
BRANCH  32  33
ATOM     33  C   UNL     1       3.119   0.115  22.459  0.00  0.00    +0.102 A 
ATOM     34  C   UNL     1       3.635  -0.403  22.841  0.00  0.00    +0.158 A 
ATOM     35  F   UNL     1       3.517  -1.218  22.788  0.00  0.00    -0.203 F 
ATOM     36  C   UNL     1       4.271  -0.107  23.276  0.00  0.00    +0.061 A 
ATOM     37  C   UNL     1       4.389   0.709  23.328  0.00  0.00    +0.142 A 
ATOM     38  F   UNL     1       5.024   1.006  23.763  0.00  0.00    -0.204 F 
ATOM     39  C   UNL     1       3.873   1.225  22.946  0.00  0.00    +0.031 A 
ATOM     40  C   UNL     1       3.237   0.929  22.511  0.00  0.00    +0.021 A 
ENDBRANCH  32  33
ENDBRANCH   9  29
BRANCH  11  12
ATOM     12  C   UNL     1      -1.162   0.708  23.723  0.00  0.00    +0.260 C 
ATOM     13  O   UNL     1      -1.844   0.248  23.790  0.00  0.00    -0.272 OA
ATOM     14  N   UNL     1      -1.223   1.527  23.646  0.00  0.00    -0.196 NA
BRANCH  14  15
ATOM     15  C   UNL     1      -1.966   1.886  23.637  0.00  0.00    +0.179 C 
BRANCH  15  26
ATOM     26  C   UNL     1      -2.393   1.931  22.931  0.00  0.00    +0.281 C 
ATOM     27  N   UNL     1      -3.184   1.702  22.913  0.00  0.00    -0.086 NA
ATOM     28  O   UNL     1      -2.026   2.206  22.245  0.00  0.00    -0.270 OA
ENDBRANCH  15  26
BRANCH  15  16
ATOM     16  C   UNL     1      -2.281   2.200  24.331  0.00  0.00    +0.059 C 
BRANCH  16  17
ATOM     17  C   UNL     1      -2.022   2.931  24.609  0.00  0.00    +0.001 A 
ATOM     18  C   UNL     1      -1.332   3.321  24.378  0.00  0.00    +0.095 A 
ATOM     19  N   UNL     1      -1.289   4.032  24.793  0.00  0.00    -0.244 NA
ATOM     20  C   UNL     1      -1.952   4.082  25.281  0.00  0.00    +0.081 A 
ATOM     21  C   UNL     1      -2.405   3.402  25.167  0.00  0.00    +0.015 A 
ATOM     22  C   UNL     1      -3.108   3.299  25.587  0.00  0.00    +0.001 A 
ATOM     23  C   UNL     1      -3.358   3.876  26.120  0.00  0.00    +0.000 A 
ATOM     24  C   UNL     1      -2.905   4.557  26.234  0.00  0.00    +0.002 A 
ATOM     25  C   UNL     1      -2.203   4.660  25.814  0.00  0.00    +0.019 A 
ENDBRANCH  16  17
ENDBRANCH  15  16
ENDBRANCH  14  15
ENDBRANCH  11  12
TORSDOF 8
ENDMDL
MODEL 4
REMARK VINA RESULT:     -11.1      2.374      5.879
REMARK  Name = 
REMARK  8 active torsions:
REMARK  status: ('A' for Active; 'I' for Inactive)
REMARK    1  A    between atoms: C_4  and  C_5
REMARK    2  A    between atoms: C_9  and  N_29
REMARK    3  A    between atoms: C_11  and  C_12
REMARK    4  A    between atoms: N_14  and  C_15
REMARK    5  A    between atoms: C_15  and  C_16
REMARK    6  A    between atoms: C_15  and  C_26
REMARK    7  A    between atoms: C_16  and  C_17
REMARK    8  A    between atoms: N_32  and  C_33
REMARK                            x       y       z     vdW  Elec       q    Type
REMARK                         _______ _______ _______ _____ _____    ______ ____
ROOT
ATOM      5  C   UNL     1      -0.282   2.310  24.399  0.00  0.00    +0.249 C 
ATOM      6  O   UNL     1       0.031   3.067  24.292  0.00  0.00    -0.270 OA
ATOM      7  N   UNL     1       0.149   1.649  24.159  0.00  0.00    -0.268 N 
ATOM      8  C   UNL     1       0.895   1.657  23.807  0.00  0.00    +0.116 C 
ATOM      9  C   UNL     1       1.116   0.876  23.660  0.00  0.00    +0.119 C 
ATOM     10  C   UNL     1       0.506   0.385  23.921  0.00  0.00    +0.053 C 
ATOM     11  C   UNL     1      -0.091   0.862  24.229  0.00  0.00    +0.156 C 
ENDROOT
BRANCH   5   4
ATOM      1  C   UNL     1      -1.107   3.627  24.952  0.00  0.00    +0.027 C 
ATOM      2  C   UNL     1      -1.437   2.874  25.021  0.00  0.00    -0.039 C 
ATOM      3  C   UNL     1      -2.181   2.780  25.367  0.00  0.00    +0.027 C 
ATOM      4  C   UNL     1      -1.024   2.216  24.744  0.00  0.00    +0.049 C 
ENDBRANCH   5   4
BRANCH   9  29
ATOM     29  N   UNL     1       1.823   0.629  23.312  0.00  0.00    -0.187 NA
ATOM     30  C   UNL     1       1.807   0.150  22.641  0.00  0.00    +0.344 C 
ATOM     31  O   UNL     1       1.085  -0.083  22.317  0.00  0.00    -0.249 OA
ATOM     32  N   UNL     1       2.514  -0.097  22.294  0.00  0.00    -0.159 NA
BRANCH  32  33
ATOM     33  C   UNL     1       3.236   0.135  22.618  0.00  0.00    +0.102 A 
ATOM     34  C   UNL     1       3.692  -0.407  23.039  0.00  0.00    +0.158 A 
ATOM     35  F   UNL     1       3.427  -1.182  23.137  0.00  0.00    -0.203 F 
ATOM     36  C   UNL     1       4.415  -0.175  23.364  0.00  0.00    +0.061 A 
ATOM     37  C   UNL     1       4.680   0.601  23.266  0.00  0.00    +0.142 A 
ATOM     38  F   UNL     1       5.402   0.833  23.590  0.00  0.00    -0.204 F 
ATOM     39  C   UNL     1       4.223   1.142  22.844  0.00  0.00    +0.031 A 
ATOM     40  C   UNL     1       3.501   0.910  22.520  0.00  0.00    +0.021 A 
ENDBRANCH  32  33
ENDBRANCH   9  29
BRANCH  11  12
ATOM     12  C   UNL     1      -0.804   0.600  24.551  0.00  0.00    +0.260 C 
ATOM     13  O   UNL     1      -1.481   1.067  24.489  0.00  0.00    -0.272 OA
ATOM     14  N   UNL     1      -0.840  -0.129  24.935  0.00  0.00    -0.196 NA
BRANCH  14  15
ATOM     15  C   UNL     1      -1.552  -0.391  25.257  0.00  0.00    +0.179 C 
BRANCH  15  26
ATOM     26  C   UNL     1      -1.635  -0.457  26.076  0.00  0.00    +0.281 C 
ATOM     27  N   UNL     1      -1.008  -0.734  26.533  0.00  0.00    -0.086 NA
ATOM     28  O   UNL     1      -2.347  -0.244  26.436  0.00  0.00    -0.270 OA
ENDBRANCH  15  26
BRANCH  15  16
ATOM     16  C   UNL     1      -2.182  -0.588  24.761  0.00  0.00    +0.059 C 
BRANCH  16  17
ATOM     17  C   UNL     1      -2.344  -1.379  24.595  0.00  0.00    +0.001 A 
ATOM     18  C   UNL     1      -1.814  -2.008  24.662  0.00  0.00    +0.095 A 
ATOM     19  N   UNL     1      -2.207  -2.698  24.440  0.00  0.00    -0.244 NA
ATOM     20  C   UNL     1      -2.980  -2.496  24.236  0.00  0.00    +0.081 A 
ATOM     21  C   UNL     1      -3.065  -1.681  24.331  0.00  0.00    +0.015 A 
ATOM     22  C   UNL     1      -3.788  -1.320  24.166  0.00  0.00    +0.001 A 
ATOM     23  C   UNL     1      -4.426  -1.772  23.905  0.00  0.00    +0.000 A 
ATOM     24  C   UNL     1      -4.341  -2.587  23.809  0.00  0.00    +0.002 A 
ATOM     25  C   UNL     1      -3.619  -2.950  23.974  0.00  0.00    +0.019 A 
ENDBRANCH  16  17
ENDBRANCH  15  16
ENDBRANCH  14  15
ENDBRANCH  11  12
TORSDOF 8
ENDMDL
MODEL 5
REMARK VINA RESULT:     -10.9      2.604      4.020
REMARK  Name = 
REMARK  8 active torsions:
REMARK  status: ('A' for Active; 'I' for Inactive)
REMARK    1  A    between atoms: C_4  and  C_5
REMARK    2  A    between atoms: C_9  and  N_29
REMARK    3  A    between atoms: C_11  and  C_12
REMARK    4  A    between atoms: N_14  and  C_15
REMARK    5  A    between atoms: C_15  and  C_16
REMARK    6  A    between atoms: C_15  and  C_26
REMARK    7  A    between atoms: C_16  and  C_17
REMARK    8  A    between atoms: N_32  and  C_33
REMARK                            x       y       z     vdW  Elec       q    Type
REMARK                         _______ _______ _______ _____ _____    ______ ____
ROOT
ATOM      5  C   UNL     1      -5.144   1.367  25.426  0.00  0.00    +0.249 C 
ATOM      6  O   UNL     1      -5.621   1.056  26.024  0.00  0.00    -0.270 OA
ATOM      7  N   UNL     1      -4.624   0.874  25.017  0.00  0.00    -0.268 N 
ATOM      8  C   UNL     1      -4.521   0.066  25.143  0.00  0.00    +0.116 C 
ATOM      9  C   UNL     1      -3.949  -0.204  24.612  0.00  0.00    +0.119 C 
ATOM     10  C   UNL     1      -3.699   0.439  24.159  0.00  0.00    +0.053 C 
ATOM     11  C   UNL     1      -4.116   1.105  24.409  0.00  0.00    +0.156 C 
ENDROOT
BRANCH   5   4
ATOM      1  C   UNL     1      -6.092   2.374  26.326  0.00  0.00    +0.027 C 
ATOM      2  C   UNL     1      -5.661   2.672  25.688  0.00  0.00    -0.039 C 
ATOM      3  C   UNL     1      -5.704   3.475  25.501  0.00  0.00    +0.027 C 
ATOM      4  C   UNL     1      -5.187   2.168  25.239  0.00  0.00    +0.049 C 
ENDBRANCH   5   4
BRANCH   9  29
ATOM     29  N   UNL     1      -3.675  -0.980  24.547  0.00  0.00    -0.187 NA
ATOM     30  C   UNL     1      -4.149  -1.556  24.194  0.00  0.00    +0.344 C 
ATOM     31  O   UNL     1      -4.896  -1.356  23.907  0.00  0.00    -0.249 OA
ATOM     32  N   UNL     1      -3.876  -2.332  24.129  0.00  0.00    -0.159 NA
BRANCH  32  33
ATOM     33  C   UNL     1      -3.129  -2.531  24.417  0.00  0.00    +0.102 A 
ATOM     34  C   UNL     1      -3.058  -2.973  25.110  0.00  0.00    +0.158 A 
ATOM     35  F   UNL     1      -3.734  -3.214  25.516  0.00  0.00    -0.203 F 
ATOM     36  C   UNL     1      -2.311  -3.173  25.398  0.00  0.00    +0.061 A 
ATOM     37  C   UNL     1      -1.635  -2.930  24.992  0.00  0.00    +0.142 A 
ATOM     38  F   UNL     1      -0.888  -3.129  25.279  0.00  0.00    -0.204 F 
ATOM     39  C   UNL     1      -1.706  -2.489  24.299  0.00  0.00    +0.031 A 
ATOM     40  C   UNL     1      -2.453  -2.289  24.011  0.00  0.00    +0.021 A 
ENDBRANCH  32  33
ENDBRANCH   9  29
BRANCH  11  12
ATOM     12  C   UNL     1      -4.039   1.868  24.104  0.00  0.00    +0.260 C 
ATOM     13  O   UNL     1      -4.701   2.355  24.040  0.00  0.00    -0.272 OA
ATOM     14  N   UNL     1      -3.299   2.143  23.864  0.00  0.00    -0.196 NA
BRANCH  14  15
ATOM     15  C   UNL     1      -3.222   2.906  23.559  0.00  0.00    +0.179 C 
BRANCH  15  26
ATOM     26  C   UNL     1      -3.418   3.056  22.772  0.00  0.00    +0.281 C 
ATOM     27  N   UNL     1      -3.072   2.615  22.168  0.00  0.00    -0.086 NA
ATOM     28  O   UNL     1      -3.962   3.650  22.590  0.00  0.00    -0.270 OA
ENDBRANCH  15  26
BRANCH  15  16
ATOM     16  C   UNL     1      -2.950   3.517  24.042  0.00  0.00    +0.059 C 
BRANCH  16  17
ATOM     17  C   UNL     1      -2.148   3.570  24.228  0.00  0.00    +0.001 A 
ATOM     18  C   UNL     1      -1.581   2.983  24.103  0.00  0.00    +0.095 A 
ATOM     19  N   UNL     1      -0.855   3.269  24.370  0.00  0.00    -0.244 NA
ATOM     20  C   UNL     1      -0.973   4.032  24.660  0.00  0.00    +0.081 A 
ATOM     21  C   UNL     1      -1.772   4.218  24.572  0.00  0.00    +0.015 A 
ATOM     22  C   UNL     1      -2.053   4.954  24.818  0.00  0.00    +0.001 A 
ATOM     23  C   UNL     1      -1.537   5.503  25.150  0.00  0.00    +0.000 A 
ATOM     24  C   UNL     1      -0.738   5.318  25.238  0.00  0.00    +0.002 A 
ATOM     25  C   UNL     1      -0.455   4.582  24.993  0.00  0.00    +0.019 A 
ENDBRANCH  16  17
ENDBRANCH  15  16
ENDBRANCH  14  15
ENDBRANCH  11  12
TORSDOF 8
ENDMDL
MODEL 6
REMARK VINA RESULT:     -10.2      2.207      3.029
REMARK  Name = 
REMARK  8 active torsions:
REMARK  status: ('A' for Active; 'I' for Inactive)
REMARK    1  A    between atoms: C_4  and  C_5
REMARK    2  A    between atoms: C_9  and  N_29
REMARK    3  A    between atoms: C_11  and  C_12
REMARK    4  A    between atoms: N_14  and  C_15
REMARK    5  A    between atoms: C_15  and  C_16
REMARK    6  A    between atoms: C_15  and  C_26
REMARK    7  A    between atoms: C_16  and  C_17
REMARK    8  A    between atoms: N_32  and  C_33
REMARK                            x       y       z     vdW  Elec       q    Type
REMARK                         _______ _______ _______ _____ _____    ______ ____
ROOT
ATOM      5  C   UNL     1      -0.747   1.642  25.477  0.00  0.00    +0.249 C 
ATOM      6  O   UNL     1      -0.227   1.486  26.099  0.00  0.00    -0.270 OA
ATOM      7  N   UNL     1      -1.155   1.023  25.117  0.00  0.00    -0.268 N 
ATOM      8  C   UNL     1      -1.101   0.225  25.317  0.00  0.00    +0.116 C 
ATOM      9  C   UNL     1      -1.603  -0.198  24.816  0.00  0.00    +0.119 C 
ATOM     10  C   UNL     1      -1.967   0.339  24.306  0.00  0.00    +0.053 C 
ATOM     11  C   UNL     1      -1.690   1.094  24.492  0.00  0.00    +0.156 C 
ENDROOT
BRANCH   5   4
ATOM      1  C   UNL     1       0.007   2.889  26.251  0.00  0.00    +0.027 C 
ATOM      2  C   UNL     1      -0.481   3.040  25.603  0.00  0.00    -0.039 C 
ATOM      3  C   UNL     1      -0.591   3.815  25.342  0.00  0.00    +0.027 C 
ATOM      4  C   UNL     1      -0.857   2.417  25.216  0.00  0.00    +0.049 C 
ENDBRANCH   5   4
BRANCH   9  29
ATOM     29  N   UNL     1      -1.720  -1.015  24.824  0.00  0.00    -0.187 NA
ATOM     30  C   UNL     1      -1.083  -1.522  24.961  0.00  0.00    +0.344 C 
ATOM     31  O   UNL     1      -0.330  -1.211  25.091  0.00  0.00    -0.249 OA
ATOM     32  N   UNL     1      -1.200  -2.339  24.969  0.00  0.00    -0.159 NA
BRANCH  32  33
ATOM     33  C   UNL     1      -1.953  -2.649  24.840  0.00  0.00    +0.102 A 
ATOM     34  C   UNL     1      -2.109  -3.082  24.155  0.00  0.00    +0.158 A 
ATOM     35  F   UNL     1      -1.512  -3.205  23.600  0.00  0.00    -0.203 F 
ATOM     36  C   UNL     1      -2.863  -3.393  24.025  0.00  0.00    +0.061 A 
ATOM     37  C   UNL     1      -3.460  -3.269  24.581  0.00  0.00    +0.142 A 
ATOM     38  F   UNL     1      -4.214  -3.579  24.452  0.00  0.00    -0.204 F 
ATOM     39  C   UNL     1      -3.304  -2.836  25.265  0.00  0.00    +0.031 A 
ATOM     40  C   UNL     1      -2.551  -2.525  25.395  0.00  0.00    +0.021 A 
ENDBRANCH  32  33
ENDBRANCH   9  29
BRANCH  11  12
ATOM     12  C   UNL     1      -1.910   1.796  24.119  0.00  0.00    +0.260 C 
ATOM     13  O   UNL     1      -1.352   2.393  24.002  0.00  0.00    -0.272 OA
ATOM     14  N   UNL     1      -2.687   1.902  23.862  0.00  0.00    -0.196 NA
BRANCH  14  15
ATOM     15  C   UNL     1      -2.906   2.603  23.489  0.00  0.00    +0.179 C 
BRANCH  15  26
ATOM     26  C   UNL     1      -2.684   2.740  22.706  0.00  0.00    +0.281 C 
ATOM     27  N   UNL     1      -2.736   2.135  22.150  0.00  0.00    -0.086 NA
ATOM     28  O   UNL     1      -2.408   3.486  22.481  0.00  0.00    -0.270 OA
ENDBRANCH  15  26
BRANCH  15  16
ATOM     16  C   UNL     1      -3.347   3.168  23.898  0.00  0.00    +0.059 C 
BRANCH  16  17
ATOM     17  C   UNL     1      -4.090   2.974  24.197  0.00  0.00    +0.001 A 
ATOM     18  C   UNL     1      -4.628   2.447  23.858  0.00  0.00    +0.095 A 
ATOM     19  N   UNL     1      -5.297   2.421  24.339  0.00  0.00    -0.244 NA
ATOM     20  C   UNL     1      -5.174   2.930  24.975  0.00  0.00    +0.081 A 
ATOM     21  C   UNL     1      -4.428   3.273  24.887  0.00  0.00    +0.015 A 
ATOM     22  C   UNL     1      -4.154   3.812  25.448  0.00  0.00    +0.001 A 
ATOM     23  C   UNL     1      -4.624   4.009  26.096  0.00  0.00    +0.000 A 
ATOM     24  C   UNL     1      -5.370   3.667  26.184  0.00  0.00    +0.002 A 
ATOM     25  C   UNL     1      -5.645   3.127  25.624  0.00  0.00    +0.019 A 
ENDBRANCH  16  17
ENDBRANCH  15  16
ENDBRANCH  14  15
ENDBRANCH  11  12
TORSDOF 8
ENDMDL
MODEL 7
REMARK VINA RESULT:     -10.0      2.735      5.043
REMARK  Name = 
REMARK  8 active torsions:
REMARK  status: ('A' for Active; 'I' for Inactive)
REMARK    1  A    between atoms: C_4  and  C_5
REMARK    2  A    between atoms: C_9  and  N_29
REMARK    3  A    between atoms: C_11  and  C_12
REMARK    4  A    between atoms: N_14  and  C_15
REMARK    5  A    between atoms: C_15  and  C_16
REMARK    6  A    between atoms: C_15  and  C_26
REMARK    7  A    between atoms: C_16  and  C_17
REMARK    8  A    between atoms: N_32  and  C_33
REMARK                            x       y       z     vdW  Elec       q    Type
REMARK                         _______ _______ _______ _____ _____    ______ ____
ROOT
ATOM      5  C   UNL     1      -3.832  -1.303  24.281  0.00  0.00    +0.249 C 
ATOM      6  O   UNL     1      -4.623  -1.534  24.231  0.00  0.00    -0.270 OA
ATOM      7  N   UNL     1      -3.639  -0.503  24.335  0.00  0.00    -0.268 N 
ATOM      8  C   UNL     1      -4.173   0.125  24.345  0.00  0.00    +0.116 C 
ATOM      9  C   UNL     1      -3.741   0.826  24.405  0.00  0.00    +0.119 C 
ATOM     10  C   UNL     1      -2.940   0.630  24.431  0.00  0.00    +0.053 C 
ATOM     11  C   UNL     1      -2.877  -0.191  24.388  0.00  0.00    +0.156 C 
ENDROOT
BRANCH   5   4
ATOM      1  C   UNL     1      -4.222  -2.906  24.225  0.00  0.00    +0.027 C 
ATOM      2  C   UNL     1      -3.430  -2.674  24.249  0.00  0.00    -0.039 C 
ATOM      3  C   UNL     1      -2.833  -3.244  24.244  0.00  0.00    +0.027 C 
ATOM      4  C   UNL     1      -3.236  -1.872  24.276  0.00  0.00    +0.049 C 
ENDBRANCH   5   4
BRANCH   9  29
ATOM     29  N   UNL     1      -4.055   1.589  24.434  0.00  0.00    -0.187 NA
ATOM     30  C   UNL     1      -3.959   2.098  23.792  0.00  0.00    +0.344 C 
ATOM     31  O   UNL     1      -3.548   1.846  23.122  0.00  0.00    -0.249 OA
ATOM     32  N   UNL     1      -4.273   2.861  23.820  0.00  0.00    -0.159 NA
BRANCH  32  33
ATOM     33  C   UNL     1      -4.684   3.113  24.490  0.00  0.00    +0.102 A 
ATOM     34  C   UNL     1      -4.387   3.734  24.945  0.00  0.00    +0.158 A 
ATOM     35  F   UNL     1      -3.681   4.103  24.732  0.00  0.00    -0.203 F 
ATOM     36  C   UNL     1      -4.798   3.987  25.616  0.00  0.00    +0.061 A 
ATOM     37  C   UNL     1      -5.504   3.618  25.829  0.00  0.00    +0.142 A 
ATOM     38  F   UNL     1      -5.915   3.870  26.499  0.00  0.00    -0.204 F 
ATOM     39  C   UNL     1      -5.800   2.998  25.374  0.00  0.00    +0.031 A 
ATOM     40  C   UNL     1      -5.389   2.745  24.704  0.00  0.00    +0.021 A 
ENDBRANCH  32  33
ENDBRANCH   9  29
BRANCH  11  12
ATOM     12  C   UNL     1      -2.175  -0.625  24.396  0.00  0.00    +0.260 C 
ATOM     13  O   UNL     1      -2.141  -1.361  24.026  0.00  0.00    -0.272 OA
ATOM     14  N   UNL     1      -1.507  -0.322  24.775  0.00  0.00    -0.196 NA
BRANCH  14  15
ATOM     15  C   UNL     1      -0.806  -0.755  24.783  0.00  0.00    +0.179 C 
BRANCH  15  26
ATOM     26  C   UNL     1      -0.596  -1.187  25.455  0.00  0.00    +0.281 C 
ATOM     27  N   UNL     1      -0.761  -0.889  26.205  0.00  0.00    -0.086 NA
ATOM     28  O   UNL     1      -0.220  -1.917  25.374  0.00  0.00    -0.270 OA
ENDBRANCH  15  26
BRANCH  15  16
ATOM     16  C   UNL     1      -0.314  -0.758  24.120  0.00  0.00    +0.059 C 
BRANCH  16  17
ATOM     17  C   UNL     1       0.190  -0.121  23.977  0.00  0.00    +0.001 A 
ATOM     18  C   UNL     1       0.177   0.605  24.370  0.00  0.00    +0.095 A 
ATOM     19  N   UNL     1       0.775   1.077  24.052  0.00  0.00    -0.244 NA
ATOM     20  C   UNL     1       1.156   0.643  23.464  0.00  0.00    +0.081 A 
ATOM     21  C   UNL     1       0.794  -0.097  23.417  0.00  0.00    +0.015 A 
ATOM     22  C   UNL     1       1.063  -0.653  22.870  0.00  0.00    +0.001 A 
ATOM     23  C   UNL     1       1.693  -0.470  22.371  0.00  0.00    +0.000 A 
ATOM     24  C   UNL     1       2.054   0.270  22.417  0.00  0.00    +0.002 A 
ATOM     25  C   UNL     1       1.786   0.827  22.963  0.00  0.00    +0.019 A 
ENDBRANCH  16  17
ENDBRANCH  15  16
ENDBRANCH  14  15
ENDBRANCH  11  12
TORSDOF 8
ENDMDL
MODEL 8
REMARK VINA RESULT:      -8.2     14.916     17.489
REMARK  Name = 
REMARK  8 active torsions:
REMARK  status: ('A' for Active; 'I' for Inactive)
REMARK    1  A    between atoms: C_4  and  C_5
REMARK    2  A    between atoms: C_9  and  N_29
REMARK    3  A    between atoms: C_11  and  C_12
REMARK    4  A    between atoms: N_14  and  C_15
REMARK    5  A    between atoms: C_15  and  C_16
REMARK    6  A    between atoms: C_15  and  C_26
REMARK    7  A    between atoms: C_16  and  C_17
REMARK    8  A    between atoms: N_32  and  C_33
REMARK                            x       y       z     vdW  Elec       q    Type
REMARK                         _______ _______ _______ _____ _____    ______ ____
ROOT
ATOM      5  C   UNL     1      15.224   6.801  18.810  0.00  0.00    +0.249 C 
ATOM      6  O   UNL     1      15.686   6.510  18.192  0.00  0.00    -0.270 OA
ATOM      7  N   UNL     1      14.568   7.273  18.647  0.00  0.00    -0.268 N 
ATOM      8  C   UNL     1      14.307   7.500  17.898  0.00  0.00    +0.116 C 
ATOM      9  C   UNL     1      13.635   7.969  17.993  0.00  0.00    +0.119 C 
ATOM     10  C   UNL     1      13.480   8.032  18.801  0.00  0.00    +0.053 C 
ATOM     11  C   UNL     1      14.056   7.602  19.205  0.00  0.00    +0.156 C 
ENDROOT
BRANCH   5   4
ATOM      1  C   UNL     1      16.606   5.964  19.144  0.00  0.00    +0.027 C 
ATOM      2  C   UNL     1      16.108   6.201  19.758  0.00  0.00    -0.039 C 
ATOM      3  C   UNL     1      16.302   6.019  20.539  0.00  0.00    +0.027 C 
ATOM      4  C   UNL     1      15.417   6.619  19.591  0.00  0.00    +0.049 C 
ENDBRANCH   5   4
BRANCH   9  29
ATOM     29  N   UNL     1      13.195   8.315  17.386  0.00  0.00    -0.187 NA
ATOM     30  C   UNL     1      13.576   8.748  16.796  0.00  0.00    +0.344 C 
ATOM     31  O   UNL     1      14.396   8.837  16.813  0.00  0.00    -0.249 OA
ATOM     32  N   UNL     1      13.136   9.094  16.189  0.00  0.00    -0.159 NA
BRANCH  32  33
ATOM     33  C   UNL     1      12.316   9.005  16.172  0.00  0.00    +0.102 A 
ATOM     34  C   UNL     1      11.916   9.004  15.450  0.00  0.00    +0.158 A 
ATOM     35  F   UNL     1      12.336   9.091  14.746  0.00  0.00    -0.203 F 
ATOM     36  C   UNL     1      11.096   8.915  15.433  0.00  0.00    +0.061 A 
ATOM     37  C   UNL     1      10.676   8.828  16.138  0.00  0.00    +0.142 A 
ATOM     38  F   UNL     1       9.856   8.739  16.121  0.00  0.00    -0.204 F 
ATOM     39  C   UNL     1      11.076   8.829  16.859  0.00  0.00    +0.031 A 
ATOM     40  C   UNL     1      11.896   8.918  16.876  0.00  0.00    +0.021 A 
ENDBRANCH  32  33
ENDBRANCH   9  29
BRANCH  11  12
ATOM     12  C   UNL     1      14.112   7.516  20.024  0.00  0.00    +0.260 C 
ATOM     13  O   UNL     1      14.492   6.858  20.344  0.00  0.00    -0.272 OA
ATOM     14  N   UNL     1      13.787   8.089  20.522  0.00  0.00    -0.196 NA
BRANCH  14  15
ATOM     15  C   UNL     1      13.842   8.002  21.340  0.00  0.00    +0.179 C 
BRANCH  15  26
ATOM     26  C   UNL     1      14.448   8.381  21.754  0.00  0.00    +0.281 C 
ATOM     27  N   UNL     1      14.718   8.070  22.467  0.00  0.00    -0.086 NA
ATOM     28  O   UNL     1      14.782   9.073  21.452  0.00  0.00    -0.270 OA
ENDBRANCH  15  26
BRANCH  15  16
ATOM     16  C   UNL     1      13.293   7.538  21.745  0.00  0.00    +0.059 C 
BRANCH  16  17
ATOM     17  C   UNL     1      12.529   7.819  21.872  0.00  0.00    +0.001 A 
ATOM     18  C   UNL     1      12.315   8.608  21.986  0.00  0.00    +0.095 A 
ATOM     19  N   UNL     1      11.497   8.637  22.092  0.00  0.00    -0.244 NA
ATOM     20  C   UNL     1      11.206   7.867  22.043  0.00  0.00    +0.081 A 
ATOM     21  C   UNL     1      11.844   7.362  21.907  0.00  0.00    +0.015 A 
ATOM     22  C   UNL     1      11.717   6.549  21.833  0.00  0.00    +0.001 A 
ATOM     23  C   UNL     1      10.954   6.243  21.895  0.00  0.00    +0.000 A 
ATOM     24  C   UNL     1      10.317   6.749  22.031  0.00  0.00    +0.002 A 
ATOM     25  C   UNL     1      10.442   7.561  22.105  0.00  0.00    +0.019 A 
ENDBRANCH  16  17
ENDBRANCH  15  16
ENDBRANCH  14  15
ENDBRANCH  11  12
TORSDOF 8
ENDMDL
