MODEL 1
REMARK VINA RESULT:     -12.9      0.000      0.000
REMARK  Name = 
REMARK  3 active torsions:
REMARK  status: ('A' for Active; 'I' for Inactive)
REMARK    1  A    between atoms: C_7  and  C_9
REMARK    2  A    between atoms: N_12  and  C_13
REMARK    3  A    between atoms: C_13  and  C_14
REMARK                            x       y       z     vdW  Elec       q    Type
REMARK                         _______ _______ _______ _____ _____    ______ ____
ROOT
ATOM      9  C   UNL     1      -4.510   0.971  24.895  0.00  0.00    +0.076 C 
ATOM     10  C   UNL     1      -5.161   1.272  25.302  0.00  0.00    +0.026 C 
ATOM     11  C   UNL     1      -5.173   2.090  25.197  0.00  0.00    +0.073 C 
ATOM     12  N   UNL     1      -4.529   2.295  24.724  0.00  0.00    -0.269 NA
ATOM     21  C   UNL     1      -4.119   1.603  24.537  0.00  0.00    +0.080 C 
ENDROOT
BRANCH   9   7
ATOM      1  C   UNL     1      -3.715  -3.160  23.927  0.00  0.00    +0.031 C 
ATOM      2  C   UNL     1      -3.737  -2.446  24.338  0.00  0.00    -0.020 A 
ATOM      3  C   UNL     1      -4.097  -1.786  24.000  0.00  0.00    +0.016 A 
ATOM      4  C   UNL     1      -4.119  -1.071  24.412  0.00  0.00    +0.100 A 
ATOM      5  C   UNL     1      -3.780  -1.017  25.162  0.00  0.00    +0.100 A 
ATOM      6  N   UNL     1      -3.885  -0.246  25.434  0.00  0.00    -0.229 NA
ATOM      7  C   UNL     1      -4.289   0.177  24.852  0.00  0.00    +0.140 A 
ATOM      8  N   UNL     1      -4.434  -0.334  24.221  0.00  0.00    -0.229 NA
ATOM     22  C   UNL     1      -3.419  -1.677  25.500  0.00  0.00    +0.020 A 
ATOM     23  C   UNL     1      -3.397  -2.391  25.088  0.00  0.00    -0.003 A 
ENDBRANCH   9   7
BRANCH  12  13
ATOM     13  C   UNL     1      -4.329   3.057  24.480  0.00  0.00    +0.099 C 
BRANCH  13  14
ATOM     14  C   UNL     1      -3.652   3.422  24.780  0.00  0.00    -0.006 A 
ATOM     15  C   UNL     1      -3.679   3.805  25.511  0.00  0.00    -0.002 A 
ATOM     16  C   UNL     1      -3.002   4.169  25.809  0.00  0.00    +0.011 A 
ATOM     17  C   UNL     1      -2.299   4.153  25.379  0.00  0.00    +0.058 A 
ATOM     18 CL   UNL     1      -1.623   4.518  25.678  0.00  0.00    -0.082 Cl
ATOM     19  C   UNL     1      -2.272   3.770  24.648  0.00  0.00    +0.011 A 
ATOM     20  C   UNL     1      -2.949   3.405  24.348  0.00  0.00    -0.002 A 
ENDBRANCH  13  14
ENDBRANCH  12  13
TORSDOF 3
ENDMDL
MODEL 2
REMARK VINA RESULT:     -12.7      1.945      5.194
REMARK  Name = 
REMARK  3 active torsions:
REMARK  status: ('A' for Active; 'I' for Inactive)
REMARK    1  A    between atoms: C_7  and  C_9
REMARK    2  A    between atoms: N_12  and  C_13
REMARK    3  A    between atoms: C_13  and  C_14
REMARK                            x       y       z     vdW  Elec       q    Type
REMARK                         _______ _______ _______ _____ _____    ______ ____
ROOT
ATOM      9  C   UNL     1      -3.190   1.659  24.335  0.00  0.00    +0.076 C 
ATOM     10  C   UNL     1      -3.182   1.313  23.586  0.00  0.00    +0.026 C 
ATOM     11  C   UNL     1      -3.630   0.622  23.619  0.00  0.00    +0.073 C 
ATOM     12  N   UNL     1      -3.916   0.540  24.389  0.00  0.00    -0.269 NA
ATOM     21  C   UNL     1      -3.643   1.182  24.831  0.00  0.00    +0.080 C 
ENDROOT
BRANCH   9   7
ATOM      1  C   UNL     1      -0.586   5.040  24.988  0.00  0.00    +0.031 C 
ATOM      2  C   UNL     1      -1.242   4.542  25.027  0.00  0.00    -0.020 A 
ATOM      3  C   UNL     1      -1.242   3.827  24.616  0.00  0.00    +0.016 A 
ATOM      4  C   UNL     1      -1.899   3.329  24.655  0.00  0.00    +0.100 A 
ATOM      5  C   UNL     1      -2.556   3.546  25.104  0.00  0.00    +0.100 A 
ATOM      6  N   UNL     1      -3.119   2.948  25.039  0.00  0.00    -0.229 NA
ATOM      7  C   UNL     1      -2.811   2.360  24.549  0.00  0.00    +0.140 A 
ATOM      8  N   UNL     1      -2.057   2.596  24.312  0.00  0.00    -0.229 NA
ATOM     22  C   UNL     1      -2.556   4.262  25.515  0.00  0.00    +0.020 A 
ATOM     23  C   UNL     1      -1.899   4.760  25.476  0.00  0.00    -0.003 A 
ENDBRANCH   9   7
BRANCH  12  13
ATOM     13  C   UNL     1      -4.390  -0.074  24.668  0.00  0.00    +0.099 C 
BRANCH  13  14
ATOM     14  C   UNL     1      -4.093  -0.844  24.699  0.00  0.00    -0.006 A 
ATOM     15  C   UNL     1      -3.671  -1.097  25.361  0.00  0.00    -0.002 A 
ATOM     16  C   UNL     1      -3.375  -1.866  25.391  0.00  0.00    +0.011 A 
ATOM     17  C   UNL     1      -3.500  -2.382  24.761  0.00  0.00    +0.058 A 
ATOM     18 CL   UNL     1      -3.204  -3.151  24.792  0.00  0.00    -0.082 Cl
ATOM     19  C   UNL     1      -3.923  -2.129  24.098  0.00  0.00    +0.011 A 
ATOM     20  C   UNL     1      -4.219  -1.360  24.067  0.00  0.00    -0.002 A 
ENDBRANCH  13  14
ENDBRANCH  12  13
TORSDOF 3
ENDMDL
MODEL 3
REMARK VINA RESULT:     -12.5      1.876      2.456
REMARK  Name = 
REMARK  3 active torsions:
REMARK  status: ('A' for Active; 'I' for Inactive)
REMARK    1  A    between atoms: C_7  and  C_9
REMARK    2  A    between atoms: N_12  and  C_13
REMARK    3  A    between atoms: C_13  and  C_14
REMARK                            x       y       z     vdW  Elec       q    Type
REMARK                         _______ _______ _______ _____ _____    ______ ____
ROOT
ATOM      9  C   UNL     1      -1.524   0.707  24.834  0.00  0.00    +0.076 C 
ATOM     10  C   UNL     1      -0.820   0.824  24.420  0.00  0.00    +0.026 C 
ATOM     11  C   UNL     1      -0.432   1.472  24.751  0.00  0.00    +0.073 C 
ATOM     12  N   UNL     1      -0.896   1.756  25.371  0.00  0.00    -0.269 NA
ATOM     21  C   UNL     1      -1.571   1.284  25.422  0.00  0.00    +0.080 C 
ENDROOT
BRANCH   9   7
ATOM      1  C   UNL     1      -3.855  -2.890  24.325  0.00  0.00    +0.031 C 
ATOM      2  C   UNL     1      -3.640  -2.094  24.327  0.00  0.00    -0.020 A 
ATOM      3  C   UNL     1      -2.888  -1.871  24.581  0.00  0.00    +0.016 A 
ATOM      4  C   UNL     1      -2.672  -1.074  24.584  0.00  0.00    +0.100 A 
ATOM      5  C   UNL     1      -3.210  -0.501  24.333  0.00  0.00    +0.100 A 
ATOM      6  N   UNL     1      -2.845   0.236  24.396  0.00  0.00    -0.229 NA
ATOM      7  C   UNL     1      -2.082   0.119  24.686  0.00  0.00    +0.140 A 
ATOM      8  N   UNL     1      -1.976  -0.691  24.802  0.00  0.00    -0.229 NA
ATOM     22  C   UNL     1      -3.963  -0.724  24.079  0.00  0.00    +0.020 A 
ATOM     23  C   UNL     1      -4.178  -1.521  24.076  0.00  0.00    -0.003 A 
ENDBRANCH   9   7
BRANCH  12  13
ATOM     13  C   UNL     1      -0.717   2.399  25.855  0.00  0.00    +0.099 C 
BRANCH  13  14
ATOM     14  C   UNL     1      -0.970   3.157  25.646  0.00  0.00    -0.006 A 
ATOM     15  C   UNL     1      -1.701   3.435  25.908  0.00  0.00    -0.002 A 
ATOM     16  C   UNL     1      -1.953   4.192  25.698  0.00  0.00    +0.011 A 
ATOM     17  C   UNL     1      -1.474   4.671  25.228  0.00  0.00    +0.058 A 
ATOM     18 CL   UNL     1      -1.726   5.428  25.019  0.00  0.00    -0.082 Cl
ATOM     19  C   UNL     1      -0.742   4.393  24.966  0.00  0.00    +0.011 A 
ATOM     20  C   UNL     1      -0.490   3.635  25.175  0.00  0.00    -0.002 A 
ENDBRANCH  13  14
ENDBRANCH  12  13
TORSDOF 3
ENDMDL
