MODEL 1
REMARK VINA RESULT:     -10.1      0.000      0.000
REMARK  Name = 
REMARK  8 active torsions:
REMARK  status: ('A' for Active; 'I' for Inactive)
REMARK    1  A    between atoms: O_2  and  C_3
REMARK    2  A    between atoms: C_3  and  C_4
REMARK    3  A    between atoms: C_6  and  C_7
REMARK    4  A    between atoms: C_7  and  C_8
REMARK    5  A    between atoms: C_13  and  C_14
REMARK    6  A    between atoms: C_14  and  N_15
REMARK    7  A    between atoms: N_18  and  C_19
REMARK    8  A    between atoms: C_22  and  O_23
REMARK                            x       y       z     vdW  Elec       q    Type
REMARK                         _______ _______ _______ _____ _____    ______ ____
ROOT
ATOM      8  C   UNL     1      -4.227   3.527  24.971  0.00  0.00    +0.121 C 
ATOM      9  C   UNL     1      -4.827   3.981  25.309  0.00  0.00    +0.033 C 
ATOM     10  C   UNL     1      -5.489   3.612  25.634  0.00  0.00    +0.038 C 
ATOM     11  C   UNL     1      -5.552   2.789  25.621  0.00  0.00    +0.181 C 
ATOM     12  O   UNL     1      -6.215   2.420  25.946  0.00  0.00    -0.220 OA
ATOM     13  C   UNL     1      -4.952   2.335  25.283  0.00  0.00    +0.167 C 
ATOM     27  O   UNL     1      -4.288   2.704  24.958  0.00  0.00    -0.354 OA
ENDROOT
BRANCH   8   7
ATOM      7  C   UNL     1      -3.564   3.895  24.646  0.00  0.00    +0.079 C 
BRANCH   7   6
ATOM      4  C   UNL     1      -1.602   3.687  25.464  0.00  0.00    +0.184 A 
ATOM      5  C   UNL     1      -2.172   3.494  24.899  0.00  0.00    +0.056 A 
ATOM      6  C   UNL     1      -2.856   3.920  25.072  0.00  0.00    +0.103 A 
ATOM     28  N   UNL     1      -2.711   4.375  25.745  0.00  0.00    -0.082 NA
ATOM     29  O   UNL     1      -1.935   4.231  25.987  0.00  0.00    -0.356 OA
BRANCH   4   3
ATOM      3  C   UNL     1      -0.834   3.387  25.501  0.00  0.00    +0.209 C 
BRANCH   3   2
ATOM      1  C   UNL     1       0.108   2.460  26.045  0.00  0.00    +0.175 C 
ATOM      2  O   UNL     1      -0.654   2.776  26.025  0.00  0.00    -0.343 OA
ENDBRANCH   3   2
ENDBRANCH   4   3
ENDBRANCH   7   6
ENDBRANCH   8   7
BRANCH  13  14
ATOM     14  C   UNL     1      -5.014   1.512  25.270  0.00  0.00    +0.149 C 
BRANCH  14  15
ATOM     15  N   UNL     1      -4.734   1.088  24.621  0.00  0.00    -0.184 NA
ATOM     16  C   UNL     1      -4.420   0.333  24.727  0.00  0.00    +0.344 C 
ATOM     17  O   UNL     1      -4.386   0.002  25.481  0.00  0.00    -0.249 OA
ATOM     18  N   UNL     1      -4.139  -0.092  24.077  0.00  0.00    -0.161 NA
BRANCH  18  19
ATOM     19  C   UNL     1      -3.825  -0.847  24.183  0.00  0.00    +0.075 A 
ATOM     20  C   UNL     1      -4.274  -1.512  23.986  0.00  0.00    +0.020 A 
ATOM     21  C   UNL     1      -3.960  -2.267  24.092  0.00  0.00    +0.038 A 
ATOM     22  C   UNL     1      -3.199  -2.359  24.394  0.00  0.00    +0.139 A 
ATOM     25  C   UNL     1      -2.750  -1.695  24.591  0.00  0.00    +0.038 A 
ATOM     26  C   UNL     1      -3.064  -0.939  24.485  0.00  0.00    +0.020 A 
BRANCH  22  23
ATOM     23  O   UNL     1      -2.885  -3.115  24.500  0.00  0.00    -0.471 OA
ATOM     24  C   UNL     1      -2.080  -3.246  24.384  0.00  0.00    +0.252 C 
ENDBRANCH  22  23
ENDBRANCH  18  19
ENDBRANCH  14  15
ENDBRANCH  13  14
TORSDOF 8
ENDMDL
MODEL 2
REMARK VINA RESULT:     -10.1      1.392      3.253
REMARK  Name = 
REMARK  8 active torsions:
REMARK  status: ('A' for Active; 'I' for Inactive)
REMARK    1  A    between atoms: O_2  and  C_3
REMARK    2  A    between atoms: C_3  and  C_4
REMARK    3  A    between atoms: C_6  and  C_7
REMARK    4  A    between atoms: C_7  and  C_8
REMARK    5  A    between atoms: C_13  and  C_14
REMARK    6  A    between atoms: C_14  and  N_15
REMARK    7  A    between atoms: N_18  and  C_19
REMARK    8  A    between atoms: C_22  and  O_23
REMARK                            x       y       z     vdW  Elec       q    Type
REMARK                         _______ _______ _______ _____ _____    ______ ____
ROOT
ATOM      8  C   UNL     1      -1.873   3.606  25.438  0.00  0.00    +0.121 C 
ATOM      9  C   UNL     1      -1.247   4.103  25.233  0.00  0.00    +0.033 C 
ATOM     10  C   UNL     1      -0.586   3.796  24.847  0.00  0.00    +0.038 C 
ATOM     11  C   UNL     1      -0.550   2.992  24.665  0.00  0.00    +0.181 C 
ATOM     12  O   UNL     1       0.111   2.685  24.278  0.00  0.00    -0.220 OA
ATOM     13  C   UNL     1      -1.176   2.495  24.870  0.00  0.00    +0.167 C 
ATOM     27  O   UNL     1      -1.838   2.802  25.257  0.00  0.00    -0.354 OA
ENDROOT
BRANCH   8   7
ATOM      7  C   UNL     1      -2.534   3.912  25.824  0.00  0.00    +0.079 C 
BRANCH   7   6
ATOM      4  C   UNL     1      -4.546   3.429  25.296  0.00  0.00    +0.184 A 
ATOM      5  C   UNL     1      -3.898   3.365  25.803  0.00  0.00    +0.056 A 
ATOM      6  C   UNL     1      -3.285   3.819  25.493  0.00  0.00    +0.103 A 
ATOM     28  N   UNL     1      -3.552   4.165  24.793  0.00  0.00    -0.082 NA
ATOM     29  O   UNL     1      -4.332   3.924  24.671  0.00  0.00    -0.356 OA
BRANCH   4   3
ATOM      3  C   UNL     1      -5.279   3.063  25.395  0.00  0.00    +0.209 C 
BRANCH   3   2
ATOM      1  C   UNL     1      -6.139   1.943  25.181  0.00  0.00    +0.175 C 
ATOM      2  O   UNL     1      -5.431   2.339  25.032  0.00  0.00    -0.343 OA
ENDBRANCH   3   2
ENDBRANCH   4   3
ENDBRANCH   7   6
ENDBRANCH   8   7
BRANCH  13  14
ATOM     14  C   UNL     1      -1.140   1.690  24.688  0.00  0.00    +0.149 C 
BRANCH  14  15
ATOM     15  N   UNL     1      -1.350   1.130  25.257  0.00  0.00    -0.184 NA
ATOM     16  C   UNL     1      -1.743   0.442  25.030  0.00  0.00    +0.344 C 
ATOM     17  O   UNL     1      -1.926   0.313  24.237  0.00  0.00    -0.249 OA
ATOM     18  N   UNL     1      -1.953  -0.119  25.599  0.00  0.00    -0.161 NA
BRANCH  18  19
ATOM     19  C   UNL     1      -2.346  -0.808  25.372  0.00  0.00    +0.075 A 
ATOM     20  C   UNL     1      -3.166  -0.860  25.452  0.00  0.00    +0.020 A 
ATOM     21  C   UNL     1      -3.559  -1.549  25.226  0.00  0.00    +0.038 A 
ATOM     22  C   UNL     1      -3.134  -2.185  24.920  0.00  0.00    +0.139 A 
ATOM     25  C   UNL     1      -2.315  -2.133  24.839  0.00  0.00    +0.038 A 
ATOM     26  C   UNL     1      -1.921  -1.444  25.066  0.00  0.00    +0.020 A 
BRANCH  22  23
ATOM     23  O   UNL     1      -3.528  -2.874  24.693  0.00  0.00    -0.471 OA
ATOM     24  C   UNL     1      -3.982  -2.881  24.004  0.00  0.00    +0.252 C 
ENDBRANCH  22  23
ENDBRANCH  18  19
ENDBRANCH  14  15
ENDBRANCH  13  14
TORSDOF 8
ENDMDL
MODEL 3
REMARK VINA RESULT:      -9.8      1.641      4.785
REMARK  Name = 
REMARK  8 active torsions:
REMARK  status: ('A' for Active; 'I' for Inactive)
REMARK    1  A    between atoms: O_2  and  C_3
REMARK    2  A    between atoms: C_3  and  C_4
REMARK    3  A    between atoms: C_6  and  C_7
REMARK    4  A    between atoms: C_7  and  C_8
REMARK    5  A    between atoms: C_13  and  C_14
REMARK    6  A    between atoms: C_14  and  N_15
REMARK    7  A    between atoms: N_18  and  C_19
REMARK    8  A    between atoms: C_22  and  O_23
REMARK                            x       y       z     vdW  Elec       q    Type
REMARK                         _______ _______ _______ _____ _____    ______ ____
ROOT
ATOM      8  C   UNL     1      -1.661  -1.673  24.875  0.00  0.00    +0.121 C 
ATOM      9  C   UNL     1      -1.716  -2.431  24.555  0.00  0.00    +0.033 C 
ATOM     10  C   UNL     1      -2.452  -2.736  24.343  0.00  0.00    +0.038 C 
ATOM     11  C   UNL     1      -3.134  -2.284  24.451  0.00  0.00    +0.181 C 
ATOM     12  O   UNL     1      -3.870  -2.589  24.239  0.00  0.00    -0.220 OA
ATOM     13  C   UNL     1      -3.079  -1.526  24.772  0.00  0.00    +0.167 C 
ATOM     27  O   UNL     1      -2.342  -1.220  24.984  0.00  0.00    -0.354 OA
ENDROOT
BRANCH   8   7
ATOM      7  C   UNL     1      -0.925  -1.366  25.088  0.00  0.00    +0.079 C 
BRANCH   7   6
ATOM      4  C   UNL     1      -0.214   0.483  24.291  0.00  0.00    +0.184 A 
ATOM      5  C   UNL     1      -0.596   0.052  24.882  0.00  0.00    +0.056 A 
ATOM      6  C   UNL     1      -0.599  -0.741  24.658  0.00  0.00    +0.103 A 
ATOM     28  N   UNL     1      -0.219  -0.802  23.927  0.00  0.00    -0.082 NA
ATOM     29  O   UNL     1       0.018  -0.044  23.701  0.00  0.00    -0.356 OA
BRANCH   4   3
ATOM      3  C   UNL     1      -0.087   1.299  24.290  0.00  0.00    +0.209 C 
BRANCH   3   2
ATOM      1  C   UNL     1      -0.600   2.631  24.217  0.00  0.00    +0.175 C 
ATOM      2  O   UNL     1      -0.723   1.815  24.194  0.00  0.00    -0.343 OA
ENDBRANCH   3   2
ENDBRANCH   4   3
ENDBRANCH   7   6
ENDBRANCH   8   7
BRANCH  13  14
ATOM     14  C   UNL     1      -3.760  -1.073  24.881  0.00  0.00    +0.149 C 
BRANCH  14  15
ATOM     15  N   UNL     1      -3.856  -0.367  24.465  0.00  0.00    -0.184 NA
ATOM     16  C   UNL     1      -4.222   0.277  24.827  0.00  0.00    +0.344 C 
ATOM     17  O   UNL     1      -4.491   0.216  25.604  0.00  0.00    -0.249 OA
ATOM     18  N   UNL     1      -4.318   0.984  24.411  0.00  0.00    -0.161 NA
BRANCH  18  19
ATOM     19  C   UNL     1      -4.684   1.628  24.774  0.00  0.00    +0.075 A 
ATOM     20  C   UNL     1      -5.506   1.646  24.852  0.00  0.00    +0.020 A 
ATOM     21  C   UNL     1      -5.871   2.291  25.214  0.00  0.00    +0.038 A 
ATOM     22  C   UNL     1      -5.417   2.916  25.499  0.00  0.00    +0.139 A 
ATOM     25  C   UNL     1      -4.596   2.899  25.421  0.00  0.00    +0.038 A 
ATOM     26  C   UNL     1      -4.229   2.254  25.058  0.00  0.00    +0.020 A 
BRANCH  22  23
ATOM     23  O   UNL     1      -5.783   3.561  25.861  0.00  0.00    -0.471 OA
ATOM     24  C   UNL     1      -5.732   4.310  25.519  0.00  0.00    +0.252 C 
ENDBRANCH  22  23
ENDBRANCH  18  19
ENDBRANCH  14  15
ENDBRANCH  13  14
TORSDOF 8
ENDMDL
MODEL 4
REMARK VINA RESULT:      -9.2      1.627      5.662
REMARK  Name = 
REMARK  8 active torsions:
REMARK  status: ('A' for Active; 'I' for Inactive)
REMARK    1  A    between atoms: O_2  and  C_3
REMARK    2  A    between atoms: C_3  and  C_4
REMARK    3  A    between atoms: C_6  and  C_7
REMARK    4  A    between atoms: C_7  and  C_8
REMARK    5  A    between atoms: C_13  and  C_14
REMARK    6  A    between atoms: C_14  and  N_15
REMARK    7  A    between atoms: N_18  and  C_19
REMARK    8  A    between atoms: C_22  and  O_23
REMARK                            x       y       z     vdW  Elec       q    Type
REMARK                         _______ _______ _______ _____ _____    ______ ____
ROOT
ATOM      8  C   UNL     1      -2.512  -1.345  25.152  0.00  0.00    +0.121 C 
ATOM      9  C   UNL     1      -2.179  -2.063  24.915  0.00  0.00    +0.033 C 
ATOM     10  C   UNL     1      -1.405  -2.085  24.634  0.00  0.00    +0.038 C 
ATOM     11  C   UNL     1      -0.961  -1.390  24.589  0.00  0.00    +0.181 C 
ATOM     12  O   UNL     1      -0.186  -1.412  24.308  0.00  0.00    -0.220 OA
ATOM     13  C   UNL     1      -1.294  -0.673  24.826  0.00  0.00    +0.167 C 
ATOM     27  O   UNL     1      -2.070  -0.651  25.107  0.00  0.00    -0.354 OA
ENDROOT
BRANCH   8   7
ATOM      7  C   UNL     1      -3.287  -1.322  25.433  0.00  0.00    +0.079 C 
BRANCH   7   6
ATOM      4  C   UNL     1      -4.685   0.173  24.827  0.00  0.00    +0.184 A 
ATOM      5  C   UNL     1      -4.146  -0.131  25.373  0.00  0.00    +0.056 A 
ATOM      6  C   UNL     1      -3.844  -0.835  25.068  0.00  0.00    +0.103 A 
ATOM     28  N   UNL     1      -4.195  -0.966  24.332  0.00  0.00    -0.082 NA
ATOM     29  O   UNL     1      -4.715  -0.343  24.184  0.00  0.00    -0.356 OA
BRANCH   4   3
ATOM      3  C   UNL     1      -5.118   0.871  24.909  0.00  0.00    +0.209 C 
BRANCH   3   2
ATOM      1  C   UNL     1      -5.174   2.299  24.915  0.00  0.00    +0.175 C 
ATOM      2  O   UNL     1      -4.739   1.601  24.846  0.00  0.00    -0.343 OA
ENDBRANCH   3   2
ENDBRANCH   4   3
ENDBRANCH   7   6
ENDBRANCH   8   7
BRANCH  13  14
ATOM     14  C   UNL     1      -0.851   0.022  24.781  0.00  0.00    +0.149 C 
BRANCH  14  15
ATOM     15  N   UNL     1      -0.909   0.586  25.379  0.00  0.00    -0.184 NA
ATOM     16  C   UNL     1      -0.915   1.389  25.189  0.00  0.00    +0.344 C 
ATOM     17  O   UNL     1      -0.863   1.627  24.402  0.00  0.00    -0.249 OA
ATOM     18  N   UNL     1      -0.973   1.954  25.788  0.00  0.00    -0.161 NA
BRANCH  18  19
ATOM     19  C   UNL     1      -0.979   2.757  25.598  0.00  0.00    +0.075 A 
ATOM     20  C   UNL     1      -1.692   3.173  25.591  0.00  0.00    +0.020 A 
ATOM     21  C   UNL     1      -1.698   3.976  25.400  0.00  0.00    +0.038 A 
ATOM     22  C   UNL     1      -0.994   4.362  25.217  0.00  0.00    +0.139 A 
ATOM     25  C   UNL     1      -0.281   3.946  25.224  0.00  0.00    +0.038 A 
ATOM     26  C   UNL     1      -0.274   3.143  25.414  0.00  0.00    +0.020 A 
BRANCH  22  23
ATOM     23  O   UNL     1      -1.000   5.165  25.026  0.00  0.00    -0.471 OA
ATOM     24  C   UNL     1      -1.707   5.590  25.057  0.00  0.00    +0.252 C 
ENDBRANCH  22  23
ENDBRANCH  18  19
ENDBRANCH  14  15
ENDBRANCH  13  14
TORSDOF 8
ENDMDL
