MODEL 1
REMARK VINA RESULT:     -11.2      0.000      0.000
REMARK  Name = 
REMARK  9 active torsions:
REMARK  status: ('A' for Active; 'I' for Inactive)
REMARK    1  A    between atoms: O_2  and  C_3
REMARK    2  A    between atoms: C_3  and  C_4
REMARK    3  A    between atoms: C_4  and  N_5
REMARK    4  A    between atoms: N_5  and  C_6
REMARK    5  A    between atoms: C_7  and  C_12
REMARK    6  A    between atoms: C_15  and  C_17
REMARK    7  A    between atoms: N_21  and  C_22
REMARK    8  A    between atoms: C_22  and  C_23
REMARK    9  A    between atoms: C_26  and  S_29
REMARK                            x       y       z     vdW  Elec       q    Type
REMARK                         _______ _______ _______ _____ _____    ______ ____
ROOT
ATOM     12  C   UNL     1      -2.907   3.408  24.574  0.00  0.00    +0.206 A 
ATOM     13  N   UNL     1      -3.283   3.409  23.839  0.00  0.00    -0.056 NA
ATOM     14  O   UNL     1      -3.926   2.894  23.881  0.00  0.00    -0.336 OA
ATOM     15  C   UNL     1      -3.948   2.575  24.641  0.00  0.00    +0.251 A 
ATOM     16  N   UNL     1      -3.318   2.892  25.069  0.00  0.00    -0.190 NA
ENDROOT
BRANCH  12   7
ATOM      6  C   UNL     1      -1.486   3.523  24.668  0.00  0.00    +0.151 A 
ATOM      7  C   UNL     1      -2.237   3.846  24.777  0.00  0.00    +0.072 A 
ATOM      8  C   UNL     1      -2.320   4.604  25.088  0.00  0.00    +0.008 A 
ATOM      9  C   UNL     1      -1.651   5.042  25.291  0.00  0.00    +0.021 A 
ATOM     10  C   UNL     1      -0.899   4.721  25.182  0.00  0.00    +0.100 A 
ATOM     11  N   UNL     1      -0.816   3.961  24.871  0.00  0.00    -0.228 NA
BRANCH   6   5
ATOM      5  N   UNL     1      -1.403   2.764  24.356  0.00  0.00    -0.218 NA
BRANCH   5   4
ATOM      4  C   UNL     1      -0.666   2.393  24.362  0.00  0.00    +0.146 C 
BRANCH   4   3
ATOM      3  C   UNL     1      -0.537   1.724  23.898  0.00  0.00    +0.166 C 
BRANCH   3   2
ATOM      1  C   UNL     1       0.025   0.420  23.741  0.00  0.00    +0.174 C 
ATOM      2  O   UNL     1      -0.159   1.065  24.220  0.00  0.00    -0.349 OA
ENDBRANCH   3   2
ENDBRANCH   4   3
ENDBRANCH   5   4
ENDBRANCH   6   5
ENDBRANCH  12   7
BRANCH  15  17
ATOM     17  C   UNL     1      -4.502   2.033  24.924  0.00  0.00    +0.138 C 
ATOM     18  C   UNL     1      -5.155   2.210  25.396  0.00  0.00    +0.027 C 
ATOM     19  C   UNL     1      -5.557   1.505  25.549  0.00  0.00    +0.019 C 
ATOM     20  C   UNL     1      -5.152   0.894  25.171  0.00  0.00    +0.073 C 
ATOM     21  N   UNL     1      -4.500   1.220  24.784  0.00  0.00    -0.263 NA
BRANCH  21  22
ATOM     22  C   UNL     1      -3.944   0.806  24.338  0.00  0.00    +0.099 C 
BRANCH  22  23
ATOM     23  C   UNL     1      -3.850  -0.006  24.447  0.00  0.00    -0.006 A 
ATOM     24  C   UNL     1      -3.355  -0.287  25.044  0.00  0.00    -0.002 A 
ATOM     25  C   UNL     1      -3.260  -1.099  25.153  0.00  0.00    +0.018 A 
ATOM     26  C   UNL     1      -3.659  -1.631  24.665  0.00  0.00    +0.106 A 
ATOM     27  C   UNL     1      -4.154  -1.350  24.067  0.00  0.00    +0.018 A 
ATOM     28  C   UNL     1      -4.249  -0.538  23.958  0.00  0.00    -0.002 A 
BRANCH  26  29
ATOM     29  S   UNL     1      -3.565  -2.443  24.774  0.00  0.00    +0.010 S 
ATOM     30  C   UNL     1      -3.470  -3.255  24.883  0.00  0.00    +0.182 C 
ATOM     31  O   UNL     1      -3.528  -2.329  25.591  0.00  0.00    -0.169 OA
ATOM     32  O   UNL     1      -3.602  -2.557  23.959  0.00  0.00    -0.169 OA
ENDBRANCH  26  29
ENDBRANCH  22  23
ENDBRANCH  21  22
ENDBRANCH  15  17
TORSDOF 9
ENDMDL
MODEL 2
REMARK VINA RESULT:     -10.6      1.233      3.056
REMARK  Name = 
REMARK  9 active torsions:
REMARK  status: ('A' for Active; 'I' for Inactive)
REMARK    1  A    between atoms: O_2  and  C_3
REMARK    2  A    between atoms: C_3  and  C_4
REMARK    3  A    between atoms: C_4  and  N_5
REMARK    4  A    between atoms: N_5  and  C_6
REMARK    5  A    between atoms: C_7  and  C_12
REMARK    6  A    between atoms: C_15  and  C_17
REMARK    7  A    between atoms: N_21  and  C_22
REMARK    8  A    between atoms: C_22  and  C_23
REMARK    9  A    between atoms: C_26  and  S_29
REMARK                            x       y       z     vdW  Elec       q    Type
REMARK                         _______ _______ _______ _____ _____    ______ ____
ROOT
ATOM     12  C   UNL     1      -1.053   2.988  25.359  0.00  0.00    +0.206 A 
ATOM     13  N   UNL     1      -0.909   2.608  26.078  0.00  0.00    -0.056 NA
ATOM     14  O   UNL     1      -0.714   1.823  25.916  0.00  0.00    -0.336 OA
ATOM     15  C   UNL     1      -0.737   1.718  25.098  0.00  0.00    +0.251 A 
ATOM     16  N   UNL     1      -0.946   2.438  24.754  0.00  0.00    -0.190 NA
ENDROOT
BRANCH  12   7
ATOM      6  C   UNL     1      -2.057   4.005  25.331  0.00  0.00    +0.151 A 
ATOM      7  C   UNL     1      -1.266   3.780  25.264  0.00  0.00    +0.072 A 
ATOM      8  C   UNL     1      -0.688   4.345  25.101  0.00  0.00    +0.008 A 
ATOM      9  C   UNL     1      -0.901   5.136  25.006  0.00  0.00    +0.021 A 
ATOM     10  C   UNL     1      -1.692   5.362  25.072  0.00  0.00    +0.100 A 
ATOM     11  N   UNL     1      -2.270   4.796  25.235  0.00  0.00    -0.228 NA
BRANCH   6   5
ATOM      5  N   UNL     1      -2.635   3.439  25.493  0.00  0.00    -0.218 NA
BRANCH   5   4
ATOM      4  C   UNL     1      -3.423   3.667  25.577  0.00  0.00    +0.146 C 
BRANCH   4   3
ATOM      3  C   UNL     1      -4.020   3.097  25.577  0.00  0.00    +0.166 C 
BRANCH   3   2
ATOM      1  C   UNL     1      -5.405   2.772  25.705  0.00  0.00    +0.174 C 
ATOM      2  O   UNL     1      -4.780   3.295  25.828  0.00  0.00    -0.349 OA
ENDBRANCH   3   2
ENDBRANCH   4   3
ENDBRANCH   5   4
ENDBRANCH   6   5
ENDBRANCH  12   7
BRANCH  15  17
ATOM     17  C   UNL     1      -0.578   1.016  24.695  0.00  0.00    +0.138 C 
ATOM     18  C   UNL     1       0.074   0.873  24.210  0.00  0.00    +0.027 C 
ATOM     19  C   UNL     1       0.012   0.102  23.920  0.00  0.00    +0.019 C 
ATOM     20  C   UNL     1      -0.679  -0.230  24.226  0.00  0.00    +0.073 C 
ATOM     21  N   UNL     1      -1.043   0.335  24.705  0.00  0.00    -0.263 NA
BRANCH  21  22
ATOM     22  C   UNL     1      -1.749   0.235  25.120  0.00  0.00    +0.099 C 
BRANCH  22  23
ATOM     23  C   UNL     1      -2.284  -0.348  24.890  0.00  0.00    -0.006 A 
ATOM     24  C   UNL     1      -2.894  -0.164  24.364  0.00  0.00    -0.002 A 
ATOM     25  C   UNL     1      -3.429  -0.748  24.134  0.00  0.00    +0.018 A 
ATOM     26  C   UNL     1      -3.356  -1.515  24.429  0.00  0.00    +0.106 A 
ATOM     27  C   UNL     1      -2.747  -1.699  24.954  0.00  0.00    +0.018 A 
ATOM     28  C   UNL     1      -2.211  -1.115  25.184  0.00  0.00    -0.002 A 
BRANCH  26  29
ATOM     29  S   UNL     1      -3.892  -2.099  24.199  0.00  0.00    +0.010 S 
ATOM     30  C   UNL     1      -4.428  -2.682  23.969  0.00  0.00    +0.182 C 
ATOM     31  O   UNL     1      -3.423  -2.672  24.562  0.00  0.00    -0.169 OA
ATOM     32  O   UNL     1      -4.361  -1.525  23.836  0.00  0.00    -0.169 OA
ENDBRANCH  26  29
ENDBRANCH  22  23
ENDBRANCH  21  22
ENDBRANCH  15  17
TORSDOF 9
ENDMDL
MODEL 3
REMARK VINA RESULT:     -10.4      2.153      5.682
REMARK  Name = 
REMARK  9 active torsions:
REMARK  status: ('A' for Active; 'I' for Inactive)
REMARK    1  A    between atoms: O_2  and  C_3
REMARK    2  A    between atoms: C_3  and  C_4
REMARK    3  A    between atoms: C_4  and  N_5
REMARK    4  A    between atoms: N_5  and  C_6
REMARK    5  A    between atoms: C_7  and  C_12
REMARK    6  A    between atoms: C_15  and  C_17
REMARK    7  A    between atoms: N_21  and  C_22
REMARK    8  A    between atoms: C_22  and  C_23
REMARK    9  A    between atoms: C_26  and  S_29
REMARK                            x       y       z     vdW  Elec       q    Type
REMARK                         _______ _______ _______ _____ _____    ______ ____
ROOT
ATOM     12  C   UNL     1      -2.262  -1.154  24.810  0.00  0.00    +0.206 A 
ATOM     13  N   UNL     1      -1.926  -1.147  25.563  0.00  0.00    -0.056 NA
ATOM     14  O   UNL     1      -1.272  -0.644  25.546  0.00  0.00    -0.336 OA
ATOM     15  C   UNL     1      -1.204  -0.340  24.781  0.00  0.00    +0.251 A 
ATOM     16  N   UNL     1      -1.817  -0.656  24.327  0.00  0.00    -0.190 NA
ENDROOT
BRANCH  12   7
ATOM      6  C   UNL     1      -3.669  -1.222  24.568  0.00  0.00    +0.151 A 
ATOM      7  C   UNL     1      -2.928  -1.585  24.580  0.00  0.00    +0.072 A 
ATOM      8  C   UNL     1      -2.852  -2.376  24.363  0.00  0.00    +0.008 A 
ATOM      9  C   UNL     1      -3.517  -2.807  24.134  0.00  0.00    +0.021 A 
ATOM     10  C   UNL     1      -4.258  -2.445  24.121  0.00  0.00    +0.100 A 
ATOM     11  N   UNL     1      -4.334  -1.652  24.338  0.00  0.00    -0.228 NA
BRANCH   6   5
ATOM      5  N   UNL     1      -3.745  -0.430  24.785  0.00  0.00    -0.218 NA
BRANCH   5   4
ATOM      4  C   UNL     1      -4.464  -0.040  24.679  0.00  0.00    +0.146 C 
BRANCH   4   3
ATOM      3  C   UNL     1      -4.620   0.657  25.091  0.00  0.00    +0.166 C 
BRANCH   3   2
ATOM      1  C   UNL     1      -5.295   1.916  25.130  0.00  0.00    +0.174 C 
ATOM      2  O   UNL     1      -4.952   1.303  24.698  0.00  0.00    -0.349 OA
ENDBRANCH   3   2
ENDBRANCH   4   3
ENDBRANCH   5   4
ENDBRANCH   6   5
ENDBRANCH  12   7
BRANCH  15  17
ATOM     17  C   UNL     1      -0.627   0.186  24.518  0.00  0.00    +0.138 C 
ATOM     18  C   UNL     1      -0.029   0.017  23.974  0.00  0.00    +0.027 C 
ATOM     19  C   UNL     1       0.423   0.701  23.872  0.00  0.00    +0.019 C 
ATOM     20  C   UNL     1       0.104   1.291  24.351  0.00  0.00    +0.073 C 
ATOM     21  N   UNL     1      -0.545   0.973  24.750  0.00  0.00    -0.263 NA
BRANCH  21  22
ATOM     22  C   UNL     1      -1.026   1.373  25.288  0.00  0.00    +0.099 C 
BRANCH  22  23
ATOM     23  C   UNL     1      -1.101   2.193  25.245  0.00  0.00    -0.006 A 
ATOM     24  C   UNL     1      -1.612   2.532  24.692  0.00  0.00    -0.002 A 
ATOM     25  C   UNL     1      -1.687   3.352  24.649  0.00  0.00    +0.018 A 
ATOM     26  C   UNL     1      -1.252   3.834  25.158  0.00  0.00    +0.106 A 
ATOM     27  C   UNL     1      -0.741   3.495  25.711  0.00  0.00    +0.018 A 
ATOM     28  C   UNL     1      -0.666   2.674  25.754  0.00  0.00    -0.002 A 
BRANCH  26  29
ATOM     29  S   UNL     1      -1.326   4.654  25.115  0.00  0.00    +0.010 S 
ATOM     30  C   UNL     1      -1.401   5.474  25.072  0.00  0.00    +0.182 C 
ATOM     31  O   UNL     1      -2.025   4.614  25.553  0.00  0.00    -0.169 OA
ATOM     32  O   UNL     1      -0.629   4.695  24.678  0.00  0.00    -0.169 OA
ENDBRANCH  26  29
ENDBRANCH  22  23
ENDBRANCH  21  22
ENDBRANCH  15  17
TORSDOF 9
ENDMDL
MODEL 4
REMARK VINA RESULT:     -10.2      2.120      4.958
REMARK  Name = 
REMARK  9 active torsions:
REMARK  status: ('A' for Active; 'I' for Inactive)
REMARK    1  A    between atoms: O_2  and  C_3
REMARK    2  A    between atoms: C_3  and  C_4
REMARK    3  A    between atoms: C_4  and  N_5
REMARK    4  A    between atoms: N_5  and  C_6
REMARK    5  A    between atoms: C_7  and  C_12
REMARK    6  A    between atoms: C_15  and  C_17
REMARK    7  A    between atoms: N_21  and  C_22
REMARK    8  A    between atoms: C_22  and  C_23
REMARK    9  A    between atoms: C_26  and  S_29
REMARK                            x       y       z     vdW  Elec       q    Type
REMARK                         _______ _______ _______ _____ _____    ______ ____
ROOT
ATOM     12  C   UNL     1      -3.898  -0.823  24.900  0.00  0.00    +0.206 A 
ATOM     13  N   UNL     1      -3.949  -0.669  25.709  0.00  0.00    -0.056 NA
ATOM     14  O   UNL     1      -4.152   0.126  25.804  0.00  0.00    -0.336 OA
ATOM     15  C   UNL     1      -4.226   0.462  25.054  0.00  0.00    +0.251 A 
ATOM     16  N   UNL     1      -4.069  -0.125  24.495  0.00  0.00    -0.190 NA
ENDROOT
BRANCH  12   7
ATOM      6  C   UNL     1      -2.921  -1.791  24.511  0.00  0.00    +0.151 A 
ATOM      7  C   UNL     1      -3.709  -1.549  24.556  0.00  0.00    +0.072 A 
ATOM      8  C   UNL     1      -4.306  -2.032  24.257  0.00  0.00    +0.008 A 
ATOM      9  C   UNL     1      -4.117  -2.757  23.913  0.00  0.00    +0.021 A 
ATOM     10  C   UNL     1      -3.330  -3.000  23.868  0.00  0.00    +0.100 A 
ATOM     11  N   UNL     1      -2.732  -2.517  24.168  0.00  0.00    -0.228 NA
BRANCH   6   5
ATOM      5  N   UNL     1      -2.323  -1.308  24.810  0.00  0.00    -0.218 NA
BRANCH   5   4
ATOM      4  C   UNL     1      -1.534  -1.472  24.635  0.00  0.00    +0.146 C 
BRANCH   4   3
ATOM      3  C   UNL     1      -0.942  -0.949  24.870  0.00  0.00    +0.166 C 
BRANCH   3   2
ATOM      1  C   UNL     1       0.043  -0.171  24.187  0.00  0.00    +0.174 C 
ATOM      2  O   UNL     1      -0.237  -0.902  24.442  0.00  0.00    -0.349 OA
ENDBRANCH   3   2
ENDBRANCH   4   3
ENDBRANCH   5   4
ENDBRANCH   6   5
ENDBRANCH  12   7
BRANCH  15  17
ATOM     17  C   UNL     1      -4.423   1.246  24.891  0.00  0.00    +0.138 C 
ATOM     18  C   UNL     1      -5.176   1.529  24.706  0.00  0.00    +0.027 C 
ATOM     19  C   UNL     1      -5.119   2.343  24.585  0.00  0.00    +0.019 C 
ATOM     20  C   UNL     1      -4.332   2.564  24.696  0.00  0.00    +0.073 C 
ATOM     21  N   UNL     1      -3.901   1.885  24.885  0.00  0.00    -0.263 NA
BRANCH  21  22
ATOM     22  C   UNL     1      -3.092   1.853  25.041  0.00  0.00    +0.099 C 
BRANCH  22  23
ATOM     23  C   UNL     1      -2.642   2.544  25.030  0.00  0.00    -0.006 A 
ATOM     24  C   UNL     1      -2.589   3.012  25.708  0.00  0.00    -0.002 A 
ATOM     25  C   UNL     1      -2.139   3.703  25.698  0.00  0.00    +0.018 A 
ATOM     26  C   UNL     1      -1.742   3.926  25.011  0.00  0.00    +0.106 A 
ATOM     27  C   UNL     1      -1.794   3.459  24.333  0.00  0.00    +0.018 A 
ATOM     28  C   UNL     1      -2.245   2.768  24.343  0.00  0.00    -0.002 A 
BRANCH  26  29
ATOM     29  S   UNL     1      -1.291   4.618  25.001  0.00  0.00    +0.010 S 
ATOM     30  C   UNL     1      -0.841   5.309  24.990  0.00  0.00    +0.182 C 
ATOM     31  O   UNL     1      -0.604   4.169  24.914  0.00  0.00    -0.169 OA
ATOM     32  O   UNL     1      -1.977   5.066  25.087  0.00  0.00    -0.169 OA
ENDBRANCH  26  29
ENDBRANCH  22  23
ENDBRANCH  21  22
ENDBRANCH  15  17
TORSDOF 9
ENDMDL
MODEL 5
REMARK VINA RESULT:      -9.1      2.039      4.592
REMARK  Name = 
REMARK  9 active torsions:
REMARK  status: ('A' for Active; 'I' for Inactive)
REMARK    1  A    between atoms: O_2  and  C_3
REMARK    2  A    between atoms: C_3  and  C_4
REMARK    3  A    between atoms: C_4  and  N_5
REMARK    4  A    between atoms: N_5  and  C_6
REMARK    5  A    between atoms: C_7  and  C_12
REMARK    6  A    between atoms: C_15  and  C_17
REMARK    7  A    between atoms: N_21  and  C_22
REMARK    8  A    between atoms: C_22  and  C_23
REMARK    9  A    between atoms: C_26  and  S_29
REMARK                            x       y       z     vdW  Elec       q    Type
REMARK                         _______ _______ _______ _____ _____    ______ ____
ROOT
ATOM     12  C   UNL     1       0.133   1.828  24.609  0.00  0.00    +0.206 A 
ATOM     13  N   UNL     1       0.382   1.958  25.386  0.00  0.00    -0.056 NA
ATOM     14  O   UNL     1       0.070   2.679  25.637  0.00  0.00    -0.336 OA
ATOM     15  C   UNL     1      -0.371   2.996  25.016  0.00  0.00    +0.251 A 
ATOM     16  N   UNL     1      -0.333   2.470  24.381  0.00  0.00    -0.190 NA
ENDROOT
BRANCH  12   7
ATOM      6  C   UNL     1      -0.113   0.474  24.228  0.00  0.00    +0.151 A 
ATOM      7  C   UNL     1       0.317   1.173  24.144  0.00  0.00    +0.072 A 
ATOM      8  C   UNL     1       0.932   1.216  23.596  0.00  0.00    +0.008 A 
ATOM      9  C   UNL     1       1.116   0.560  23.130  0.00  0.00    +0.021 A 
ATOM     10  C   UNL     1       0.686  -0.139  23.213  0.00  0.00    +0.100 A 
ATOM     11  N   UNL     1       0.071  -0.182  23.762  0.00  0.00    -0.228 NA
BRANCH   6   5
ATOM      5  N   UNL     1      -0.728   0.430  24.776  0.00  0.00    -0.218 NA
BRANCH   5   4
ATOM      4  C   UNL     1      -1.236  -0.220  24.777  0.00  0.00    +0.146 C 
BRANCH   4   3
ATOM      3  C   UNL     1      -1.736  -0.352  25.418  0.00  0.00    +0.166 C 
BRANCH   3   2
ATOM      1  C   UNL     1      -2.967  -1.020  25.703  0.00  0.00    +0.174 C 
ATOM      2  O   UNL     1      -2.548  -0.437  25.298  0.00  0.00    -0.349 OA
ENDBRANCH   3   2
ENDBRANCH   4   3
ENDBRANCH   5   4
ENDBRANCH   6   5
ENDBRANCH  12   7
BRANCH  15  17
ATOM     17  C   UNL     1      -0.780   3.712  25.027  0.00  0.00    +0.138 C 
ATOM     18  C   UNL     1      -0.513   4.428  24.714  0.00  0.00    +0.027 C 
ATOM     19  C   UNL     1      -1.096   4.997  24.847  0.00  0.00    +0.019 C 
ATOM     20  C   UNL     1      -1.723   4.633  25.241  0.00  0.00    +0.073 C 
ATOM     21  N   UNL     1      -1.527   3.839  25.353  0.00  0.00    -0.263 NA
BRANCH  21  22
ATOM     22  C   UNL     1      -1.997   3.272  25.724  0.00  0.00    +0.099 C 
BRANCH  22  23
ATOM     23  C   UNL     1      -2.819   3.325  25.682  0.00  0.00    -0.006 A 
ATOM     24  C   UNL     1      -3.227   2.929  25.083  0.00  0.00    -0.002 A 
ATOM     25  C   UNL     1      -4.049   2.982  25.040  0.00  0.00    +0.018 A 
ATOM     26  C   UNL     1      -4.463   3.429  25.595  0.00  0.00    +0.106 A 
ATOM     27  C   UNL     1      -4.056   3.825  26.194  0.00  0.00    +0.018 A 
ATOM     28  C   UNL     1      -3.234   3.772  26.237  0.00  0.00    -0.002 A 
BRANCH  26  29
ATOM     29  S   UNL     1      -5.286   3.482  25.552  0.00  0.00    +0.010 S 
ATOM     30  C   UNL     1      -6.108   3.535  25.510  0.00  0.00    +0.182 C 
ATOM     31  O   UNL     1      -5.346   2.672  25.701  0.00  0.00    -0.169 OA
ATOM     32  O   UNL     1      -5.227   4.291  25.404  0.00  0.00    -0.169 OA
ENDBRANCH  26  29
ENDBRANCH  22  23
ENDBRANCH  21  22
ENDBRANCH  15  17
TORSDOF 9
ENDMDL
MODEL 6
REMARK VINA RESULT:      -8.7      1.334      4.057
REMARK  Name = 
REMARK  9 active torsions:
REMARK  status: ('A' for Active; 'I' for Inactive)
REMARK    1  A    between atoms: O_2  and  C_3
REMARK    2  A    between atoms: C_3  and  C_4
REMARK    3  A    between atoms: C_4  and  N_5
REMARK    4  A    between atoms: N_5  and  C_6
REMARK    5  A    between atoms: C_7  and  C_12
REMARK    6  A    between atoms: C_15  and  C_17
REMARK    7  A    between atoms: N_21  and  C_22
REMARK    8  A    between atoms: C_22  and  C_23
REMARK    9  A    between atoms: C_26  and  S_29
REMARK                            x       y       z     vdW  Elec       q    Type
REMARK                         _______ _______ _______ _____ _____    ______ ____
ROOT
ATOM     12  C   UNL     1      -4.189   2.953  24.925  0.00  0.00    +0.206 A 
ATOM     13  N   UNL     1      -4.082   3.185  24.140  0.00  0.00    -0.056 NA
ATOM     14  O   UNL     1      -3.288   3.387  24.040  0.00  0.00    -0.336 OA
ATOM     15  C   UNL     1      -2.905   3.281  24.762  0.00  0.00    +0.251 A 
ATOM     16  N   UNL     1      -3.462   3.012  25.309  0.00  0.00    -0.190 NA
ENDROOT
BRANCH  12   7
ATOM      6  C   UNL     1      -5.126   1.914  25.213  0.00  0.00    +0.151 A 
ATOM      7  C   UNL     1      -4.899   2.705  25.265  0.00  0.00    +0.072 A 
ATOM      8  C   UNL     1      -5.380   3.249  25.656  0.00  0.00    +0.008 A 
ATOM      9  C   UNL     1      -6.090   3.001  25.996  0.00  0.00    +0.021 A 
ATOM     10  C   UNL     1      -6.318   2.210  25.945  0.00  0.00    +0.100 A 
ATOM     11  N   UNL     1      -5.836   1.666  25.553  0.00  0.00    -0.228 NA
BRANCH   6   5
ATOM      5  N   UNL     1      -4.645   1.370  24.822  0.00  0.00    -0.218 NA
BRANCH   5   4
ATOM      4  C   UNL     1      -4.793   0.562  24.892  0.00  0.00    +0.146 C 
BRANCH   4   3
ATOM      3  C   UNL     1      -4.409   0.027  24.396  0.00  0.00    +0.166 C 
BRANCH   3   2
ATOM      1  C   UNL     1      -3.922  -1.301  24.196  0.00  0.00    +0.174 C 
ATOM      2  O   UNL     1      -4.107  -0.677  24.702  0.00  0.00    -0.349 OA
ENDBRANCH   3   2
ENDBRANCH   4   3
ENDBRANCH   5   4
ENDBRANCH   6   5
ENDBRANCH  12   7
BRANCH  15  17
ATOM     17  C   UNL     1      -2.106   3.419  24.912  0.00  0.00    +0.138 C 
ATOM     18  C   UNL     1      -1.756   4.156  25.037  0.00  0.00    +0.027 C 
ATOM     19  C   UNL     1      -0.949   4.036  25.166  0.00  0.00    +0.019 C 
ATOM     20  C   UNL     1      -0.801   3.226  25.121  0.00  0.00    +0.073 C 
ATOM     21  N   UNL     1      -1.516   2.844  24.964  0.00  0.00    -0.263 NA
BRANCH  21  22
ATOM     22  C   UNL     1      -1.622   2.031  24.875  0.00  0.00    +0.099 C 
BRANCH  22  23
ATOM     23  C   UNL     1      -1.040   1.577  24.508  0.00  0.00    -0.006 A 
ATOM     24  C   UNL     1      -0.451   1.216  24.960  0.00  0.00    -0.002 A 
ATOM     25  C   UNL     1       0.131   0.762  24.593  0.00  0.00    +0.018 A 
ATOM     26  C   UNL     1       0.126   0.668  23.774  0.00  0.00    +0.106 A 
ATOM     27  C   UNL     1      -0.462   1.029  23.321  0.00  0.00    +0.018 A 
ATOM     28  C   UNL     1      -1.045   1.483  23.689  0.00  0.00    -0.002 A 
BRANCH  26  29
ATOM     29  S   UNL     1       0.708   0.214  23.406  0.00  0.00    +0.010 S 
ATOM     30  C   UNL     1       1.290  -0.240  23.038  0.00  0.00    +0.182 C 
ATOM     31  O   UNL     1       0.237  -0.459  23.490  0.00  0.00    -0.169 OA
ATOM     32  O   UNL     1       1.179   0.885  23.322  0.00  0.00    -0.169 OA
ENDBRANCH  26  29
ENDBRANCH  22  23
ENDBRANCH  21  22
ENDBRANCH  15  17
TORSDOF 9
ENDMDL
MODEL 7
REMARK VINA RESULT:      -8.6      1.743      3.822
REMARK  Name = 
REMARK  9 active torsions:
REMARK  status: ('A' for Active; 'I' for Inactive)
REMARK    1  A    between atoms: O_2  and  C_3
REMARK    2  A    between atoms: C_3  and  C_4
REMARK    3  A    between atoms: C_4  and  N_5
REMARK    4  A    between atoms: N_5  and  C_6
REMARK    5  A    between atoms: C_7  and  C_12
REMARK    6  A    between atoms: C_15  and  C_17
REMARK    7  A    between atoms: N_21  and  C_22
REMARK    8  A    between atoms: C_22  and  C_23
REMARK    9  A    between atoms: C_26  and  S_29
REMARK                            x       y       z     vdW  Elec       q    Type
REMARK                         _______ _______ _______ _____ _____    ______ ____
ROOT
ATOM     12  C   UNL     1      -4.390   1.643  24.679  0.00  0.00    +0.206 A 
ATOM     13  N   UNL     1      -4.224   1.657  23.870  0.00  0.00    -0.056 NA
ATOM     14  O   UNL     1      -3.796   0.976  23.686  0.00  0.00    -0.336 OA
ATOM     15  C   UNL     1      -3.698   0.541  24.380  0.00  0.00    +0.251 A 
ATOM     16  N   UNL     1      -4.065   0.954  24.994  0.00  0.00    -0.190 NA
ENDROOT
BRANCH  12   7
ATOM      6  C   UNL     1      -4.440   2.928  25.301  0.00  0.00    +0.151 A 
ATOM      7  C   UNL     1      -4.808   2.218  25.098  0.00  0.00    +0.072 A 
ATOM      8  C   UNL     1      -5.591   2.082  25.314  0.00  0.00    +0.008 A 
ATOM      9  C   UNL     1      -6.009   2.657  25.734  0.00  0.00    +0.021 A 
ATOM     10  C   UNL     1      -5.643   3.367  25.937  0.00  0.00    +0.100 A 
ATOM     11  N   UNL     1      -4.858   3.503  25.720  0.00  0.00    -0.228 NA
BRANCH   6   5
ATOM      5  N   UNL     1      -3.656   3.064  25.085  0.00  0.00    -0.218 NA
BRANCH   5   4
ATOM      4  C   UNL     1      -3.280   3.762  25.313  0.00  0.00    +0.146 C 
BRANCH   4   3
ATOM      3  C   UNL     1      -2.493   3.894  25.104  0.00  0.00    +0.166 C 
BRANCH   3   2
ATOM      1  C   UNL     1      -1.342   4.740  25.137  0.00  0.00    +0.174 C 
ATOM      2  O   UNL     1      -2.075   4.521  25.442  0.00  0.00    -0.349 OA
ENDBRANCH   3   2
ENDBRANCH   4   3
ENDBRANCH   5   4
ENDBRANCH   6   5
ENDBRANCH  12   7
BRANCH  15  17
ATOM     17  C   UNL     1      -3.302  -0.179  24.449  0.00  0.00    +0.138 C 
ATOM     18  C   UNL     1      -3.645  -0.928  24.394  0.00  0.00    +0.027 C 
ATOM     19  C   UNL     1      -3.049  -1.490  24.496  0.00  0.00    +0.019 C 
ATOM     20  C   UNL     1      -2.338  -1.088  24.615  0.00  0.00    +0.073 C 
ATOM     21  N   UNL     1      -2.494  -0.278  24.586  0.00  0.00    -0.263 NA
BRANCH  21  22
ATOM     22  C   UNL     1      -1.941   0.326  24.677  0.00  0.00    +0.099 C 
BRANCH  22  23
ATOM     23  C   UNL     1      -1.203   0.268  24.313  0.00  0.00    -0.006 A 
ATOM     24  C   UNL     1      -1.002   0.787  23.703  0.00  0.00    -0.002 A 
ATOM     25  C   UNL     1      -0.265   0.730  23.338  0.00  0.00    +0.018 A 
ATOM     26  C   UNL     1       0.272   0.154  23.583  0.00  0.00    +0.106 A 
ATOM     27  C   UNL     1       0.073  -0.365  24.192  0.00  0.00    +0.018 A 
ATOM     28  C   UNL     1      -0.666  -0.307  24.557  0.00  0.00    -0.002 A 
BRANCH  26  29
ATOM     29  S   UNL     1       1.011   0.096  23.218  0.00  0.00    +0.010 S 
ATOM     30  C   UNL     1       1.748   0.038  22.854  0.00  0.00    +0.182 C 
ATOM     31  O   UNL     1       0.774  -0.604  22.850  0.00  0.00    -0.169 OA
ATOM     32  O   UNL     1       1.247   0.795  23.586  0.00  0.00    -0.169 OA
ENDBRANCH  26  29
ENDBRANCH  22  23
ENDBRANCH  21  22
ENDBRANCH  15  17
TORSDOF 9
ENDMDL
MODEL 8
REMARK VINA RESULT:      -8.6      1.995      3.997
REMARK  Name = 
REMARK  9 active torsions:
REMARK  status: ('A' for Active; 'I' for Inactive)
REMARK    1  A    between atoms: O_2  and  C_3
REMARK    2  A    between atoms: C_3  and  C_4
REMARK    3  A    between atoms: C_4  and  N_5
REMARK    4  A    between atoms: N_5  and  C_6
REMARK    5  A    between atoms: C_7  and  C_12
REMARK    6  A    between atoms: C_15  and  C_17
REMARK    7  A    between atoms: N_21  and  C_22
REMARK    8  A    between atoms: C_22  and  C_23
REMARK    9  A    between atoms: C_26  and  S_29
REMARK                            x       y       z     vdW  Elec       q    Type
REMARK                         _______ _______ _______ _____ _____    ______ ____
ROOT
ATOM     12  C   UNL     1      -0.641  -0.611  24.308  0.00  0.00    +0.206 A 
ATOM     13  N   UNL     1      -0.600  -0.960  25.056  0.00  0.00    -0.056 NA
ATOM     14  O   UNL     1      -1.348  -1.257  25.239  0.00  0.00    -0.336 OA
ATOM     15  C   UNL     1      -1.850  -1.092  24.605  0.00  0.00    +0.251 A 
ATOM     16  N   UNL     1      -1.413  -0.693  24.030  0.00  0.00    -0.190 NA
ENDROOT
BRANCH  12   7
ATOM      6  C   UNL     1       0.177   0.538  24.080  0.00  0.00    +0.151 A 
ATOM      7  C   UNL     1      -0.018  -0.246  23.910  0.00  0.00    +0.072 A 
ATOM      8  C   UNL     1       0.410  -0.663  23.342  0.00  0.00    +0.008 A 
ATOM      9  C   UNL     1       1.033  -0.298  22.943  0.00  0.00    +0.021 A 
ATOM     10  C   UNL     1       1.228   0.485  23.112  0.00  0.00    +0.100 A 
ATOM     11  N   UNL     1       0.800   0.904  23.681  0.00  0.00    -0.228 NA
BRANCH   6   5
ATOM      5  N   UNL     1      -0.251   0.956  24.647  0.00  0.00    -0.218 NA
BRANCH   5   4
ATOM      4  C   UNL     1      -0.115   1.762  24.757  0.00  0.00    +0.146 C 
BRANCH   4   3
ATOM      3  C   UNL     1      -0.456   2.156  25.395  0.00  0.00    +0.166 C 
BRANCH   3   2
ATOM      1  C   UNL     1      -1.215   3.254  25.906  0.00  0.00    +0.174 C 
ATOM      2  O   UNL     1      -0.930   2.819  25.266  0.00  0.00    -0.349 OA
ENDBRANCH   3   2
ENDBRANCH   4   3
ENDBRANCH   5   4
ENDBRANCH   6   5
ENDBRANCH  12   7
BRANCH  15  17
ATOM     17  C   UNL     1      -2.649  -1.291  24.555  0.00  0.00    +0.138 C 
ATOM     18  C   UNL     1      -2.956  -1.989  24.241  0.00  0.00    +0.027 C 
ATOM     19  C   UNL     1      -3.779  -1.956  24.302  0.00  0.00    +0.019 C 
ATOM     20  C   UNL     1      -3.980  -1.238  24.653  0.00  0.00    +0.073 C 
ATOM     21  N   UNL     1      -3.282  -0.826  24.810  0.00  0.00    -0.263 NA
BRANCH  21  22
ATOM     22  C   UNL     1      -3.226  -0.081  25.159  0.00  0.00    +0.099 C 
BRANCH  22  23
ATOM     23  C   UNL     1      -3.869   0.434  25.136  0.00  0.00    -0.006 A 
ATOM     24  C   UNL     1      -4.483   0.353  25.682  0.00  0.00    -0.002 A 
ATOM     25  C   UNL     1      -5.127   0.869  25.658  0.00  0.00    +0.018 A 
ATOM     26  C   UNL     1      -5.157   1.466  25.090  0.00  0.00    +0.106 A 
ATOM     27  C   UNL     1      -4.543   1.547  24.544  0.00  0.00    +0.018 A 
ATOM     28  C   UNL     1      -3.900   1.031  24.568  0.00  0.00    -0.002 A 
BRANCH  26  29
ATOM     29  S   UNL     1      -5.800   1.982  25.066  0.00  0.00    +0.010 S 
ATOM     30  C   UNL     1      -6.444   2.497  25.043  0.00  0.00    +0.182 C 
ATOM     31  O   UNL     1      -5.376   2.531  25.513  0.00  0.00    -0.169 OA
ATOM     32  O   UNL     1      -6.224   1.433  24.620  0.00  0.00    -0.169 OA
ENDBRANCH  26  29
ENDBRANCH  22  23
ENDBRANCH  21  22
ENDBRANCH  15  17
TORSDOF 9
ENDMDL
