MODEL 1
REMARK VINA RESULT:     -14.2      0.000      0.000
REMARK  Name = 
REMARK  9 active torsions:
REMARK  status: ('A' for Active; 'I' for Inactive)
REMARK    1  A    between atoms: C_5  and  N_6
REMARK    2  A    between atoms: N_6  and  C_7
REMARK    3  A    between atoms: C_7  and  C_8
REMARK    4  A    between atoms: C_14  and  C_15
REMARK    5  A    between atoms: C_15  and  C_16
REMARK    6  A    between atoms: C_16  and  C_17
REMARK    7  A    between atoms: N_19  and  C_20
REMARK    8  A    between atoms: C_20  and  C_21
REMARK    9  A    between atoms: C_21  and  C_22
REMARK                            x       y       z     vdW  Elec       q    Type
REMARK                         _______ _______ _______ _____ _____    ______ ____
ROOT
ATOM      1  C   UNL     1      -4.646  -2.180  23.973  0.00  0.00    +0.000 C 
ATOM      2  C   UNL     1      -3.882  -1.959  24.192  0.00  0.00    +0.001 C 
ATOM      3  C   UNL     1      -3.728  -2.768  24.145  0.00  0.00    +0.000 C 
ATOM      4  C   UNL     1      -4.196  -1.195  24.193  0.00  0.00    +0.017 C 
ATOM      5  C   UNL     1      -3.593  -0.673  24.403  0.00  0.00    +0.073 C 
ATOM     14  C   UNL     1      -2.907  -1.112  24.531  0.00  0.00    +0.015 C 
ATOM     31  C   UNL     1      -2.144  -0.892  24.750  0.00  0.00    +0.004 C 
ATOM     32  C   UNL     1      -1.557  -1.466  24.839  0.00  0.00    +0.030 C 
ATOM     33  C   UNL     1      -1.736  -2.260  24.709  0.00  0.00    +0.127 C 
ATOM     34  C   UNL     1      -0.937  -2.323  24.907  0.00  0.00    +0.033 C 
ATOM     35  O   UNL     1      -1.637  -3.077  24.648  0.00  0.00    -0.226 OA
ATOM     36  C   UNL     1      -2.500  -2.481  24.490  0.00  0.00    +0.030 C 
ATOM     37  C   UNL     1      -3.086  -1.908  24.401  0.00  0.00    +0.004 C 
ENDROOT
BRANCH   5   6
ATOM      6  N   UNL     1      -3.664   0.146  24.471  0.00  0.00    -0.219 NA
BRANCH   6   7
ATOM      7  C   UNL     1      -4.315   0.533  24.142  0.00  0.00    +0.089 C 
BRANCH   7   8
ATOM      8  C   UNL     1      -4.607   1.220  24.493  0.00  0.00    +0.017 C 
ATOM      9  C   UNL     1      -4.989   1.179  25.223  0.00  0.00    +0.001 C 
ATOM     10  C   UNL     1      -5.282   1.866  25.574  0.00  0.00    +0.000 C 
ATOM     11  C   UNL     1      -5.193   2.594  25.195  0.00  0.00    +0.000 C 
ATOM     12  C   UNL     1      -4.810   2.634  24.465  0.00  0.00    +0.000 C 
ATOM     13  C   UNL     1      -4.518   1.947  24.114  0.00  0.00    +0.001 C 
ENDBRANCH   7   8
ENDBRANCH   6   7
ENDBRANCH   5   6
BRANCH  14  15
ATOM     15  C   UNL     1      -2.811  -0.301  24.642  0.00  0.00    +0.011 C 
BRANCH  15  16
ATOM     16  C   UNL     1      -2.170  -0.016  25.077  0.00  0.00    +0.087 C 
BRANCH  16  17
ATOM     17  C   UNL     1      -1.782   0.671  24.838  0.00  0.00    +0.241 C 
ATOM     18  O   UNL     1      -1.632   0.802  24.038  0.00  0.00    -0.273 OA
ATOM     19  N   UNL     1      -1.543   1.227  25.399  0.00  0.00    -0.205 NA
BRANCH  19  20
ATOM     20  C   UNL     1      -1.155   1.913  25.161  0.00  0.00    +0.120 C 
BRANCH  20  21
ATOM     21  C   UNL     1      -1.190   2.592  25.629  0.00  0.00    +0.051 C 
BRANCH  21  22
ATOM     22  C   UNL     1      -0.937   3.316  25.326  0.00  0.00    +0.000 A 
ATOM     23  C   UNL     1      -0.223   3.457  24.936  0.00  0.00    +0.095 A 
ATOM     24  N   UNL     1      -0.199   4.255  24.729  0.00  0.00    -0.244 NA
ATOM     25  C   UNL     1      -0.896   4.608  24.991  0.00  0.00    +0.081 A 
ATOM     26  C   UNL     1      -1.353   4.028  25.360  0.00  0.00    +0.015 A 
ATOM     27  C   UNL     1      -2.088   4.223  25.679  0.00  0.00    +0.001 A 
ATOM     28  C   UNL     1      -2.368   4.998  25.630  0.00  0.00    +0.000 A 
ATOM     29  C   UNL     1      -1.911   5.578  25.260  0.00  0.00    +0.002 A 
ATOM     30  C   UNL     1      -1.176   5.383  24.941  0.00  0.00    +0.019 A 
ENDBRANCH  21  22
ENDBRANCH  20  21
ENDBRANCH  19  20
ENDBRANCH  16  17
ENDBRANCH  15  16
ENDBRANCH  14  15
TORSDOF 9
ENDMDL
MODEL 2
REMARK VINA RESULT:     -12.3      1.538      5.818
REMARK  Name = 
REMARK  9 active torsions:
REMARK  status: ('A' for Active; 'I' for Inactive)
REMARK    1  A    between atoms: C_5  and  N_6
REMARK    2  A    between atoms: N_6  and  C_7
REMARK    3  A    between atoms: C_7  and  C_8
REMARK    4  A    between atoms: C_14  and  C_15
REMARK    5  A    between atoms: C_15  and  C_16
REMARK    6  A    between atoms: C_16  and  C_17
REMARK    7  A    between atoms: N_19  and  C_20
REMARK    8  A    between atoms: C_20  and  C_21
REMARK    9  A    between atoms: C_21  and  C_22
REMARK                            x       y       z     vdW  Elec       q    Type
REMARK                         _______ _______ _______ _____ _____    ______ ____
ROOT
ATOM      1  C   UNL     1      -0.190   4.252  24.727  0.00  0.00    +0.000 C 
ATOM      2  C   UNL     1      -0.967   4.080  24.942  0.00  0.00    +0.001 C 
ATOM      3  C   UNL     1      -0.976   4.861  25.205  0.00  0.00    +0.000 C 
ATOM      4  C   UNL     1      -0.796   3.333  24.633  0.00  0.00    +0.017 C 
ATOM      5  C   UNL     1      -1.470   2.864  24.712  0.00  0.00    +0.073 C 
ATOM     14  C   UNL     1      -2.057   3.319  25.069  0.00  0.00    +0.015 C 
ATOM     31  C   UNL     1      -2.835   3.147  25.283  0.00  0.00    +0.004 C 
ATOM     32  C   UNL     1      -3.303   3.726  25.640  0.00  0.00    +0.030 C 
ATOM     33  C   UNL     1      -2.993   4.476  25.782  0.00  0.00    +0.127 C 
ATOM     34  C   UNL     1      -3.755   4.577  26.081  0.00  0.00    +0.033 C 
ATOM     35  O   UNL     1      -2.947   5.263  26.028  0.00  0.00    -0.226 OA
ATOM     36  C   UNL     1      -2.214   4.649  25.567  0.00  0.00    +0.030 C 
ATOM     37  C   UNL     1      -1.747   4.071  25.211  0.00  0.00    +0.004 C 
ENDROOT
BRANCH   5   6
ATOM      6  N   UNL     1      -1.542   2.077  24.475  0.00  0.00    -0.219 NA
BRANCH   6   7
ATOM      7  C   UNL     1      -0.969   1.739  23.988  0.00  0.00    +0.089 C 
BRANCH   7   8
ATOM      8  C   UNL     1      -0.756   0.948  24.089  0.00  0.00    +0.017 C 
ATOM      9  C   UNL     1      -0.529   0.674  24.834  0.00  0.00    +0.001 C 
ATOM     10  C   UNL     1      -0.316  -0.116  24.935  0.00  0.00    +0.000 C 
ATOM     11  C   UNL     1      -0.331  -0.634  24.293  0.00  0.00    +0.000 C 
ATOM     12  C   UNL     1      -0.559  -0.360  23.548  0.00  0.00    +0.000 C 
ATOM     13  C   UNL     1      -0.771   0.431  23.447  0.00  0.00    +0.001 C 
ENDBRANCH   7   8
ENDBRANCH   6   7
ENDBRANCH   5   6
BRANCH  14  15
ATOM     15  C   UNL     1      -2.290   2.548  24.893  0.00  0.00    +0.011 C 
BRANCH  15  16
ATOM     16  C   UNL     1      -3.014   2.263  25.168  0.00  0.00    +0.087 C 
BRANCH  16  17
ATOM     17  C   UNL     1      -3.435   1.709  24.725  0.00  0.00    +0.241 C 
ATOM     18  O   UNL     1      -3.590   1.852  23.927  0.00  0.00    -0.273 OA
ATOM     19  N   UNL     1      -3.701   1.013  25.078  0.00  0.00    -0.205 NA
BRANCH  19  20
ATOM     20  C   UNL     1      -4.122   0.459  24.635  0.00  0.00    +0.120 C 
BRANCH  20  21
ATOM     21  C   UNL     1      -4.298  -0.280  24.957  0.00  0.00    +0.051 C 
BRANCH  21  22
ATOM     22  C   UNL     1      -4.187  -0.962  24.508  0.00  0.00    +0.000 A 
ATOM     23  C   UNL     1      -4.412  -1.068  23.721  0.00  0.00    +0.095 A 
ATOM     24  N   UNL     1      -4.195  -1.831  23.494  0.00  0.00    -0.244 NA
ATOM     25  C   UNL     1      -3.837  -2.197  24.139  0.00  0.00    +0.081 A 
ATOM     26  C   UNL     1      -3.831  -1.661  24.766  0.00  0.00    +0.015 A 
ATOM     27  C   UNL     1      -3.503  -1.877  25.492  0.00  0.00    +0.001 A 
ATOM     28  C   UNL     1      -3.180  -2.630  25.591  0.00  0.00    +0.000 A 
ATOM     29  C   UNL     1      -3.185  -3.166  24.963  0.00  0.00    +0.002 A 
ATOM     30  C   UNL     1      -3.513  -2.950  24.238  0.00  0.00    +0.019 A 
ENDBRANCH  21  22
ENDBRANCH  20  21
ENDBRANCH  19  20
ENDBRANCH  16  17
ENDBRANCH  15  16
ENDBRANCH  14  15
TORSDOF 9
ENDMDL
MODEL 3
REMARK VINA RESULT:     -12.3      1.153      2.819
REMARK  Name = 
REMARK  9 active torsions:
REMARK  status: ('A' for Active; 'I' for Inactive)
REMARK    1  A    between atoms: C_5  and  N_6
REMARK    2  A    between atoms: N_6  and  C_7
REMARK    3  A    between atoms: C_7  and  C_8
REMARK    4  A    between atoms: C_14  and  C_15
REMARK    5  A    between atoms: C_15  and  C_16
REMARK    6  A    between atoms: C_16  and  C_17
REMARK    7  A    between atoms: N_19  and  C_20
REMARK    8  A    between atoms: C_20  and  C_21
REMARK    9  A    between atoms: C_21  and  C_22
REMARK                            x       y       z     vdW  Elec       q    Type
REMARK                         _______ _______ _______ _____ _____    ______ ____
ROOT
ATOM      1  C   UNL     1      -0.976  -2.550  24.936  0.00  0.00    +0.000 C 
ATOM      2  C   UNL     1      -1.728  -2.272  24.743  0.00  0.00    +0.001 C 
ATOM      3  C   UNL     1      -1.898  -3.070  24.623  0.00  0.00    +0.000 C 
ATOM      4  C   UNL     1      -1.401  -1.531  24.903  0.00  0.00    +0.017 C 
ATOM      5  C   UNL     1      -1.987  -0.962  24.784  0.00  0.00    +0.073 C 
ATOM     14  C   UNL     1      -2.675  -1.351  24.551  0.00  0.00    +0.015 C 
ATOM     31  C   UNL     1      -3.427  -1.073  24.358  0.00  0.00    +0.004 C 
ATOM     32  C   UNL     1      -4.021  -1.603  24.139  0.00  0.00    +0.030 C 
ATOM     33  C   UNL     1      -3.861  -2.411  24.114  0.00  0.00    +0.127 C 
ATOM     34  C   UNL     1      -4.653  -2.415  23.884  0.00  0.00    +0.033 C 
ATOM     35  O   UNL     1      -3.976  -3.222  24.008  0.00  0.00    -0.226 OA
ATOM     36  C   UNL     1      -3.108  -2.690  24.307  0.00  0.00    +0.030 C 
ATOM     37  C   UNL     1      -2.516  -2.160  24.525  0.00  0.00    +0.004 C 
ENDROOT
BRANCH   5   6
ATOM      6  N   UNL     1      -1.898  -0.148  24.882  0.00  0.00    -0.219 NA
BRANCH   6   7
ATOM      7  C   UNL     1      -1.310   0.146  25.380  0.00  0.00    +0.089 C 
BRANCH   7   8
ATOM      8  C   UNL     1      -0.894   0.827  25.170  0.00  0.00    +0.017 C 
ATOM      9  C   UNL     1      -0.735   1.405  25.737  0.00  0.00    +0.001 C 
ATOM     10  C   UNL     1      -0.319   2.086  25.527  0.00  0.00    +0.000 C 
ATOM     11  C   UNL     1      -0.062   2.189  24.750  0.00  0.00    +0.000 C 
ATOM     12  C   UNL     1      -0.221   1.611  24.183  0.00  0.00    +0.000 C 
ATOM     13  C   UNL     1      -0.637   0.930  24.393  0.00  0.00    +0.001 C 
ENDBRANCH   7   8
ENDBRANCH   6   7
ENDBRANCH   5   6
BRANCH  14  15
ATOM     15  C   UNL     1      -2.753  -0.531  24.601  0.00  0.00    +0.011 C 
BRANCH  15  16
ATOM     16  C   UNL     1      -3.499  -0.192  24.696  0.00  0.00    +0.087 C 
BRANCH  16  17
ATOM     17  C   UNL     1      -3.675   0.528  24.334  0.00  0.00    +0.241 C 
ATOM     18  O   UNL     1      -3.488   0.646  23.540  0.00  0.00    -0.273 OA
ATOM     19  N   UNL     1      -4.038   1.130  24.766  0.00  0.00    -0.205 NA
BRANCH  19  20
ATOM     20  C   UNL     1      -4.214   1.849  24.404  0.00  0.00    +0.120 C 
BRANCH  20  21
ATOM     21  C   UNL     1      -4.317   2.528  24.862  0.00  0.00    +0.051 C 
BRANCH  21  22
ATOM     22  C   UNL     1      -3.893   3.213  24.687  0.00  0.00    +0.000 A 
ATOM     23  C   UNL     1      -3.776   3.532  23.935  0.00  0.00    +0.095 A 
ATOM     24  N   UNL     1      -3.322   4.216  24.016  0.00  0.00    -0.244 NA
ATOM     25  C   UNL     1      -3.158   4.320  24.818  0.00  0.00    +0.081 A 
ATOM     26  C   UNL     1      -3.511   3.700  25.232  0.00  0.00    +0.015 A 
ATOM     27  C   UNL     1      -3.439   3.659  26.053  0.00  0.00    +0.001 A 
ATOM     28  C   UNL     1      -3.014   4.237  26.460  0.00  0.00    +0.000 A 
ATOM     29  C   UNL     1      -2.661   4.858  26.044  0.00  0.00    +0.002 A 
ATOM     30  C   UNL     1      -2.733   4.898  25.224  0.00  0.00    +0.019 A 
ENDBRANCH  21  22
ENDBRANCH  20  21
ENDBRANCH  19  20
ENDBRANCH  16  17
ENDBRANCH  15  16
ENDBRANCH  14  15
TORSDOF 9
ENDMDL
MODEL 4
REMARK VINA RESULT:     -12.3      1.212      5.263
REMARK  Name = 
REMARK  9 active torsions:
REMARK  status: ('A' for Active; 'I' for Inactive)
REMARK    1  A    between atoms: C_5  and  N_6
REMARK    2  A    between atoms: N_6  and  C_7
REMARK    3  A    between atoms: C_7  and  C_8
REMARK    4  A    between atoms: C_14  and  C_15
REMARK    5  A    between atoms: C_15  and  C_16
REMARK    6  A    between atoms: C_16  and  C_17
REMARK    7  A    between atoms: N_19  and  C_20
REMARK    8  A    between atoms: C_20  and  C_21
REMARK    9  A    between atoms: C_21  and  C_22
REMARK                            x       y       z     vdW  Elec       q    Type
REMARK                         _______ _______ _______ _____ _____    ______ ____
ROOT
ATOM      1  C   UNL     1      -2.422   5.346  25.141  0.00  0.00    +0.000 C 
ATOM      2  C   UNL     1      -2.003   4.637  25.181  0.00  0.00    +0.001 C 
ATOM      3  C   UNL     1      -1.347   5.129  25.269  0.00  0.00    +0.000 C 
ATOM      4  C   UNL     1      -2.748   4.293  25.084  0.00  0.00    +0.017 C 
ATOM      5  C   UNL     1      -2.651   3.473  25.082  0.00  0.00    +0.073 C 
ATOM     14  C   UNL     1      -1.848   3.311  25.177  0.00  0.00    +0.015 C 
ATOM     31  C   UNL     1      -1.430   2.601  25.217  0.00  0.00    +0.004 C 
ATOM     32  C   UNL     1      -0.611   2.610  25.317  0.00  0.00    +0.030 C 
ATOM     33  C   UNL     1      -0.211   3.328  25.378  0.00  0.00    +0.127 C 
ATOM     34  C   UNL     1       0.423   2.805  25.447  0.00  0.00    +0.033 C 
ATOM     35  O   UNL     1       0.410   3.865  25.463  0.00  0.00    -0.226 OA
ATOM     36  C   UNL     1      -0.629   4.038  25.339  0.00  0.00    +0.030 C 
ATOM     37  C   UNL     1      -1.448   4.030  25.239  0.00  0.00    +0.004 C 
ENDROOT
BRANCH   5   6
ATOM      6  N   UNL     1      -3.253   2.915  24.999  0.00  0.00    -0.219 NA
BRANCH   6   7
ATOM      7  C   UNL     1      -3.996   3.147  24.725  0.00  0.00    +0.089 C 
BRANCH   7   8
ATOM      8  C   UNL     1      -4.671   2.744  24.975  0.00  0.00    +0.017 C 
ATOM      9  C   UNL     1      -5.042   2.207  24.470  0.00  0.00    +0.001 C 
ATOM     10  C   UNL     1      -5.717   1.805  24.719  0.00  0.00    +0.000 C 
ATOM     11  C   UNL     1      -6.022   1.938  25.474  0.00  0.00    +0.000 C 
ATOM     12  C   UNL     1      -5.651   2.475  25.979  0.00  0.00    +0.000 C 
ATOM     13  C   UNL     1      -4.976   2.878  25.730  0.00  0.00    +0.001 C 
ENDBRANCH   7   8
ENDBRANCH   6   7
ENDBRANCH   5   6
BRANCH  14  15
ATOM     15  C   UNL     1      -2.321   2.639  25.108  0.00  0.00    +0.011 C 
BRANCH  15  16
ATOM     16  C   UNL     1      -2.073   1.924  25.438  0.00  0.00    +0.087 C 
BRANCH  16  17
ATOM     17  C   UNL     1      -2.196   1.217  25.032  0.00  0.00    +0.241 C 
ATOM     18  O   UNL     1      -2.159   1.203  24.208  0.00  0.00    -0.273 OA
ATOM     19  N   UNL     1      -2.357   0.523  25.449  0.00  0.00    -0.205 NA
BRANCH  19  20
ATOM     20  C   UNL     1      -2.480  -0.183  25.043  0.00  0.00    +0.120 C 
BRANCH  20  21
ATOM     21  C   UNL     1      -2.998  -0.750  25.347  0.00  0.00    +0.051 C 
BRANCH  21  22
ATOM     22  C   UNL     1      -2.985  -1.520  25.054  0.00  0.00    +0.000 A 
ATOM     23  C   UNL     1      -2.404  -2.087  25.203  0.00  0.00    +0.095 A 
ATOM     24  N   UNL     1      -2.611  -2.777  24.801  0.00  0.00    -0.244 NA
ATOM     25  C   UNL     1      -3.319  -2.638  24.403  0.00  0.00    +0.081 A 
ATOM     26  C   UNL     1      -3.551  -1.861  24.559  0.00  0.00    +0.015 A 
ATOM     27  C   UNL     1      -4.247  -1.564  24.231  0.00  0.00    +0.001 A 
ATOM     28  C   UNL     1      -4.713  -2.044  23.747  0.00  0.00    +0.000 A 
ATOM     29  C   UNL     1      -4.481  -2.821  23.591  0.00  0.00    +0.002 A 
ATOM     30  C   UNL     1      -3.785  -3.117  23.919  0.00  0.00    +0.019 A 
ENDBRANCH  21  22
ENDBRANCH  20  21
ENDBRANCH  19  20
ENDBRANCH  16  17
ENDBRANCH  15  16
ENDBRANCH  14  15
TORSDOF 9
ENDMDL
MODEL 5
REMARK VINA RESULT:     -12.2      2.139      4.496
REMARK  Name = 
REMARK  9 active torsions:
REMARK  status: ('A' for Active; 'I' for Inactive)
REMARK    1  A    between atoms: C_5  and  N_6
REMARK    2  A    between atoms: N_6  and  C_7
REMARK    3  A    between atoms: C_7  and  C_8
REMARK    4  A    between atoms: C_14  and  C_15
REMARK    5  A    between atoms: C_15  and  C_16
REMARK    6  A    between atoms: C_16  and  C_17
REMARK    7  A    between atoms: N_19  and  C_20
REMARK    8  A    between atoms: C_20  and  C_21
REMARK    9  A    between atoms: C_21  and  C_22
REMARK                            x       y       z     vdW  Elec       q    Type
REMARK                         _______ _______ _______ _____ _____    ______ ____
ROOT
ATOM      1  C   UNL     1      -6.122   1.596  25.614  0.00  0.00    +0.000 C 
ATOM      2  C   UNL     1      -5.418   1.923  25.336  0.00  0.00    +0.001 C 
ATOM      3  C   UNL     1      -5.811   2.641  25.441  0.00  0.00    +0.000 C 
ATOM      4  C   UNL     1      -5.172   1.136  25.289  0.00  0.00    +0.017 C 
ATOM      5  C   UNL     1      -4.398   1.128  25.004  0.00  0.00    +0.073 C 
ATOM     14  C   UNL     1      -4.165   1.908  24.875  0.00  0.00    +0.015 C 
ATOM     31  C   UNL     1      -3.461   2.235  24.598  0.00  0.00    +0.004 C 
ATOM     32  C   UNL     1      -3.386   3.054  24.525  0.00  0.00    +0.030 C 
ATOM     33  C   UNL     1      -4.016   3.545  24.730  0.00  0.00    +0.127 C 
ATOM     34  C   UNL     1      -3.464   4.111  24.495  0.00  0.00    +0.033 C 
ATOM     35  O   UNL     1      -4.455   4.233  24.854  0.00  0.00    -0.226 OA
ATOM     36  C   UNL     1      -4.721   3.218  25.008  0.00  0.00    +0.030 C 
ATOM     37  C   UNL     1      -4.796   2.400  25.081  0.00  0.00    +0.004 C 
ENDROOT
BRANCH   5   6
ATOM      6  N   UNL     1      -3.938   0.456  24.872  0.00  0.00    -0.219 NA
BRANCH   6   7
ATOM      7  C   UNL     1      -4.120  -0.251  25.256  0.00  0.00    +0.089 C 
BRANCH   7   8
ATOM      8  C   UNL     1      -3.934  -0.972  24.901  0.00  0.00    +0.017 C 
ATOM      9  C   UNL     1      -4.294  -1.187  24.190  0.00  0.00    +0.001 C 
ATOM     10  C   UNL     1      -4.108  -1.909  23.835  0.00  0.00    +0.000 C 
ATOM     11  C   UNL     1      -3.563  -2.415  24.191  0.00  0.00    +0.000 C 
ATOM     12  C   UNL     1      -3.203  -2.200  24.903  0.00  0.00    +0.000 C 
ATOM     13  C   UNL     1      -3.389  -1.479  25.257  0.00  0.00    +0.001 C 
ENDBRANCH   7   8
ENDBRANCH   6   7
ENDBRANCH   5   6
BRANCH  14  15
ATOM     15  C   UNL     1      -3.586   1.351  24.693  0.00  0.00    +0.011 C 
BRANCH  15  16
ATOM     16  C   UNL     1      -2.788   1.559  24.723  0.00  0.00    +0.087 C 
BRANCH  16  17
ATOM     17  C   UNL     1      -2.261   1.255  24.166  0.00  0.00    +0.241 C 
ATOM     18  O   UNL     1      -2.508   1.129  23.390  0.00  0.00    -0.273 OA
ATOM     19  N   UNL     1      -1.485   1.077  24.386  0.00  0.00    -0.205 NA
BRANCH  19  20
ATOM     20  C   UNL     1      -0.958   0.773  23.830  0.00  0.00    +0.120 C 
BRANCH  20  21
ATOM     21  C   UNL     1      -0.148   0.772  23.986  0.00  0.00    +0.051 C 
BRANCH  21  22
ATOM     22  C   UNL     1       0.360   0.313  23.527  0.00  0.00    +0.000 A 
ATOM     23  C   UNL     1       0.180  -0.416  23.185  0.00  0.00    +0.095 A 
ATOM     24  N   UNL     1       0.847  -0.677  22.775  0.00  0.00    -0.244 NA
ATOM     25  C   UNL     1       1.439  -0.111  22.864  0.00  0.00    +0.081 A 
ATOM     26  C   UNL     1       1.139   0.501  23.328  0.00  0.00    +0.015 A 
ATOM     27  C   UNL     1       1.613   1.152  23.511  0.00  0.00    +0.001 A 
ATOM     28  C   UNL     1       2.387   1.191  23.229  0.00  0.00    +0.000 A 
ATOM     29  C   UNL     1       2.687   0.578  22.764  0.00  0.00    +0.002 A 
ATOM     30  C   UNL     1       2.214  -0.072  22.582  0.00  0.00    +0.019 A 
ENDBRANCH  21  22
ENDBRANCH  20  21
ENDBRANCH  19  20
ENDBRANCH  16  17
ENDBRANCH  15  16
ENDBRANCH  14  15
TORSDOF 9
ENDMDL
