MODEL 1
REMARK VINA RESULT:      -8.9      0.000      0.000
REMARK  Name = 
REMARK  10 active torsions:
REMARK  status: ('A' for Active; 'I' for Inactive)
REMARK    1  A    between atoms: O_2  and  C_3
REMARK    2  A    between atoms: C_8  and  C_9
REMARK    3  A    between atoms: C_9  and  C_10
REMARK    4  A    between atoms: C_12  and  C_13
REMARK    5  A    between atoms: C_16  and  C_17
REMARK    6  A    between atoms: C_17  and  N_18
REMARK    7  A    between atoms: C_19  and  C_21
REMARK    8  A    between atoms: C_21  and  O_22
REMARK    9  A    between atoms: O_22  and  C_23
REMARK   10  A    between atoms: C_23  and  C_24
REMARK                            x       y       z     vdW  Elec       q    Type
REMARK                         _______ _______ _______ _____ _____    ______ ____
ROOT
ATOM     10  C   UNL     1      -2.354   2.232  23.632  0.00  0.00    +0.026 C 
ATOM     11  C   UNL     1      -2.022   2.120  24.378  0.00  0.00    +0.005 C 
ATOM     12  C   UNL     1      -1.390   1.599  24.474  0.00  0.00    +0.006 C 
ATOM     16  C   UNL     1      -1.091   1.190  23.823  0.00  0.00    +0.043 C 
ATOM     27  C   UNL     1      -1.423   1.301  23.076  0.00  0.00    -0.033 C 
ATOM     28  C   UNL     1      -2.055   1.823  22.981  0.00  0.00    -0.048 C 
ATOM     29  C   UNL     1      -2.388   1.935  22.234  0.00  0.00    +0.026 C 
ENDROOT
BRANCH  12  13
ATOM     13  C   UNL     1      -1.057   1.487  25.220  0.00  0.00    +0.000 C 
ATOM     14  C   UNL     1      -0.506   2.026  25.512  0.00  0.00    +0.000 C 
ATOM     15  C   UNL     1      -1.276   0.834  25.675  0.00  0.00    +0.000 C 
ENDBRANCH  12  13
BRANCH  10   9
ATOM      9  C   UNL     1      -2.987   2.753  23.535  0.00  0.00    +0.070 C 
BRANCH   9   8
ATOM      3  C   UNL     1      -5.839   2.276  25.589  0.00  0.00    +0.140 A 
ATOM      4  C   UNL     1      -5.399   1.938  24.979  0.00  0.00    +0.058 A 
ATOM      5  C   UNL     1      -4.729   2.323  24.691  0.00  0.00    +0.103 A 
ATOM      6  C   UNL     1      -4.499   3.047  25.012  0.00  0.00    +0.100 A 
ATOM      7  N   UNL     1      -3.819   3.296  24.619  0.00  0.00    -0.229 NA
ATOM      8  C   UNL     1      -3.627   2.726  24.053  0.00  0.00    +0.139 A 
ATOM     30  N   UNL     1      -4.190   2.125  24.098  0.00  0.00    -0.229 NA
ATOM     31  C   UNL     1      -4.939   3.386  25.623  0.00  0.00    +0.024 A 
ATOM     32  C   UNL     1      -5.609   3.001  25.911  0.00  0.00    +0.039 A 
BRANCH   3   2
ATOM      1  C   UNL     1      -6.492   1.535  26.622  0.00  0.00    +0.252 C 
ATOM      2  O   UNL     1      -6.510   1.891  25.878  0.00  0.00    -0.471 OA
ENDBRANCH   3   2
ENDBRANCH   9   8
ENDBRANCH  10   9
BRANCH  16  17
ATOM     17  C   UNL     1      -0.458   0.668  23.919  0.00  0.00    +0.119 C 
BRANCH  17  18
ATOM     18  N   UNL     1       0.158   0.662  23.370  0.00  0.00    -0.203 NA
ATOM     19  C   UNL     1       0.632  -0.009  23.291  0.00  0.00    +0.272 C 
ATOM     20  O   UNL     1       0.491  -0.672  23.760  0.00  0.00    -0.271 OA
BRANCH  19  21
ATOM     21  C   UNL     1       1.248  -0.015  22.742  0.00  0.00    +0.229 C 
BRANCH  21  22
ATOM     22  O   UNL     1       2.018   0.161  22.984  0.00  0.00    -0.333 OA
BRANCH  22  23
ATOM     23  C   UNL     1       2.635   0.145  22.437  0.00  0.00    +0.257 C 
BRANCH  23  24
ATOM     24  C   UNL     1       3.393   0.380  22.665  0.00  0.00    +0.394 C 
ATOM     25  O   UNL     1       3.583   1.182  22.701  0.00  0.00    -0.243 OA
ATOM     26  O   UNL     1       3.961  -0.187  22.856  0.00  0.00    -0.243 OA
ENDBRANCH  23  24
ENDBRANCH  22  23
ENDBRANCH  21  22
ENDBRANCH  19  21
ENDBRANCH  17  18
ENDBRANCH  16  17
TORSDOF 10
ENDMDL
MODEL 2
REMARK VINA RESULT:      -8.7      1.227      1.564
REMARK  Name = 
REMARK  10 active torsions:
REMARK  status: ('A' for Active; 'I' for Inactive)
REMARK    1  A    between atoms: O_2  and  C_3
REMARK    2  A    between atoms: C_8  and  C_9
REMARK    3  A    between atoms: C_9  and  C_10
REMARK    4  A    between atoms: C_12  and  C_13
REMARK    5  A    between atoms: C_16  and  C_17
REMARK    6  A    between atoms: C_17  and  N_18
REMARK    7  A    between atoms: C_19  and  C_21
REMARK    8  A    between atoms: C_21  and  O_22
REMARK    9  A    between atoms: O_22  and  C_23
REMARK   10  A    between atoms: C_23  and  C_24
REMARK                            x       y       z     vdW  Elec       q    Type
REMARK                         _______ _______ _______ _____ _____    ______ ____
ROOT
ATOM     10  C   UNL     1      -1.067   2.553  25.035  0.00  0.00    +0.026 C 
ATOM     11  C   UNL     1      -1.362   1.797  25.178  0.00  0.00    +0.005 C 
ATOM     12  C   UNL     1      -1.004   1.141  24.831  0.00  0.00    +0.006 C 
ATOM     16  C   UNL     1      -0.348   1.242  24.340  0.00  0.00    +0.043 C 
ATOM     27  C   UNL     1      -0.052   1.998  24.196  0.00  0.00    -0.033 C 
ATOM     28  C   UNL     1      -0.412   2.653  24.544  0.00  0.00    -0.048 C 
ATOM     29  C   UNL     1      -0.116   3.411  24.401  0.00  0.00    +0.026 C 
ENDROOT
BRANCH  12  13
ATOM     13  C   UNL     1      -1.299   0.384  24.974  0.00  0.00    +0.000 C 
ATOM     14  C   UNL     1      -1.034  -0.047  25.625  0.00  0.00    +0.000 C 
ATOM     15  C   UNL     1      -1.860   0.057  24.464  0.00  0.00    +0.000 C 
ENDBRANCH  12  13
BRANCH  10   9
ATOM      9  C   UNL     1      -1.426   3.209  25.383  0.00  0.00    +0.070 C 
BRANCH   9   8
ATOM      3  C   UNL     1      -4.954   3.567  25.486  0.00  0.00    +0.140 A 
ATOM      4  C   UNL     1      -4.296   3.360  25.938  0.00  0.00    +0.058 A 
ATOM      5  C   UNL     1      -3.543   3.377  25.603  0.00  0.00    +0.103 A 
ATOM      6  C   UNL     1      -3.446   3.601  24.816  0.00  0.00    +0.100 A 
ATOM      7  N   UNL     1      -2.642   3.566  24.637  0.00  0.00    -0.229 NA
ATOM      8  C   UNL     1      -2.240   3.319  25.315  0.00  0.00    +0.139 A 
ATOM     30  N   UNL     1      -2.798   3.203  25.912  0.00  0.00    -0.229 NA
ATOM     31  C   UNL     1      -4.103   3.809  24.362  0.00  0.00    +0.024 A 
ATOM     32  C   UNL     1      -4.857   3.792  24.697  0.00  0.00    +0.039 A 
BRANCH   3   2
ATOM      1  C   UNL     1      -6.134   2.844  25.840  0.00  0.00    +0.252 C 
ATOM      2  O   UNL     1      -5.708   3.551  25.820  0.00  0.00    -0.471 OA
ENDBRANCH   3   2
ENDBRANCH   9   8
ENDBRANCH  10   9
BRANCH  16  17
ATOM     17  C   UNL     1       0.011   0.585  23.991  0.00  0.00    +0.119 C 
BRANCH  17  18
ATOM     18  N   UNL     1       0.649   0.689  23.478  0.00  0.00    -0.203 NA
ATOM     19  C   UNL     1       1.019   0.031  23.142  0.00  0.00    +0.272 C 
ATOM     20  O   UNL     1       0.751  -0.728  23.320  0.00  0.00    -0.271 OA
BRANCH  19  21
ATOM     21  C   UNL     1       1.656   0.135  22.629  0.00  0.00    +0.229 C 
BRANCH  21  22
ATOM     22  O   UNL     1       2.426   0.151  22.926  0.00  0.00    -0.333 OA
BRANCH  22  23
ATOM     23  C   UNL     1       3.054   0.356  22.432  0.00  0.00    +0.257 C 
BRANCH  23  24
ATOM     24  C   UNL     1       3.792   0.535  22.756  0.00  0.00    +0.394 C 
ATOM     25  O   UNL     1       4.007   1.322  22.880  0.00  0.00    -0.243 OA
ATOM     26  O   UNL     1       4.314  -0.072  22.956  0.00  0.00    -0.243 OA
ENDBRANCH  23  24
ENDBRANCH  22  23
ENDBRANCH  21  22
ENDBRANCH  19  21
ENDBRANCH  17  18
ENDBRANCH  16  17
TORSDOF 10
ENDMDL
MODEL 3
REMARK VINA RESULT:      -7.4      2.795      4.477
REMARK  Name = 
REMARK  10 active torsions:
REMARK  status: ('A' for Active; 'I' for Inactive)
REMARK    1  A    between atoms: O_2  and  C_3
REMARK    2  A    between atoms: C_8  and  C_9
REMARK    3  A    between atoms: C_9  and  C_10
REMARK    4  A    between atoms: C_12  and  C_13
REMARK    5  A    between atoms: C_16  and  C_17
REMARK    6  A    between atoms: C_17  and  N_18
REMARK    7  A    between atoms: C_19  and  C_21
REMARK    8  A    between atoms: C_21  and  O_22
REMARK    9  A    between atoms: O_22  and  C_23
REMARK   10  A    between atoms: C_23  and  C_24
REMARK                            x       y       z     vdW  Elec       q    Type
REMARK                         _______ _______ _______ _____ _____    ______ ____
ROOT
ATOM     10  C   UNL     1      -4.453   1.416  24.591  0.00  0.00    +0.026 C 
ATOM     11  C   UNL     1      -4.007   1.513  23.904  0.00  0.00    +0.005 C 
ATOM     12  C   UNL     1      -3.520   2.173  23.818  0.00  0.00    +0.006 C 
ATOM     16  C   UNL     1      -3.480   2.737  24.419  0.00  0.00    +0.043 C 
ATOM     27  C   UNL     1      -3.926   2.641  25.106  0.00  0.00    -0.033 C 
ATOM     28  C   UNL     1      -4.413   1.981  25.192  0.00  0.00    -0.048 C 
ATOM     29  C   UNL     1      -4.860   1.884  25.879  0.00  0.00    +0.026 C 
ENDROOT
BRANCH  12  13
ATOM     13  C   UNL     1      -3.074   2.270  23.131  0.00  0.00    +0.000 C 
ATOM     14  C   UNL     1      -2.359   1.869  23.044  0.00  0.00    +0.000 C 
ATOM     15  C   UNL     1      -3.343   2.768  22.532  0.00  0.00    +0.000 C 
ENDBRANCH  12  13
BRANCH  10   9
ATOM      9  C   UNL     1      -4.940   0.756  24.678  0.00  0.00    +0.070 C 
BRANCH   9   8
ATOM      3  C   UNL     1      -3.368  -2.424  24.726  0.00  0.00    +0.140 A 
ATOM      4  C   UNL     1      -3.421  -1.706  25.128  0.00  0.00    +0.058 A 
ATOM      5  C   UNL     1      -3.916  -1.109  24.845  0.00  0.00    +0.103 A 
ATOM      6  C   UNL     1      -4.359  -1.231  24.160  0.00  0.00    +0.100 A 
ATOM      7  N   UNL     1      -4.796  -0.548  24.014  0.00  0.00    -0.229 NA
ATOM      8  C   UNL     1      -4.624  -0.002  24.609  0.00  0.00    +0.139 A 
ATOM     30  N   UNL     1      -4.080  -0.350  25.122  0.00  0.00    -0.229 NA
ATOM     31  C   UNL     1      -4.307  -1.950  23.757  0.00  0.00    +0.024 A 
ATOM     32  C   UNL     1      -3.811  -2.546  24.040  0.00  0.00    +0.039 A 
BRANCH   3   2
ATOM      1  C   UNL     1      -2.076  -3.028  24.796  0.00  0.00    +0.252 C 
ATOM      2  O   UNL     1      -2.873  -3.020  25.009  0.00  0.00    -0.471 OA
ENDBRANCH   3   2
ENDBRANCH   9   8
ENDBRANCH  10   9
BRANCH  16  17
ATOM     17  C   UNL     1      -2.993   3.398  24.333  0.00  0.00    +0.119 C 
BRANCH  17  18
ATOM     18  N   UNL     1      -2.272   3.433  24.732  0.00  0.00    -0.203 NA
ATOM     19  C   UNL     1      -1.965   4.164  24.965  0.00  0.00    +0.272 C 
ATOM     20  O   UNL     1      -2.379   4.857  24.797  0.00  0.00    -0.271 OA
BRANCH  19  21
ATOM     21  C   UNL     1      -1.245   4.199  25.364  0.00  0.00    +0.229 C 
BRANCH  21  22
ATOM     22  O   UNL     1      -0.935   3.519  25.716  0.00  0.00    -0.333 OA
BRANCH  22  23
ATOM     23  C   UNL     1      -0.119   3.436  25.803  0.00  0.00    +0.257 C 
BRANCH  23  24
ATOM     24  C   UNL     1       0.196   2.723  26.075  0.00  0.00    +0.394 C 
ATOM     25  O   UNL     1       0.584   2.217  25.551  0.00  0.00    -0.243 OA
ATOM     26  O   UNL     1       0.123   2.516  26.870  0.00  0.00    -0.243 OA
ENDBRANCH  23  24
ENDBRANCH  22  23
ENDBRANCH  21  22
ENDBRANCH  19  21
ENDBRANCH  17  18
ENDBRANCH  16  17
TORSDOF 10
ENDMDL
MODEL 4
REMARK VINA RESULT:      -7.3      1.294      2.136
REMARK  Name = 
REMARK  10 active torsions:
REMARK  status: ('A' for Active; 'I' for Inactive)
REMARK    1  A    between atoms: O_2  and  C_3
REMARK    2  A    between atoms: C_8  and  C_9
REMARK    3  A    between atoms: C_9  and  C_10
REMARK    4  A    between atoms: C_12  and  C_13
REMARK    5  A    between atoms: C_16  and  C_17
REMARK    6  A    between atoms: C_17  and  N_18
REMARK    7  A    between atoms: C_19  and  C_21
REMARK    8  A    between atoms: C_21  and  O_22
REMARK    9  A    between atoms: O_22  and  C_23
REMARK   10  A    between atoms: C_23  and  C_24
REMARK                            x       y       z     vdW  Elec       q    Type
REMARK                         _______ _______ _______ _____ _____    ______ ____
ROOT
ATOM     10  C   UNL     1      -2.688   2.751  23.628  0.00  0.00    +0.026 C 
ATOM     11  C   UNL     1      -2.217   2.981  24.265  0.00  0.00    +0.005 C 
ATOM     12  C   UNL     1      -1.485   2.623  24.387  0.00  0.00    +0.006 C 
ATOM     16  C   UNL     1      -1.223   2.035  23.871  0.00  0.00    +0.043 C 
ATOM     27  C   UNL     1      -1.693   1.804  23.234  0.00  0.00    -0.033 C 
ATOM     28  C   UNL     1      -2.426   2.163  23.113  0.00  0.00    -0.048 C 
ATOM     29  C   UNL     1      -2.897   1.932  22.475  0.00  0.00    +0.026 C 
ENDROOT
BRANCH  12  13
ATOM     13  C   UNL     1      -1.013   2.853  25.024  0.00  0.00    +0.000 C 
ATOM     14  C   UNL     1      -1.074   2.459  25.745  0.00  0.00    +0.000 C 
ATOM     15  C   UNL     1      -0.481   3.477  24.938  0.00  0.00    +0.000 C 
ENDBRANCH  12  13
BRANCH  10   9
ATOM      9  C   UNL     1      -3.421   3.110  23.506  0.00  0.00    +0.070 C 
BRANCH   9   8
ATOM      3  C   UNL     1      -6.056   2.330  25.750  0.00  0.00    +0.140 A 
ATOM      4  C   UNL     1      -5.593   2.023  25.140  0.00  0.00    +0.058 A 
ATOM      5  C   UNL     1      -5.011   2.490  24.787  0.00  0.00    +0.103 A 
ATOM      6  C   UNL     1      -4.892   3.263  25.045  0.00  0.00    +0.100 A 
ATOM      7  N   UNL     1      -4.281   3.590  24.597  0.00  0.00    -0.229 NA
ATOM      8  C   UNL     1      -4.023   3.018  24.061  0.00  0.00    +0.139 A 
ATOM     30  N   UNL     1      -4.475   2.338  24.179  0.00  0.00    -0.229 NA
ATOM     31  C   UNL     1      -5.353   3.572  25.656  0.00  0.00    +0.024 A 
ATOM     32  C   UNL     1      -5.935   3.105  26.008  0.00  0.00    +0.039 A 
BRANCH   3   2
ATOM      1  C   UNL     1      -6.508   1.537  26.849  0.00  0.00    +0.252 C 
ATOM      2  O   UNL     1      -6.637   1.863  26.102  0.00  0.00    -0.471 OA
ENDBRANCH   3   2
ENDBRANCH   9   8
ENDBRANCH  10   9
BRANCH  16  17
ATOM     17  C   UNL     1      -0.489   1.676  23.993  0.00  0.00    +0.119 C 
BRANCH  17  18
ATOM     18  N   UNL     1      -0.433   0.853  24.023  0.00  0.00    -0.203 NA
ATOM     19  C   UNL     1       0.276   0.481  23.820  0.00  0.00    +0.272 C 
ATOM     20  O   UNL     1       0.927   0.932  23.589  0.00  0.00    -0.271 OA
BRANCH  19  21
ATOM     21  C   UNL     1       0.332  -0.341  23.850  0.00  0.00    +0.229 C 
BRANCH  21  22
ATOM     22  O   UNL     1      -0.094  -0.763  24.417  0.00  0.00    -0.333 OA
BRANCH  22  23
ATOM     23  C   UNL     1      -0.255  -1.564  24.300  0.00  0.00    +0.257 C 
BRANCH  23  24
ATOM     24  C   UNL     1      -0.743  -1.968  24.829  0.00  0.00    +0.394 C 
ATOM     25  O   UNL     1      -0.483  -2.117  25.598  0.00  0.00    -0.243 OA
ATOM     26  O   UNL     1      -1.490  -2.223  24.589  0.00  0.00    -0.243 OA
ENDBRANCH  23  24
ENDBRANCH  22  23
ENDBRANCH  21  22
ENDBRANCH  19  21
ENDBRANCH  17  18
ENDBRANCH  16  17
TORSDOF 10
ENDMDL
MODEL 5
REMARK VINA RESULT:      -7.2      1.658      2.554
REMARK  Name = 
REMARK  10 active torsions:
REMARK  status: ('A' for Active; 'I' for Inactive)
REMARK    1  A    between atoms: O_2  and  C_3
REMARK    2  A    between atoms: C_8  and  C_9
REMARK    3  A    between atoms: C_9  and  C_10
REMARK    4  A    between atoms: C_12  and  C_13
REMARK    5  A    between atoms: C_16  and  C_17
REMARK    6  A    between atoms: C_17  and  N_18
REMARK    7  A    between atoms: C_19  and  C_21
REMARK    8  A    between atoms: C_21  and  O_22
REMARK    9  A    between atoms: O_22  and  C_23
REMARK   10  A    between atoms: C_23  and  C_24
REMARK                            x       y       z     vdW  Elec       q    Type
REMARK                         _______ _______ _______ _____ _____    ______ ____
ROOT
ATOM     10  C   UNL     1      -0.951  -0.251  24.760  0.00  0.00    +0.026 C 
ATOM     11  C   UNL     1      -0.904   0.570  24.810  0.00  0.00    +0.005 C 
ATOM     12  C   UNL     1      -0.277   0.970  24.455  0.00  0.00    +0.006 C 
ATOM     16  C   UNL     1       0.305   0.547  24.049  0.00  0.00    +0.043 C 
ATOM     27  C   UNL     1       0.258  -0.275  23.999  0.00  0.00    -0.033 C 
ATOM     28  C   UNL     1      -0.370  -0.674  24.355  0.00  0.00    -0.048 C 
ATOM     29  C   UNL     1      -0.417  -1.497  24.305  0.00  0.00    +0.026 C 
ENDROOT
BRANCH  12  13
ATOM     13  C   UNL     1      -0.229   1.792  24.504  0.00  0.00    +0.000 C 
ATOM     14  C   UNL     1      -0.539   2.261  23.900  0.00  0.00    +0.000 C 
ATOM     15  C   UNL     1       0.129   2.145  25.158  0.00  0.00    +0.000 C 
ENDBRANCH  12  13
BRANCH  10   9
ATOM      9  C   UNL     1      -1.580  -0.651  25.116  0.00  0.00    +0.070 C 
BRANCH   9   8
ATOM      3  C   UNL     1      -4.859   0.691  24.947  0.00  0.00    +0.140 A 
ATOM      4  C   UNL     1      -4.160   0.705  25.385  0.00  0.00    +0.058 A 
ATOM      5  C   UNL     1      -3.517   0.243  25.151  0.00  0.00    +0.103 A 
ATOM      6  C   UNL     1      -3.574  -0.233  24.481  0.00  0.00    +0.100 A 
ATOM      7  N   UNL     1      -2.855  -0.626  24.385  0.00  0.00    -0.229 NA
ATOM      8  C   UNL     1      -2.353  -0.393  24.998  0.00  0.00    +0.139 A 
ATOM     30  N   UNL     1      -2.763   0.145  25.471  0.00  0.00    -0.229 NA
ATOM     31  C   UNL     1      -4.273  -0.247  24.042  0.00  0.00    +0.024 A 
ATOM     32  C   UNL     1      -4.915   0.215  24.275  0.00  0.00    +0.039 A 
BRANCH   3   2
ATOM      1  C   UNL     1      -5.549   1.942  24.943  0.00  0.00    +0.252 C 
ATOM      2  O   UNL     1      -5.501   1.154  25.180  0.00  0.00    -0.471 OA
ENDBRANCH   3   2
ENDBRANCH   9   8
ENDBRANCH  10   9
BRANCH  16  17
ATOM     17  C   UNL     1       0.933   0.947  23.693  0.00  0.00    +0.119 C 
BRANCH  17  18
ATOM     18  N   UNL     1       1.580   0.523  23.405  0.00  0.00    -0.203 NA
ATOM     19  C   UNL     1       2.263   0.923  23.170  0.00  0.00    +0.272 C 
ATOM     20  O   UNL     1       2.299   1.746  23.224  0.00  0.00    -0.271 OA
BRANCH  19  21
ATOM     21  C   UNL     1       2.909   0.500  22.882  0.00  0.00    +0.229 C 
BRANCH  21  22
ATOM     22  O   UNL     1       3.660   0.623  23.203  0.00  0.00    -0.333 OA
BRANCH  22  23
ATOM     23  C   UNL     1       4.309   0.213  22.903  0.00  0.00    +0.257 C 
BRANCH  23  24
ATOM     24  C   UNL     1       4.986   0.117  23.365  0.00  0.00    +0.394 C 
ATOM     25  O   UNL     1       5.451   0.771  23.556  0.00  0.00    -0.243 OA
ATOM     26  O   UNL     1       5.197  -0.633  23.637  0.00  0.00    -0.243 OA
ENDBRANCH  23  24
ENDBRANCH  22  23
ENDBRANCH  21  22
ENDBRANCH  19  21
ENDBRANCH  17  18
ENDBRANCH  16  17
TORSDOF 10
ENDMDL
MODEL 6
REMARK VINA RESULT:      -7.1      1.311      6.512
REMARK  Name = 
REMARK  10 active torsions:
REMARK  status: ('A' for Active; 'I' for Inactive)
REMARK    1  A    between atoms: O_2  and  C_3
REMARK    2  A    between atoms: C_8  and  C_9
REMARK    3  A    between atoms: C_9  and  C_10
REMARK    4  A    between atoms: C_12  and  C_13
REMARK    5  A    between atoms: C_16  and  C_17
REMARK    6  A    between atoms: C_17  and  N_18
REMARK    7  A    between atoms: C_19  and  C_21
REMARK    8  A    between atoms: C_21  and  O_22
REMARK    9  A    between atoms: O_22  and  C_23
REMARK   10  A    between atoms: C_23  and  C_24
REMARK                            x       y       z     vdW  Elec       q    Type
REMARK                         _______ _______ _______ _____ _____    ______ ____
ROOT
ATOM     10  C   UNL     1      -0.877   0.601  24.642  0.00  0.00    +0.026 C 
ATOM     11  C   UNL     1      -0.439   1.260  24.870  0.00  0.00    +0.005 C 
ATOM     12  C   UNL     1      -0.823   1.960  25.076  0.00  0.00    +0.006 C 
ATOM     16  C   UNL     1      -1.646   2.000  25.054  0.00  0.00    +0.043 C 
ATOM     27  C   UNL     1      -2.086   1.341  24.825  0.00  0.00    -0.033 C 
ATOM     28  C   UNL     1      -1.701   0.641  24.619  0.00  0.00    -0.048 C 
ATOM     29  C   UNL     1      -2.141  -0.019  24.390  0.00  0.00    +0.026 C 
ENDROOT
BRANCH  12  13
ATOM     13  C   UNL     1      -0.384   2.620  25.305  0.00  0.00    +0.000 C 
ATOM     14  C   UNL     1      -0.205   3.208  24.756  0.00  0.00    +0.000 C 
ATOM     15  C   UNL     1      -0.124   2.692  26.085  0.00  0.00    +0.000 C 
ENDBRANCH  12  13
BRANCH  10   9
ATOM      9  C   UNL     1      -0.493  -0.100  24.435  0.00  0.00    +0.070 C 
BRANCH   9   8
ATOM      3  C   UNL     1       2.417   0.055  22.412  0.00  0.00    +0.140 A 
ATOM      4  C   UNL     1       2.143   0.142  23.185  0.00  0.00    +0.058 A 
ATOM      5  C   UNL     1       1.343   0.032  23.355  0.00  0.00    +0.103 A 
ATOM      6  C   UNL     1       0.817  -0.165  22.751  0.00  0.00    +0.100 A 
ATOM      7  N   UNL     1       0.065  -0.239  23.082  0.00  0.00    -0.229 NA
ATOM      8  C   UNL     1       0.126  -0.087  23.891  0.00  0.00    +0.139 A 
ATOM     30  N   UNL     1       0.916   0.080  24.059  0.00  0.00    -0.229 NA
ATOM     31  C   UNL     1       1.090  -0.253  21.978  0.00  0.00    +0.024 A 
ATOM     32  C   UNL     1       1.890  -0.143  21.808  0.00  0.00    +0.039 A 
BRANCH   3   2
ATOM      1  C   UNL     1       3.643   0.754  22.633  0.00  0.00    +0.252 C 
ATOM      2  O   UNL     1       3.217   0.165  22.243  0.00  0.00    -0.471 OA
ENDBRANCH   3   2
ENDBRANCH   9   8
ENDBRANCH  10   9
BRANCH  16  17
ATOM     17  C   UNL     1      -2.031   2.701  25.260  0.00  0.00    +0.119 C 
BRANCH  17  18
ATOM     18  N   UNL     1      -2.828   2.804  25.072  0.00  0.00    -0.203 NA
ATOM     19  C   UNL     1      -3.265   3.399  25.441  0.00  0.00    +0.272 C 
ATOM     20  O   UNL     1      -2.905   3.890  25.998  0.00  0.00    -0.271 OA
BRANCH  19  21
ATOM     21  C   UNL     1      -4.062   3.502  25.254  0.00  0.00    +0.229 C 
BRANCH  21  22
ATOM     22  O   UNL     1      -4.644   3.148  25.720  0.00  0.00    -0.333 OA
BRANCH  22  23
ATOM     23  C   UNL     1      -5.428   3.140  25.464  0.00  0.00    +0.257 C 
BRANCH  23  24
ATOM     24  C   UNL     1      -5.941   2.549  25.727  0.00  0.00    +0.394 C 
ATOM     25  O   UNL     1      -6.260   2.012  25.189  0.00  0.00    -0.243 OA
ATOM     26  O   UNL     1      -6.135   2.497  26.527  0.00  0.00    -0.243 OA
ENDBRANCH  23  24
ENDBRANCH  22  23
ENDBRANCH  21  22
ENDBRANCH  19  21
ENDBRANCH  17  18
ENDBRANCH  16  17
TORSDOF 10
ENDMDL
MODEL 7
REMARK VINA RESULT:      -7.0      3.036      5.245
REMARK  Name = 
REMARK  10 active torsions:
REMARK  status: ('A' for Active; 'I' for Inactive)
REMARK    1  A    between atoms: O_2  and  C_3
REMARK    2  A    between atoms: C_8  and  C_9
REMARK    3  A    between atoms: C_9  and  C_10
REMARK    4  A    between atoms: C_12  and  C_13
REMARK    5  A    between atoms: C_16  and  C_17
REMARK    6  A    between atoms: C_17  and  N_18
REMARK    7  A    between atoms: C_19  and  C_21
REMARK    8  A    between atoms: C_21  and  O_22
REMARK    9  A    between atoms: O_22  and  C_23
REMARK   10  A    between atoms: C_23  and  C_24
REMARK                            x       y       z     vdW  Elec       q    Type
REMARK                         _______ _______ _______ _____ _____    ______ ____
ROOT
ATOM     10  C   UNL     1      -4.092   0.787  23.836  0.00  0.00    +0.026 C 
ATOM     11  C   UNL     1      -4.689   0.841  24.402  0.00  0.00    +0.005 C 
ATOM     12  C   UNL     1      -4.774   1.529  24.848  0.00  0.00    +0.006 C 
ATOM     16  C   UNL     1      -4.261   2.164  24.729  0.00  0.00    +0.043 C 
ATOM     27  C   UNL     1      -3.664   2.111  24.163  0.00  0.00    -0.033 C 
ATOM     28  C   UNL     1      -3.579   1.422  23.717  0.00  0.00    -0.048 C 
ATOM     29  C   UNL     1      -2.981   1.369  23.150  0.00  0.00    +0.026 C 
ENDROOT
BRANCH  12  13
ATOM     13  C   UNL     1      -5.372   1.583  25.415  0.00  0.00    +0.000 C 
ATOM     14  C   UNL     1      -6.102   1.908  25.215  0.00  0.00    +0.000 C 
ATOM     15  C   UNL     1      -5.238   1.310  26.182  0.00  0.00    +0.000 C 
ENDBRANCH  12  13
BRANCH  10   9
ATOM      9  C   UNL     1      -4.007   0.099  23.389  0.00  0.00    +0.070 C 
BRANCH   9   8
ATOM      3  C   UNL     1      -2.273  -2.628  24.854  0.00  0.00    +0.140 A 
ATOM      4  C   UNL     1      -2.175  -1.866  24.554  0.00  0.00    +0.058 A 
ATOM      5  C   UNL     1      -2.825  -1.451  24.259  0.00  0.00    +0.103 A 
ATOM      6  C   UNL     1      -3.572  -1.799  24.264  0.00  0.00    +0.100 A 
ATOM      7  N   UNL     1      -4.106  -1.261  23.939  0.00  0.00    -0.229 NA
ATOM      8  C   UNL     1      -3.688  -0.580  23.733  0.00  0.00    +0.139 A 
ATOM     30  N   UNL     1      -2.896  -0.698  23.931  0.00  0.00    -0.229 NA
ATOM     31  C   UNL     1      -3.671  -2.561  24.564  0.00  0.00    +0.024 A 
ATOM     32  C   UNL     1      -3.022  -2.976  24.859  0.00  0.00    +0.039 A 
BRANCH   3   2
ATOM      1  C   UNL     1      -0.890  -2.669  25.210  0.00  0.00    +0.252 C 
ATOM      2  O   UNL     1      -1.624  -3.042  25.150  0.00  0.00    -0.471 OA
ENDBRANCH   3   2
ENDBRANCH   9   8
ENDBRANCH  10   9
BRANCH  16  17
ATOM     17  C   UNL     1      -4.346   2.853  25.176  0.00  0.00    +0.119 C 
BRANCH  17  18
ATOM     18  N   UNL     1      -3.678   3.265  25.427  0.00  0.00    -0.203 NA
ATOM     19  C   UNL     1      -3.727   4.074  25.585  0.00  0.00    +0.272 C 
ATOM     20  O   UNL     1      -4.445   4.470  25.490  0.00  0.00    -0.271 OA
BRANCH  19  21
ATOM     21  C   UNL     1      -3.059   4.487  25.837  0.00  0.00    +0.229 C 
BRANCH  21  22
ATOM     22  O   UNL     1      -2.443   4.636  25.307  0.00  0.00    -0.333 OA
BRANCH  22  23
ATOM     23  C   UNL     1      -1.719   4.917  25.586  0.00  0.00    +0.257 C 
BRANCH  23  24
ATOM     24  C   UNL     1      -1.077   4.984  25.071  0.00  0.00    +0.394 C 
ATOM     25  O   UNL     1      -0.651   4.312  24.855  0.00  0.00    -0.243 OA
ATOM     26  O   UNL     1      -0.863   5.723  24.773  0.00  0.00    -0.243 OA
ENDBRANCH  23  24
ENDBRANCH  22  23
ENDBRANCH  21  22
ENDBRANCH  19  21
ENDBRANCH  17  18
ENDBRANCH  16  17
TORSDOF 10
ENDMDL
MODEL 8
REMARK VINA RESULT:      -6.1      2.721      3.891
REMARK  Name = 
REMARK  10 active torsions:
REMARK  status: ('A' for Active; 'I' for Inactive)
REMARK    1  A    between atoms: O_2  and  C_3
REMARK    2  A    between atoms: C_8  and  C_9
REMARK    3  A    between atoms: C_9  and  C_10
REMARK    4  A    between atoms: C_12  and  C_13
REMARK    5  A    between atoms: C_16  and  C_17
REMARK    6  A    between atoms: C_17  and  N_18
REMARK    7  A    between atoms: C_19  and  C_21
REMARK    8  A    between atoms: C_21  and  O_22
REMARK    9  A    between atoms: O_22  and  C_23
REMARK   10  A    between atoms: C_23  and  C_24
REMARK                            x       y       z     vdW  Elec       q    Type
REMARK                         _______ _______ _______ _____ _____    ______ ____
ROOT
ATOM     10  C   UNL     1      -3.806   1.726  23.724  0.00  0.00    +0.026 C 
ATOM     11  C   UNL     1      -4.261   1.492  24.371  0.00  0.00    +0.005 C 
ATOM     12  C   UNL     1      -4.292   0.698  24.587  0.00  0.00    +0.006 C 
ATOM     16  C   UNL     1      -3.869   0.136  24.156  0.00  0.00    +0.043 C 
ATOM     27  C   UNL     1      -3.414   0.369  23.509  0.00  0.00    -0.033 C 
ATOM     28  C   UNL     1      -3.383   1.164  23.293  0.00  0.00    -0.048 C 
ATOM     29  C   UNL     1      -2.927   1.398  22.645  0.00  0.00    +0.026 C 
ENDROOT
BRANCH  12  13
ATOM     13  C   UNL     1      -4.747   0.463  25.235  0.00  0.00    +0.000 C 
ATOM     14  C   UNL     1      -5.564   0.383  25.158  0.00  0.00    +0.000 C 
ATOM     15  C   UNL     1      -4.384   0.309  25.959  0.00  0.00    +0.000 C 
ENDBRANCH  12  13
BRANCH  10   9
ATOM      9  C   UNL     1      -3.774   2.522  23.507  0.00  0.00    +0.070 C 
BRANCH   9   8
ATOM      3  C   UNL     1      -1.653   4.754  25.268  0.00  0.00    +0.140 A 
ATOM      4  C   UNL     1      -1.676   4.220  24.641  0.00  0.00    +0.058 A 
ATOM      5  C   UNL     1      -2.376   3.821  24.463  0.00  0.00    +0.103 A 
ATOM      6  C   UNL     1      -3.053   3.958  24.913  0.00  0.00    +0.100 A 
ATOM      7  N   UNL     1      -3.660   3.488  24.610  0.00  0.00    -0.229 NA
ATOM      8  C   UNL     1      -3.357   3.060  23.972  0.00  0.00    +0.139 A 
ATOM     30  N   UNL     1      -2.564   3.267  23.882  0.00  0.00    -0.229 NA
ATOM     31  C   UNL     1      -3.032   4.492  25.541  0.00  0.00    +0.024 A 
ATOM     32  C   UNL     1      -2.331   4.891  25.719  0.00  0.00    +0.039 A 
BRANCH   3   2
ATOM      1  C   UNL     1      -0.452   5.398  24.837  0.00  0.00    +0.252 C 
ATOM      2  O   UNL     1      -0.953   5.153  25.446  0.00  0.00    -0.471 OA
ENDBRANCH   3   2
ENDBRANCH   9   8
ENDBRANCH  10   9
BRANCH  16  17
ATOM     17  C   UNL     1      -3.900  -0.660  24.373  0.00  0.00    +0.119 C 
BRANCH  17  18
ATOM     18  N   UNL     1      -3.205  -1.101  24.425  0.00  0.00    -0.203 NA
ATOM     19  C   UNL     1      -3.235  -1.925  24.392  0.00  0.00    +0.272 C 
ATOM     20  O   UNL     1      -3.961  -2.308  24.307  0.00  0.00    -0.271 OA
BRANCH  19  21
ATOM     21  C   UNL     1      -2.540  -2.365  24.444  0.00  0.00    +0.229 C 
BRANCH  21  22
ATOM     22  O   UNL     1      -1.891  -2.063  24.855  0.00  0.00    -0.333 OA
BRANCH  22  23
ATOM     23  C   UNL     1      -1.129  -2.313  24.662  0.00  0.00    +0.257 C 
BRANCH  23  24
ATOM     24  C   UNL     1      -0.474  -1.900  24.951  0.00  0.00    +0.394 C 
ATOM     25  O   UNL     1      -0.202  -2.044  25.716  0.00  0.00    -0.243 OA
ATOM     26  O   UNL     1      -0.094  -1.345  24.475  0.00  0.00    -0.243 OA
ENDBRANCH  23  24
ENDBRANCH  22  23
ENDBRANCH  21  22
ENDBRANCH  19  21
ENDBRANCH  17  18
ENDBRANCH  16  17
TORSDOF 10
ENDMDL
MODEL 9
REMARK VINA RESULT:      -5.1      3.312      4.238
REMARK  Name = 
REMARK  10 active torsions:
REMARK  status: ('A' for Active; 'I' for Inactive)
REMARK    1  A    between atoms: O_2  and  C_3
REMARK    2  A    between atoms: C_8  and  C_9
REMARK    3  A    between atoms: C_9  and  C_10
REMARK    4  A    between atoms: C_12  and  C_13
REMARK    5  A    between atoms: C_16  and  C_17
REMARK    6  A    between atoms: C_17  and  N_18
REMARK    7  A    between atoms: C_19  and  C_21
REMARK    8  A    between atoms: C_21  and  O_22
REMARK    9  A    between atoms: O_22  and  C_23
REMARK   10  A    between atoms: C_23  and  C_24
REMARK                            x       y       z     vdW  Elec       q    Type
REMARK                         _______ _______ _______ _____ _____    ______ ____
ROOT
ATOM     10  C   UNL     1      -1.272   1.661  24.232  0.00  0.00    +0.026 C 
ATOM     11  C   UNL     1      -1.642   2.310  24.581  0.00  0.00    +0.005 C 
ATOM     12  C   UNL     1      -1.270   2.716  25.195  0.00  0.00    +0.006 C 
ATOM     16  C   UNL     1      -0.528   2.473  25.460  0.00  0.00    +0.043 C 
ATOM     27  C   UNL     1      -0.157   1.823  25.111  0.00  0.00    -0.033 C 
ATOM     28  C   UNL     1      -0.530   1.418  24.497  0.00  0.00    -0.048 C 
ATOM     29  C   UNL     1      -0.159   0.768  24.148  0.00  0.00    +0.026 C 
ENDROOT
BRANCH  12  13
ATOM     13  C   UNL     1      -1.640   3.365  25.544  0.00  0.00    +0.000 C 
ATOM     14  C   UNL     1      -2.188   3.252  26.150  0.00  0.00    +0.000 C 
ATOM     15  C   UNL     1      -1.462   4.128  25.287  0.00  0.00    +0.000 C 
ENDBRANCH  12  13
BRANCH  10   9
ATOM      9  C   UNL     1      -1.644   1.254  23.618  0.00  0.00    +0.070 C 
BRANCH   9   8
ATOM      3  C   UNL     1      -3.963  -1.314  24.401  0.00  0.00    +0.140 A 
ATOM      4  C   UNL     1      -3.158  -1.147  24.334  0.00  0.00    +0.058 A 
ATOM      5  C   UNL     1      -2.909  -0.392  24.114  0.00  0.00    +0.103 A 
ATOM      6  C   UNL     1      -3.466   0.197  23.961  0.00  0.00    +0.100 A 
ATOM      7  N   UNL     1      -3.060   0.885  23.757  0.00  0.00    -0.229 NA
ATOM      8  C   UNL     1      -2.251   0.722  23.783  0.00  0.00    +0.139 A 
ATOM     30  N   UNL     1      -2.159  -0.068  24.004  0.00  0.00    -0.229 NA
ATOM     31  C   UNL     1      -4.272   0.031  24.028  0.00  0.00    +0.024 A 
ATOM     32  C   UNL     1      -4.520  -0.725  24.247  0.00  0.00    +0.039 A 
BRANCH   3   2
ATOM      1  C   UNL     1      -4.130  -2.700  24.093  0.00  0.00    +0.252 C 
ATOM      2  O   UNL     1      -4.211  -2.070  24.620  0.00  0.00    -0.471 OA
ENDBRANCH   3   2
ENDBRANCH   9   8
ENDBRANCH  10   9
BRANCH  16  17
ATOM     17  C   UNL     1      -0.155   2.879  26.074  0.00  0.00    +0.119 C 
BRANCH  17  18
ATOM     18  N   UNL     1       0.022   2.488  26.779  0.00  0.00    -0.203 NA
ATOM     19  C   UNL     1       0.701   2.690  27.203  0.00  0.00    +0.272 C 
ATOM     20  O   UNL     1       1.201   3.283  26.922  0.00  0.00    -0.271 OA
BRANCH  19  21
ATOM     21  C   UNL     1       0.878   2.299  27.907  0.00  0.00    +0.229 C 
BRANCH  21  22
ATOM     22  O   UNL     1       1.474   2.588  28.400  0.00  0.00    -0.333 OA
BRANCH  22  23
ATOM     23  C   UNL     1       1.420   2.482  29.217  0.00  0.00    +0.257 C 
BRANCH  23  24
ATOM     24  C   UNL     1       2.107   2.398  29.667  0.00  0.00    +0.394 C 
ATOM     25  O   UNL     1       2.766   2.867  29.506  0.00  0.00    -0.243 OA
ATOM     26  O   UNL     1       2.134   1.845  30.278  0.00  0.00    -0.243 OA
ENDBRANCH  23  24
ENDBRANCH  22  23
ENDBRANCH  21  22
ENDBRANCH  19  21
ENDBRANCH  17  18
ENDBRANCH  16  17
TORSDOF 10
ENDMDL
