MODEL 1
REMARK VINA RESULT:     -10.6      0.000      0.000
REMARK  Name = 
REMARK  7 active torsions:
REMARK  status: ('A' for Active; 'I' for Inactive)
REMARK    1  A    between atoms: C_2  and  C_4
REMARK    2  A    between atoms: C_6  and  C_7
REMARK    3  A    between atoms: C_7  and  C_8
REMARK    4  A    between atoms: N_10  and  C_11
REMARK    5  A    between atoms: C_11  and  C_12
REMARK    6  A    between atoms: C_21  and  C_22
REMARK    7  A    between atoms: C_22  and  N_23
REMARK                            x       y       z     vdW  Elec       q    Type
REMARK                         _______ _______ _______ _____ _____    ______ ____
ROOT
ATOM      4  C   UNL     1      -2.122   2.180  24.673  0.00  0.00    +0.006 C 
ATOM      5  C   UNL     1      -2.719   1.639  24.489  0.00  0.00    +0.005 C 
ATOM      6  C   UNL     1      -3.480   1.908  24.320  0.00  0.00    +0.027 C 
ATOM     18  C   UNL     1      -3.646   2.716  24.335  0.00  0.00    -0.048 C 
ATOM     19  C   UNL     1      -4.407   2.984  24.166  0.00  0.00    +0.026 C 
ATOM     20  C   UNL     1      -3.050   3.255  24.519  0.00  0.00    -0.033 C 
ATOM     21  C   UNL     1      -2.288   2.988  24.688  0.00  0.00    +0.043 C 
ENDROOT
BRANCH   4   2
ATOM      1  C   UNL     1      -0.828   1.770  24.227  0.00  0.00    +0.000 C 
ATOM      2  C   UNL     1      -1.361   1.911  24.841  0.00  0.00    +0.000 C 
ATOM      3  C   UNL     1      -1.132   1.784  25.623  0.00  0.00    +0.000 C 
ENDBRANCH   4   2
BRANCH   6   7
ATOM      7  C   UNL     1      -4.076   1.368  24.136  0.00  0.00    +0.091 C 
BRANCH   7   8
ATOM      8  C   UNL     1      -4.223   0.730  24.640  0.00  0.00    +0.242 C 
ATOM      9  O   UNL     1      -4.540   0.862  25.390  0.00  0.00    -0.273 OA
ATOM     10  N   UNL     1      -4.054  -0.039  24.392  0.00  0.00    -0.200 NA
BRANCH  10  11
ATOM     11  C   UNL     1      -4.202  -0.676  24.895  0.00  0.00    +0.143 C 
BRANCH  11  12
ATOM     12  C   UNL     1      -3.977  -1.437  24.673  0.00  0.00    +0.019 A 
ATOM     13  C   UNL     1      -3.428  -1.854  25.124  0.00  0.00    +0.001 A 
ATOM     14  C   UNL     1      -3.202  -2.616  24.901  0.00  0.00    +0.020 A 
ATOM     15  C   UNL     1      -3.527  -2.960  24.225  0.00  0.00    +0.099 A 
ATOM     16  N   UNL     1      -4.076  -2.543  23.773  0.00  0.00    -0.243 NA
ATOM     17  C   UNL     1      -4.301  -1.782  23.996  0.00  0.00    +0.096 A 
ENDBRANCH  11  12
ENDBRANCH  10  11
ENDBRANCH   7   8
ENDBRANCH   6   7
BRANCH  21  22
ATOM     22  C   UNL     1      -1.692   3.527  24.871  0.00  0.00    +0.119 C 
BRANCH  22  23
ATOM     23  N   UNL     1      -1.878   4.323  24.986  0.00  0.00    -0.205 NA
ATOM     24  C   UNL     1      -1.276   4.888  25.007  0.00  0.00    +0.242 C 
ATOM     25  C   UNL     1      -1.461   5.684  25.122  0.00  0.00    +0.096 C 
ATOM     26  O   UNL     1      -0.490   4.657  24.913  0.00  0.00    -0.273 OA
ENDBRANCH  22  23
ENDBRANCH  21  22
TORSDOF 7
ENDMDL
MODEL 2
REMARK VINA RESULT:     -10.1      1.391      5.132
REMARK  Name = 
REMARK  7 active torsions:
REMARK  status: ('A' for Active; 'I' for Inactive)
REMARK    1  A    between atoms: C_2  and  C_4
REMARK    2  A    between atoms: C_6  and  C_7
REMARK    3  A    between atoms: C_7  and  C_8
REMARK    4  A    between atoms: N_10  and  C_11
REMARK    5  A    between atoms: C_11  and  C_12
REMARK    6  A    between atoms: C_21  and  C_22
REMARK    7  A    between atoms: C_22  and  N_23
REMARK                            x       y       z     vdW  Elec       q    Type
REMARK                         _______ _______ _______ _____ _____    ______ ____
ROOT
ATOM      4  C   UNL     1      -2.950   0.460  24.807  0.00  0.00    +0.006 C 
ATOM      5  C   UNL     1      -3.107   1.271  24.808  0.00  0.00    +0.005 C 
ATOM      6  C   UNL     1      -3.884   1.540  24.746  0.00  0.00    +0.027 C 
ATOM     18  C   UNL     1      -4.504   1.000  24.684  0.00  0.00    -0.048 C 
ATOM     19  C   UNL     1      -5.281   1.270  24.622  0.00  0.00    +0.026 C 
ATOM     20  C   UNL     1      -4.348   0.191  24.683  0.00  0.00    -0.033 C 
ATOM     21  C   UNL     1      -3.571  -0.080  24.745  0.00  0.00    +0.043 C 
ENDROOT
BRANCH   4   2
ATOM      1  C   UNL     1      -1.871  -0.033  25.604  0.00  0.00    +0.000 C 
ATOM      2  C   UNL     1      -2.173   0.191  24.869  0.00  0.00    +0.000 C 
ATOM      3  C   UNL     1      -1.698   0.144  24.197  0.00  0.00    +0.000 C 
ENDBRANCH   4   2
BRANCH   6   7
ATOM      7  C   UNL     1      -4.040   2.350  24.747  0.00  0.00    +0.091 C 
BRANCH   7   8
ATOM      8  C   UNL     1      -3.665   2.841  25.295  0.00  0.00    +0.242 C 
ATOM      9  O   UNL     1      -3.904   2.836  26.085  0.00  0.00    -0.273 OA
ATOM     10  N   UNL     1      -3.052   3.338  25.052  0.00  0.00    -0.200 NA
BRANCH  10  11
ATOM     11  C   UNL     1      -2.678   3.829  25.600  0.00  0.00    +0.143 C 
BRANCH  11  12
ATOM     12  C   UNL     1      -2.019   4.271  25.374  0.00  0.00    +0.019 A 
ATOM     13  C   UNL     1      -1.293   3.899  25.260  0.00  0.00    +0.001 A 
ATOM     14  C   UNL     1      -0.634   4.342  25.034  0.00  0.00    +0.020 A 
ATOM     15  C   UNL     1      -0.703   5.156  24.923  0.00  0.00    +0.099 A 
ATOM     16  N   UNL     1      -1.430   5.528  25.037  0.00  0.00    -0.243 NA
ATOM     17  C   UNL     1      -2.088   5.086  25.263  0.00  0.00    +0.096 A 
ENDBRANCH  11  12
ENDBRANCH  10  11
ENDBRANCH   7   8
ENDBRANCH   6   7
BRANCH  21  22
ATOM     22  C   UNL     1      -3.414  -0.889  24.744  0.00  0.00    +0.119 C 
BRANCH  22  23
ATOM     23  N   UNL     1      -3.854  -1.394  24.262  0.00  0.00    -0.205 NA
ATOM     24  C   UNL     1      -3.851  -2.207  24.403  0.00  0.00    +0.242 C 
ATOM     25  C   UNL     1      -4.291  -2.712  23.921  0.00  0.00    +0.096 C 
ATOM     26  O   UNL     1      -3.408  -2.515  25.027  0.00  0.00    -0.273 OA
ENDBRANCH  22  23
ENDBRANCH  21  22
TORSDOF 7
ENDMDL
MODEL 3
REMARK VINA RESULT:     -10.0      1.579      5.522
REMARK  Name = 
REMARK  7 active torsions:
REMARK  status: ('A' for Active; 'I' for Inactive)
REMARK    1  A    between atoms: C_2  and  C_4
REMARK    2  A    between atoms: C_6  and  C_7
REMARK    3  A    between atoms: C_7  and  C_8
REMARK    4  A    between atoms: N_10  and  C_11
REMARK    5  A    between atoms: C_11  and  C_12
REMARK    6  A    between atoms: C_21  and  C_22
REMARK    7  A    between atoms: C_22  and  N_23
REMARK                            x       y       z     vdW  Elec       q    Type
REMARK                         _______ _______ _______ _____ _____    ______ ____
ROOT
ATOM      4  C   UNL     1      -2.831   0.169  24.600  0.00  0.00    +0.006 C 
ATOM      5  C   UNL     1      -2.200   0.696  24.682  0.00  0.00    +0.005 C 
ATOM      6  C   UNL     1      -1.426   0.412  24.706  0.00  0.00    +0.027 C 
ATOM     18  C   UNL     1      -1.282  -0.398  24.648  0.00  0.00    -0.048 C 
ATOM     19  C   UNL     1      -0.508  -0.681  24.672  0.00  0.00    +0.026 C 
ATOM     20  C   UNL     1      -1.911  -0.924  24.566  0.00  0.00    -0.033 C 
ATOM     21  C   UNL     1      -2.686  -0.641  24.541  0.00  0.00    +0.043 C 
ENDROOT
BRANCH   4   2
ATOM      1  C   UNL     1      -3.915   0.744  23.868  0.00  0.00    +0.000 C 
ATOM      2  C   UNL     1      -3.605   0.453  24.575  0.00  0.00    +0.000 C 
ATOM      3  C   UNL     1      -4.068   0.446  25.257  0.00  0.00    +0.000 C 
ENDBRANCH   4   2
BRANCH   6   7
ATOM      7  C   UNL     1      -0.797   0.939  24.789  0.00  0.00    +0.091 C 
BRANCH   7   8
ATOM      8  C   UNL     1      -0.829   1.532  25.362  0.00  0.00    +0.242 C 
ATOM      9  O   UNL     1      -0.764   1.339  26.161  0.00  0.00    -0.273 OA
ATOM     10  N   UNL     1      -0.926   2.320  25.134  0.00  0.00    -0.200 NA
BRANCH  10  11
ATOM     11  C   UNL     1      -0.958   2.913  25.707  0.00  0.00    +0.143 C 
BRANCH  11  12
ATOM     12  C   UNL     1      -1.143   3.687  25.489  0.00  0.00    +0.019 A 
ATOM     13  C   UNL     1      -1.880   4.004  25.679  0.00  0.00    +0.001 A 
ATOM     14  C   UNL     1      -2.064   4.779  25.460  0.00  0.00    +0.020 A 
ATOM     15  C   UNL     1      -1.511   5.234  25.051  0.00  0.00    +0.099 A 
ATOM     16  N   UNL     1      -0.775   4.916  24.860  0.00  0.00    -0.243 NA
ATOM     17  C   UNL     1      -0.590   4.143  25.079  0.00  0.00    +0.096 A 
ENDBRANCH  11  12
ENDBRANCH  10  11
ENDBRANCH   7   8
ENDBRANCH   6   7
BRANCH  21  22
ATOM     22  C   UNL     1      -3.315  -1.167  24.459  0.00  0.00    +0.119 C 
BRANCH  22  23
ATOM     23  N   UNL     1      -3.208  -1.968  24.626  0.00  0.00    -0.205 NA
ATOM     24  C   UNL     1      -3.730  -2.528  24.318  0.00  0.00    +0.242 C 
ATOM     25  C   UNL     1      -3.623  -3.329  24.485  0.00  0.00    +0.096 C 
ATOM     26  O   UNL     1      -4.359  -2.286  23.842  0.00  0.00    -0.273 OA
ENDBRANCH  22  23
ENDBRANCH  21  22
TORSDOF 7
ENDMDL
MODEL 4
REMARK VINA RESULT:      -9.9      1.086      2.031
REMARK  Name = 
REMARK  7 active torsions:
REMARK  status: ('A' for Active; 'I' for Inactive)
REMARK    1  A    between atoms: C_2  and  C_4
REMARK    2  A    between atoms: C_6  and  C_7
REMARK    3  A    between atoms: C_7  and  C_8
REMARK    4  A    between atoms: N_10  and  C_11
REMARK    5  A    between atoms: C_11  and  C_12
REMARK    6  A    between atoms: C_21  and  C_22
REMARK    7  A    between atoms: C_22  and  N_23
REMARK                            x       y       z     vdW  Elec       q    Type
REMARK                         _______ _______ _______ _____ _____    ______ ____
ROOT
ATOM      4  C   UNL     1      -2.486   2.245  24.792  0.00  0.00    +0.006 C 
ATOM      5  C   UNL     1      -2.310   1.439  24.757  0.00  0.00    +0.005 C 
ATOM      6  C   UNL     1      -1.551   1.175  24.941  0.00  0.00    +0.027 C 
ATOM     18  C   UNL     1      -0.967   1.715  25.160  0.00  0.00    -0.048 C 
ATOM     19  C   UNL     1      -0.209   1.450  25.344  0.00  0.00    +0.026 C 
ATOM     20  C   UNL     1      -1.143   2.520  25.195  0.00  0.00    -0.033 C 
ATOM     21  C   UNL     1      -1.902   2.785  25.010  0.00  0.00    +0.043 C 
ENDROOT
BRANCH   4   2
ATOM      1  C   UNL     1      -3.799   2.624  25.209  0.00  0.00    +0.000 C 
ATOM      2  C   UNL     1      -3.245   2.509  24.607  0.00  0.00    +0.000 C 
ATOM      3  C   UNL     1      -3.451   2.658  23.824  0.00  0.00    +0.000 C 
ENDBRANCH   4   2
BRANCH   6   7
ATOM      7  C   UNL     1      -1.376   0.369  24.907  0.00  0.00    +0.091 C 
BRANCH   7   8
ATOM      8  C   UNL     1      -1.869  -0.176  25.282  0.00  0.00    +0.242 C 
ATOM      9  O   UNL     1      -1.898  -0.207  26.106  0.00  0.00    -0.273 OA
ATOM     10  N   UNL     1      -2.334  -0.690  24.833  0.00  0.00    -0.200 NA
BRANCH  10  11
ATOM     11  C   UNL     1      -2.826  -1.235  25.209  0.00  0.00    +0.143 C 
BRANCH  11  12
ATOM     12  C   UNL     1      -3.294  -1.744  24.760  0.00  0.00    +0.019 A 
ATOM     13  C   UNL     1      -3.905  -1.443  24.297  0.00  0.00    +0.001 A 
ATOM     14  C   UNL     1      -4.373  -1.953  23.847  0.00  0.00    +0.020 A 
ATOM     15  C   UNL     1      -4.229  -2.765  23.862  0.00  0.00    +0.099 A 
ATOM     16  N   UNL     1      -3.618  -3.067  24.326  0.00  0.00    -0.243 NA
ATOM     17  C   UNL     1      -3.150  -2.557  24.775  0.00  0.00    +0.096 A 
ENDBRANCH  11  12
ENDBRANCH  10  11
ENDBRANCH   7   8
ENDBRANCH   6   7
BRANCH  21  22
ATOM     22  C   UNL     1      -2.077   3.590  25.045  0.00  0.00    +0.119 C 
BRANCH  22  23
ATOM     23  N   UNL     1      -1.496   4.147  24.864  0.00  0.00    -0.205 NA
ATOM     24  C   UNL     1      -1.565   4.921  25.143  0.00  0.00    +0.242 C 
ATOM     25  C   UNL     1      -0.984   5.478  24.962  0.00  0.00    +0.096 C 
ATOM     26  O   UNL     1      -2.215   5.137  25.602  0.00  0.00    -0.273 OA
ENDBRANCH  22  23
ENDBRANCH  21  22
TORSDOF 7
ENDMDL
MODEL 5
REMARK VINA RESULT:      -9.1      2.254      3.231
REMARK  Name = 
REMARK  7 active torsions:
REMARK  status: ('A' for Active; 'I' for Inactive)
REMARK    1  A    between atoms: C_2  and  C_4
REMARK    2  A    between atoms: C_6  and  C_7
REMARK    3  A    between atoms: C_7  and  C_8
REMARK    4  A    between atoms: N_10  and  C_11
REMARK    5  A    between atoms: C_11  and  C_12
REMARK    6  A    between atoms: C_21  and  C_22
REMARK    7  A    between atoms: C_22  and  N_23
REMARK                            x       y       z     vdW  Elec       q    Type
REMARK                         _______ _______ _______ _____ _____    ______ ____
ROOT
ATOM      4  C   UNL     1      -2.725   3.365  24.985  0.00  0.00    +0.006 C 
ATOM      5  C   UNL     1      -2.100   3.051  24.546  0.00  0.00    +0.005 C 
ATOM      6  C   UNL     1      -2.256   2.548  23.911  0.00  0.00    +0.027 C 
ATOM     18  C   UNL     1      -3.035   2.360  23.714  0.00  0.00    -0.048 C 
ATOM     19  C   UNL     1      -3.189   1.857  23.079  0.00  0.00    +0.026 C 
ATOM     20  C   UNL     1      -3.658   2.674  24.153  0.00  0.00    -0.033 C 
ATOM     21  C   UNL     1      -3.503   3.177  24.788  0.00  0.00    +0.043 C 
ENDROOT
BRANCH   4   2
ATOM      1  C   UNL     1      -2.473   4.678  25.491  0.00  0.00    +0.000 C 
ATOM      2  C   UNL     1      -2.569   3.868  25.620  0.00  0.00    +0.000 C 
ATOM      3  C   UNL     1      -2.510   3.563  26.383  0.00  0.00    +0.000 C 
ENDBRANCH   4   2
BRANCH   6   7
ATOM      7  C   UNL     1      -1.632   2.234  23.472  0.00  0.00    +0.091 C 
BRANCH   7   8
ATOM      8  C   UNL     1      -1.011   1.849  23.857  0.00  0.00    +0.242 C 
ATOM      9  O   UNL     1      -0.327   2.265  24.055  0.00  0.00    -0.273 OA
ATOM     10  N   UNL     1      -1.075   1.047  24.043  0.00  0.00    -0.200 NA
BRANCH  10  11
ATOM     11  C   UNL     1      -0.455   0.662  24.427  0.00  0.00    +0.143 C 
BRANCH  11  12
ATOM     12  C   UNL     1      -0.551  -0.114  24.688  0.00  0.00    +0.019 A 
ATOM     13  C   UNL     1      -0.926  -0.264  25.406  0.00  0.00    +0.001 A 
ATOM     14  C   UNL     1      -1.022  -1.042  25.667  0.00  0.00    +0.020 A 
ATOM     15  C   UNL     1      -0.742  -1.668  25.209  0.00  0.00    +0.099 A 
ATOM     16  N   UNL     1      -0.367  -1.518  24.491  0.00  0.00    -0.243 NA
ATOM     17  C   UNL     1      -0.270  -0.741  24.230  0.00  0.00    +0.096 A 
ENDBRANCH  11  12
ENDBRANCH  10  11
ENDBRANCH   7   8
ENDBRANCH   6   7
BRANCH  21  22
ATOM     22  C   UNL     1      -4.127   3.491  25.227  0.00  0.00    +0.119 C 
BRANCH  22  23
ATOM     23  N   UNL     1      -4.792   3.030  25.386  0.00  0.00    -0.205 NA
ATOM     24  C   UNL     1      -5.500   3.391  25.612  0.00  0.00    +0.242 C 
ATOM     25  C   UNL     1      -6.166   2.931  25.771  0.00  0.00    +0.096 C 
ATOM     26  O   UNL     1      -5.541   4.212  25.677  0.00  0.00    -0.273 OA
ENDBRANCH  22  23
ENDBRANCH  21  22
TORSDOF 7
ENDMDL
MODEL 6
REMARK VINA RESULT:      -8.8      2.232      4.028
REMARK  Name = 
REMARK  7 active torsions:
REMARK  status: ('A' for Active; 'I' for Inactive)
REMARK    1  A    between atoms: C_2  and  C_4
REMARK    2  A    between atoms: C_6  and  C_7
REMARK    3  A    between atoms: C_7  and  C_8
REMARK    4  A    between atoms: N_10  and  C_11
REMARK    5  A    between atoms: C_11  and  C_12
REMARK    6  A    between atoms: C_21  and  C_22
REMARK    7  A    between atoms: C_22  and  N_23
REMARK                            x       y       z     vdW  Elec       q    Type
REMARK                         _______ _______ _______ _____ _____    ______ ____
ROOT
ATOM      4  C   UNL     1      -1.527   1.029  24.736  0.00  0.00    +0.006 C 
ATOM      5  C   UNL     1      -1.952   1.681  25.012  0.00  0.00    +0.005 C 
ATOM      6  C   UNL     1      -1.642   2.441  24.929  0.00  0.00    +0.027 C 
ATOM     18  C   UNL     1      -0.907   2.549  24.571  0.00  0.00    -0.048 C 
ATOM     19  C   UNL     1      -0.597   3.309  24.488  0.00  0.00    +0.026 C 
ATOM     20  C   UNL     1      -0.482   1.899  24.295  0.00  0.00    -0.033 C 
ATOM     21  C   UNL     1      -0.792   1.138  24.378  0.00  0.00    +0.043 C 
ENDROOT
BRANCH   4   2
ATOM      1  C   UNL     1      -2.321  -0.045  24.228  0.00  0.00    +0.000 C 
ATOM      2  C   UNL     1      -1.837   0.270  24.819  0.00  0.00    +0.000 C 
ATOM      3  C   UNL     1      -1.665  -0.175  25.491  0.00  0.00    +0.000 C 
ENDBRANCH   4   2
BRANCH   6   7
ATOM      7  C   UNL     1      -2.067   3.091  25.205  0.00  0.00    +0.091 C 
BRANCH   7   8
ATOM      8  C   UNL     1      -2.806   3.268  24.881  0.00  0.00    +0.242 C 
ATOM      9  O   UNL     1      -2.856   3.635  24.144  0.00  0.00    -0.273 OA
ATOM     10  N   UNL     1      -3.494   3.077  25.295  0.00  0.00    -0.200 NA
BRANCH  10  11
ATOM     11  C   UNL     1      -4.232   3.254  24.970  0.00  0.00    +0.143 C 
BRANCH  11  12
ATOM     12  C   UNL     1      -4.908   2.881  25.259  0.00  0.00    +0.019 A 
ATOM     13  C   UNL     1      -5.255   2.268  24.832  0.00  0.00    +0.001 A 
ATOM     14  C   UNL     1      -5.933   1.895  25.121  0.00  0.00    +0.020 A 
ATOM     15  C   UNL     1      -6.261   2.136  25.839  0.00  0.00    +0.099 A 
ATOM     16  N   UNL     1      -5.914   2.749  26.266  0.00  0.00    -0.243 NA
ATOM     17  C   UNL     1      -5.237   3.122  25.977  0.00  0.00    +0.096 A 
ENDBRANCH  11  12
ENDBRANCH  10  11
ENDBRANCH   7   8
ENDBRANCH   6   7
BRANCH  21  22
ATOM     22  C   UNL     1      -0.367   0.488  24.102  0.00  0.00    +0.119 C 
BRANCH  22  23
ATOM     23  N   UNL     1       0.254   0.596  23.571  0.00  0.00    -0.205 NA
ATOM     24  C   UNL     1       0.711  -0.050  23.332  0.00  0.00    +0.242 C 
ATOM     25  C   UNL     1       1.332   0.058  22.800  0.00  0.00    +0.096 C 
ATOM     26  O   UNL     1       0.545  -0.802  23.626  0.00  0.00    -0.273 OA
ENDBRANCH  22  23
ENDBRANCH  21  22
TORSDOF 7
ENDMDL
MODEL 7
REMARK VINA RESULT:      -8.6      2.093      3.935
REMARK  Name = 
REMARK  7 active torsions:
REMARK  status: ('A' for Active; 'I' for Inactive)
REMARK    1  A    between atoms: C_2  and  C_4
REMARK    2  A    between atoms: C_6  and  C_7
REMARK    3  A    between atoms: C_7  and  C_8
REMARK    4  A    between atoms: N_10  and  C_11
REMARK    5  A    between atoms: C_11  and  C_12
REMARK    6  A    between atoms: C_21  and  C_22
REMARK    7  A    between atoms: C_22  and  N_23
REMARK                            x       y       z     vdW  Elec       q    Type
REMARK                         _______ _______ _______ _____ _____    ______ ____
ROOT
ATOM      4  C   UNL     1      -1.413   0.973  24.538  0.00  0.00    +0.006 C 
ATOM      5  C   UNL     1      -2.161   0.794  24.840  0.00  0.00    +0.005 C 
ATOM      6  C   UNL     1      -2.413   0.010  24.878  0.00  0.00    +0.027 C 
ATOM     18  C   UNL     1      -1.919  -0.596  24.614  0.00  0.00    -0.048 C 
ATOM     19  C   UNL     1      -2.172  -1.380  24.652  0.00  0.00    +0.026 C 
ATOM     20  C   UNL     1      -1.173  -0.417  24.312  0.00  0.00    -0.033 C 
ATOM     21  C   UNL     1      -0.920   0.367  24.273  0.00  0.00    +0.043 C 
ENDROOT
BRANCH   4   2
ATOM      1  C   UNL     1      -0.767   2.095  25.142  0.00  0.00    +0.000 C 
ATOM      2  C   UNL     1      -1.161   1.757  24.500  0.00  0.00    +0.000 C 
ATOM      3  C   UNL     1      -1.303   2.204  23.822  0.00  0.00    +0.000 C 
ENDBRANCH   4   2
BRANCH   6   7
ATOM      7  C   UNL     1      -3.160  -0.168  25.180  0.00  0.00    +0.091 C 
BRANCH   7   8
ATOM      8  C   UNL     1      -3.831   0.182  24.851  0.00  0.00    +0.242 C 
ATOM      9  O   UNL     1      -4.125  -0.088  24.129  0.00  0.00    -0.273 OA
ATOM     10  N   UNL     1      -4.209   0.801  25.245  0.00  0.00    -0.200 NA
BRANCH  10  11
ATOM     11  C   UNL     1      -4.880   1.150  24.916  0.00  0.00    +0.143 C 
BRANCH  11  12
ATOM     12  C   UNL     1      -5.145   1.879  25.198  0.00  0.00    +0.019 A 
ATOM     13  C   UNL     1      -4.889   2.577  24.842  0.00  0.00    +0.001 A 
ATOM     14  C   UNL     1      -5.154   3.306  25.124  0.00  0.00    +0.020 A 
ATOM     15  C   UNL     1      -5.676   3.335  25.762  0.00  0.00    +0.099 A 
ATOM     16  N   UNL     1      -5.932   2.638  26.118  0.00  0.00    -0.243 NA
ATOM     17  C   UNL     1      -5.667   1.909  25.837  0.00  0.00    +0.096 A 
ENDBRANCH  11  12
ENDBRANCH  10  11
ENDBRANCH   7   8
ENDBRANCH   6   7
BRANCH  21  22
ATOM     22  C   UNL     1      -0.174   0.545  23.971  0.00  0.00    +0.119 C 
BRANCH  22  23
ATOM     23  N   UNL     1       0.201   0.018  23.459  0.00  0.00    -0.205 NA
ATOM     24  C   UNL     1       0.972   0.167  23.205  0.00  0.00    +0.242 C 
ATOM     25  C   UNL     1       1.347  -0.361  22.693  0.00  0.00    +0.096 C 
ATOM     26  O   UNL     1       1.368   0.843  23.463  0.00  0.00    -0.273 OA
ENDBRANCH  22  23
ENDBRANCH  21  22
TORSDOF 7
ENDMDL
