MODEL 1
REMARK VINA RESULT:      -9.4      0.000      0.000
REMARK  Name = 
REMARK  10 active torsions:
REMARK  status: ('A' for Active; 'I' for Inactive)
REMARK    1  A    between atoms: S_2  and  C_3
REMARK    2  A    between atoms: C_3  and  C_4
REMARK    3  A    between atoms: C_9  and  N_10
REMARK    4  A    between atoms: N_13  and  C_14
REMARK    5  A    between atoms: C_14  and  C_15
REMARK    6  A    between atoms: C_17  and  C_18
REMARK    7  A    between atoms: N_20  and  C_21
REMARK    8  A    between atoms: C_21  and  C_22
REMARK    9  A    between atoms: C_21  and  C_28
REMARK   10  A    between atoms: C_22  and  C_23
REMARK                            x       y       z     vdW  Elec       q    Type
REMARK                         _______ _______ _______ _____ _____    ______ ____
ROOT
ATOM      4  C   UNL     1      -0.741   2.741  25.450  0.00  0.00    +0.237 C 
ATOM      5  O   UNL     1      -0.106   2.975  25.922  0.00  0.00    -0.274 OA
ATOM      6  N   UNL     1      -0.975   1.951  25.435  0.00  0.00    -0.271 N 
ATOM      7  C   UNL     1      -0.629   1.334  25.859  0.00  0.00    +0.096 C 
ATOM      8  C   UNL     1      -1.035   0.639  25.679  0.00  0.00    +0.045 C 
ATOM      9  C   UNL     1      -1.634   0.827  25.142  0.00  0.00    +0.126 C 
ATOM     17  C   UNL     1      -1.596   1.637  24.992  0.00  0.00    +0.174 C 
ENDROOT
BRANCH   9  10
ATOM     10  N   UNL     1      -2.174   0.297  24.815  0.00  0.00    -0.187 NA
ATOM     11  C   UNL     1      -2.184  -0.490  25.063  0.00  0.00    +0.340 C 
ATOM     12  O   UNL     1      -1.652  -0.747  25.639  0.00  0.00    -0.249 OA
ATOM     13  N   UNL     1      -2.724  -1.019  24.736  0.00  0.00    -0.182 NA
BRANCH  13  14
ATOM     14  C   UNL     1      -2.733  -1.806  24.984  0.00  0.00    +0.143 C 
BRANCH  14  15
ATOM     15  C   UNL     1      -3.434  -2.240  24.956  0.00  0.00    -0.003 C 
ATOM     16  C   UNL     1      -3.518  -2.857  24.416  0.00  0.00    -0.003 C 
ENDBRANCH  14  15
ENDBRANCH  13  14
ENDBRANCH   9  10
BRANCH  17  18
ATOM     18  C   UNL     1      -2.093   2.059  24.486  0.00  0.00    +0.262 C 
ATOM     19  O   UNL     1      -1.771   2.527  23.887  0.00  0.00    -0.271 OA
ATOM     20  N   UNL     1      -2.911   2.014  24.579  0.00  0.00    -0.196 NA
BRANCH  20  21
ATOM     21  C   UNL     1      -3.407   2.436  24.073  0.00  0.00    +0.179 C 
BRANCH  21  28
ATOM     28  C   UNL     1      -3.428   2.255  23.269  0.00  0.00    +0.281 C 
ATOM     29  N   UNL     1      -3.345   2.855  22.708  0.00  0.00    -0.086 NA
ATOM     30  O   UNL     1      -3.531   1.474  23.024  0.00  0.00    -0.270 OA
ENDBRANCH  21  28
BRANCH  21  22
ATOM     22  C   UNL     1      -3.884   3.040  24.372  0.00  0.00    +0.064 C 
BRANCH  22  23
ATOM     23  C   UNL     1      -4.534   2.857  24.845  0.00  0.00    +0.010 A 
ATOM     24  C   UNL     1      -5.106   2.284  24.683  0.00  0.00    +0.003 A 
ATOM     25  C   UNL     1      -5.652   2.288  25.302  0.00  0.00    +0.007 A 
ATOM     26  C   UNL     1      -5.418   2.863  25.846  0.00  0.00    +0.035 A 
ATOM     27  S   UNL     1      -4.727   3.214  25.563  0.00  0.00    -0.091 S 
ENDBRANCH  22  23
ENDBRANCH  21  22
ENDBRANCH  20  21
ENDBRANCH  17  18
BRANCH   4   3
ATOM      3  C   UNL     1      -1.142   3.299  24.993  0.00  0.00    +0.143 C 
BRANCH   3   2
ATOM      1  C   UNL     1      -1.190   4.715  25.179  0.00  0.00    +0.070 C 
ATOM      2  S   UNL     1      -0.815   4.047  24.873  0.00  0.00    -0.130 S 
ENDBRANCH   3   2
ENDBRANCH   4   3
TORSDOF 10
ENDMDL
MODEL 2
REMARK VINA RESULT:      -8.5      1.574      3.392
REMARK  Name = 
REMARK  10 active torsions:
REMARK  status: ('A' for Active; 'I' for Inactive)
REMARK    1  A    between atoms: S_2  and  C_3
REMARK    2  A    between atoms: C_3  and  C_4
REMARK    3  A    between atoms: C_9  and  N_10
REMARK    4  A    between atoms: N_13  and  C_14
REMARK    5  A    between atoms: C_14  and  C_15
REMARK    6  A    between atoms: C_17  and  C_18
REMARK    7  A    between atoms: N_20  and  C_21
REMARK    8  A    between atoms: C_21  and  C_22
REMARK    9  A    between atoms: C_21  and  C_28
REMARK   10  A    between atoms: C_22  and  C_23
REMARK                            x       y       z     vdW  Elec       q    Type
REMARK                         _______ _______ _______ _____ _____    ______ ____
ROOT
ATOM      4  C   UNL     1      -3.126   3.581  24.993  0.00  0.00    +0.237 C 
ATOM      5  O   UNL     1      -3.632   4.203  25.183  0.00  0.00    -0.274 OA
ATOM      6  N   UNL     1      -3.428   2.821  24.882  0.00  0.00    -0.271 N 
ATOM      7  C   UNL     1      -4.220   2.601  24.944  0.00  0.00    +0.096 C 
ATOM      8  C   UNL     1      -4.274   1.792  24.791  0.00  0.00    +0.045 C 
ATOM      9  C   UNL     1      -3.513   1.512  24.634  0.00  0.00    +0.126 C 
ATOM     17  C   UNL     1      -2.991   2.149  24.691  0.00  0.00    +0.174 C 
ENDROOT
BRANCH   9  10
ATOM     10  N   UNL     1      -3.311   0.734  24.453  0.00  0.00    -0.187 NA
ATOM     11  C   UNL     1      -3.892   0.147  24.445  0.00  0.00    +0.340 C 
ATOM     12  O   UNL     1      -4.675   0.341  24.619  0.00  0.00    -0.249 OA
ATOM     13  N   UNL     1      -3.690  -0.631  24.264  0.00  0.00    -0.182 NA
BRANCH  13  14
ATOM     14  C   UNL     1      -4.271  -1.217  24.257  0.00  0.00    +0.143 C 
BRANCH  14  15
ATOM     15  C   UNL     1      -4.140  -1.923  23.851  0.00  0.00    -0.003 C 
ATOM     16  C   UNL     1      -3.887  -2.594  24.259  0.00  0.00    -0.003 C 
ENDBRANCH  14  15
ENDBRANCH  13  14
ENDBRANCH   9  10
BRANCH  17  18
ATOM     18  C   UNL     1      -2.175   2.116  24.576  0.00  0.00    +0.262 C 
ATOM     19  O   UNL     1      -1.818   2.606  24.016  0.00  0.00    -0.271 OA
ATOM     20  N   UNL     1      -1.715   1.595  25.021  0.00  0.00    -0.196 NA
BRANCH  20  21
ATOM     21  C   UNL     1      -0.899   1.564  24.905  0.00  0.00    +0.179 C 
BRANCH  21  28
ATOM     28  C   UNL     1      -0.387   1.793  25.510  0.00  0.00    +0.281 C 
ATOM     29  N   UNL     1       0.288   2.234  25.334  0.00  0.00    -0.086 NA
ATOM     30  O   UNL     1      -0.550   1.582  26.290  0.00  0.00    -0.270 OA
ENDBRANCH  21  28
BRANCH  21  22
ATOM     22  C   UNL     1      -0.595   1.302  24.184  0.00  0.00    +0.064 C 
BRANCH  22  23
ATOM     23  C   UNL     1      -0.332   0.524  24.104  0.00  0.00    +0.010 A 
ATOM     24  C   UNL     1      -0.440  -0.083  24.652  0.00  0.00    +0.003 A 
ATOM     25  C   UNL     1      -0.090  -0.766  24.348  0.00  0.00    +0.007 A 
ATOM     26  C   UNL     1       0.234  -0.580  23.612  0.00  0.00    +0.035 A 
ATOM     27  S   UNL     1       0.085   0.217  23.462  0.00  0.00    -0.091 S 
ENDBRANCH  22  23
ENDBRANCH  21  22
ENDBRANCH  20  21
ENDBRANCH  17  18
BRANCH   4   3
ATOM      3  C   UNL     1      -2.316   3.718  24.912  0.00  0.00    +0.143 C 
BRANCH   3   2
ATOM      1  C   UNL     1      -1.703   4.904  25.423  0.00  0.00    +0.070 C 
ATOM      2  S   UNL     1      -2.038   4.485  24.795  0.00  0.00    -0.130 S 
ENDBRANCH   3   2
ENDBRANCH   4   3
TORSDOF 10
ENDMDL
MODEL 3
REMARK VINA RESULT:      -8.2      1.674      3.794
REMARK  Name = 
REMARK  10 active torsions:
REMARK  status: ('A' for Active; 'I' for Inactive)
REMARK    1  A    between atoms: S_2  and  C_3
REMARK    2  A    between atoms: C_3  and  C_4
REMARK    3  A    between atoms: C_9  and  N_10
REMARK    4  A    between atoms: N_13  and  C_14
REMARK    5  A    between atoms: C_14  and  C_15
REMARK    6  A    between atoms: C_17  and  C_18
REMARK    7  A    between atoms: N_20  and  C_21
REMARK    8  A    between atoms: C_21  and  C_22
REMARK    9  A    between atoms: C_21  and  C_28
REMARK   10  A    between atoms: C_22  and  C_23
REMARK                            x       y       z     vdW  Elec       q    Type
REMARK                         _______ _______ _______ _____ _____    ______ ____
ROOT
ATOM      4  C   UNL     1      -0.820  -0.834  24.648  0.00  0.00    +0.237 C 
ATOM      5  O   UNL     1      -0.142  -1.290  24.541  0.00  0.00    -0.274 OA
ATOM      6  N   UNL     1      -0.770  -0.011  24.634  0.00  0.00    -0.271 N 
ATOM      7  C   UNL     1      -0.084   0.432  24.520  0.00  0.00    +0.096 C 
ATOM      8  C   UNL     1      -0.286   1.231  24.548  0.00  0.00    +0.045 C 
ATOM      9  C   UNL     1      -1.100   1.282  24.679  0.00  0.00    +0.126 C 
ATOM     17  C   UNL     1      -1.398   0.515  24.732  0.00  0.00    +0.174 C 
ENDROOT
BRANCH   9  10
ATOM     10  N   UNL     1      -1.537   1.978  24.745  0.00  0.00    -0.187 NA
ATOM     11  C   UNL     1      -1.151   2.698  24.864  0.00  0.00    +0.340 C 
ATOM     12  O   UNL     1      -0.328   2.721  24.916  0.00  0.00    -0.249 OA
ATOM     13  N   UNL     1      -1.588   3.394  24.930  0.00  0.00    -0.182 NA
BRANCH  13  14
ATOM     14  C   UNL     1      -1.202   4.115  25.048  0.00  0.00    +0.143 C 
BRANCH  14  15
ATOM     15  C   UNL     1      -1.633   4.782  25.269  0.00  0.00    -0.003 C 
ATOM     16  C   UNL     1      -1.388   5.531  25.025  0.00  0.00    -0.003 C 
ENDBRANCH  14  15
ENDBRANCH  13  14
ENDBRANCH   9  10
BRANCH  17  18
ATOM     18  C   UNL     1      -2.187   0.310  24.861  0.00  0.00    +0.262 C 
ATOM     19  O   UNL     1      -2.391  -0.153  25.512  0.00  0.00    -0.271 OA
ATOM     20  N   UNL     1      -2.771   0.569  24.339  0.00  0.00    -0.196 NA
BRANCH  20  21
ATOM     21  C   UNL     1      -3.560   0.363  24.468  0.00  0.00    +0.179 C 
BRANCH  21  28
ATOM     28  C   UNL     1      -3.941  -0.156  23.954  0.00  0.00    +0.281 C 
ATOM     29  N   UNL     1      -4.424  -0.754  24.253  0.00  0.00    -0.086 NA
ATOM     30  O   UNL     1      -3.839  -0.077  23.139  0.00  0.00    -0.270 OA
ENDBRANCH  21  28
BRANCH  21  22
ATOM     22  C   UNL     1      -3.967   0.678  25.113  0.00  0.00    +0.064 C 
BRANCH  22  23
ATOM     23  C   UNL     1      -4.495   1.302  25.004  0.00  0.00    +0.010 A 
ATOM     24  C   UNL     1      -4.483   1.845  24.382  0.00  0.00    +0.003 A 
ATOM     25  C   UNL     1      -5.109   2.372  24.492  0.00  0.00    +0.007 A 
ATOM     26  C   UNL     1      -5.507   2.155  25.181  0.00  0.00    +0.035 A 
ATOM     27  S   UNL     1      -5.128   1.494  25.497  0.00  0.00    -0.091 S 
ENDBRANCH  22  23
ENDBRANCH  21  22
ENDBRANCH  20  21
ENDBRANCH  17  18
BRANCH   4   3
ATOM      3  C   UNL     1      -1.550  -1.201  24.768  0.00  0.00    +0.143 C 
BRANCH   3   2
ATOM      1  C   UNL     1      -1.744  -2.571  24.412  0.00  0.00    +0.070 C 
ATOM      2  S   UNL     1      -1.580  -1.997  24.981  0.00  0.00    -0.130 S 
ENDBRANCH   3   2
ENDBRANCH   4   3
TORSDOF 10
ENDMDL
MODEL 4
REMARK VINA RESULT:      -8.2      1.506      3.713
REMARK  Name = 
REMARK  10 active torsions:
REMARK  status: ('A' for Active; 'I' for Inactive)
REMARK    1  A    between atoms: S_2  and  C_3
REMARK    2  A    between atoms: C_3  and  C_4
REMARK    3  A    between atoms: C_9  and  N_10
REMARK    4  A    between atoms: N_13  and  C_14
REMARK    5  A    between atoms: C_14  and  C_15
REMARK    6  A    between atoms: C_17  and  C_18
REMARK    7  A    between atoms: N_20  and  C_21
REMARK    8  A    between atoms: C_21  and  C_22
REMARK    9  A    between atoms: C_21  and  C_28
REMARK   10  A    between atoms: C_22  and  C_23
REMARK                            x       y       z     vdW  Elec       q    Type
REMARK                         _______ _______ _______ _____ _____    ______ ____
ROOT
ATOM      4  C   UNL     1      -1.098  -0.613  24.303  0.00  0.00    +0.237 C 
ATOM      5  O   UNL     1      -0.985  -1.422  24.187  0.00  0.00    -0.274 OA
ATOM      6  N   UNL     1      -1.843  -0.326  24.508  0.00  0.00    -0.271 N 
ATOM      7  C   UNL     1      -2.525  -0.778  24.615  0.00  0.00    +0.096 C 
ATOM      8  C   UNL     1      -3.141  -0.267  24.815  0.00  0.00    +0.045 C 
ATOM      9  C   UNL     1      -2.840   0.501  24.831  0.00  0.00    +0.126 C 
ATOM     17  C   UNL     1      -2.038   0.465  24.641  0.00  0.00    +0.174 C 
ENDROOT
BRANCH   9  10
ATOM     10  N   UNL     1      -3.267   1.185  25.006  0.00  0.00    -0.187 NA
ATOM     11  C   UNL     1      -4.092   1.170  24.999  0.00  0.00    +0.340 C 
ATOM     12  O   UNL     1      -4.490   0.471  24.817  0.00  0.00    -0.249 OA
ATOM     13  N   UNL     1      -4.518   1.854  25.174  0.00  0.00    -0.182 NA
BRANCH  13  14
ATOM     14  C   UNL     1      -5.343   1.839  25.167  0.00  0.00    +0.143 C 
BRANCH  14  15
ATOM     15  C   UNL     1      -5.768   2.543  25.104  0.00  0.00    -0.003 C 
ATOM     16  C   UNL     1      -5.874   3.023  25.767  0.00  0.00    -0.003 C 
ENDBRANCH  14  15
ENDBRANCH  13  14
ENDBRANCH   9  10
BRANCH  17  18
ATOM     18  C   UNL     1      -1.522   1.107  24.593  0.00  0.00    +0.262 C 
ATOM     19  O   UNL     1      -1.123   1.263  23.888  0.00  0.00    -0.271 OA
ATOM     20  N   UNL     1      -1.405   1.592  25.250  0.00  0.00    -0.196 NA
BRANCH  20  21
ATOM     21  C   UNL     1      -0.889   2.234  25.201  0.00  0.00    +0.179 C 
BRANCH  21  28
ATOM     28  C   UNL     1      -0.227   2.269  25.691  0.00  0.00    +0.281 C 
ATOM     29  N   UNL     1      -0.308   2.155  26.504  0.00  0.00    -0.086 NA
ATOM     30  O   UNL     1       0.517   2.418  25.368  0.00  0.00    -0.270 OA
ENDBRANCH  21  28
BRANCH  21  22
ATOM     22  C   UNL     1      -1.036   2.841  24.662  0.00  0.00    +0.064 C 
BRANCH  22  23
ATOM     23  C   UNL     1      -1.278   3.582  24.931  0.00  0.00    +0.010 A 
ATOM     24  C   UNL     1      -1.861   3.727  25.497  0.00  0.00    +0.003 A 
ATOM     25  C   UNL     1      -1.923   4.544  25.596  0.00  0.00    +0.007 A 
ATOM     26  C   UNL     1      -1.378   4.904  25.092  0.00  0.00    +0.035 A 
ATOM     27  S   UNL     1      -0.980   4.310  24.681  0.00  0.00    -0.091 S 
ENDBRANCH  22  23
ENDBRANCH  21  22
ENDBRANCH  20  21
ENDBRANCH  17  18
BRANCH   4   3
ATOM      3  C   UNL     1      -0.464  -0.092  24.215  0.00  0.00    +0.143 C 
BRANCH   3   2
ATOM      1  C   UNL     1       0.632  -0.261  23.314  0.00  0.00    +0.070 C 
ATOM      2  S   UNL     1       0.290  -0.383  24.055  0.00  0.00    -0.130 S 
ENDBRANCH   3   2
ENDBRANCH   4   3
TORSDOF 10
ENDMDL
MODEL 5
REMARK VINA RESULT:      -8.2      1.809      4.397
REMARK  Name = 
REMARK  10 active torsions:
REMARK  status: ('A' for Active; 'I' for Inactive)
REMARK    1  A    between atoms: S_2  and  C_3
REMARK    2  A    between atoms: C_3  and  C_4
REMARK    3  A    between atoms: C_9  and  N_10
REMARK    4  A    between atoms: N_13  and  C_14
REMARK    5  A    between atoms: C_14  and  C_15
REMARK    6  A    between atoms: C_17  and  C_18
REMARK    7  A    between atoms: N_20  and  C_21
REMARK    8  A    between atoms: C_21  and  C_22
REMARK    9  A    between atoms: C_21  and  C_28
REMARK   10  A    between atoms: C_22  and  C_23
REMARK                            x       y       z     vdW  Elec       q    Type
REMARK                         _______ _______ _______ _____ _____    ______ ____
ROOT
ATOM      4  C   UNL     1      -2.945  -1.577  24.562  0.00  0.00    +0.237 C 
ATOM      5  O   UNL     1      -3.315  -2.301  24.425  0.00  0.00    -0.274 OA
ATOM      6  N   UNL     1      -3.393  -0.886  24.597  0.00  0.00    -0.271 N 
ATOM      7  C   UNL     1      -4.212  -0.832  24.507  0.00  0.00    +0.096 C 
ATOM      8  C   UNL     1      -4.427  -0.040  24.583  0.00  0.00    +0.045 C 
ATOM      9  C   UNL     1      -3.740   0.398  24.721  0.00  0.00    +0.126 C 
ATOM     17  C   UNL     1      -3.102  -0.125  24.729  0.00  0.00    +0.174 C 
ENDROOT
BRANCH   9  10
ATOM     10  N   UNL     1      -3.700   1.214  24.830  0.00  0.00    -0.187 NA
ATOM     11  C   UNL     1      -4.382   1.640  25.015  0.00  0.00    +0.340 C 
ATOM     12  O   UNL     1      -5.105   1.249  25.090  0.00  0.00    -0.249 OA
ATOM     13  N   UNL     1      -4.342   2.456  25.125  0.00  0.00    -0.182 NA
BRANCH  13  14
ATOM     14  C   UNL     1      -5.024   2.882  25.309  0.00  0.00    +0.143 C 
BRANCH  14  15
ATOM     15  C   UNL     1      -4.974   3.686  25.487  0.00  0.00    -0.003 C 
ATOM     16  C   UNL     1      -5.659   4.144  25.527  0.00  0.00    -0.003 C 
ENDBRANCH  14  15
ENDBRANCH  13  14
ENDBRANCH   9  10
BRANCH  17  18
ATOM     18  C   UNL     1      -2.312   0.078  24.849  0.00  0.00    +0.262 C 
ATOM     19  O   UNL     1      -1.876  -0.296  25.442  0.00  0.00    -0.271 OA
ATOM     20  N   UNL     1      -1.957   0.654  24.377  0.00  0.00    -0.196 NA
BRANCH  20  21
ATOM     21  C   UNL     1      -1.166   0.856  24.498  0.00  0.00    +0.179 C 
BRANCH  21  28
ATOM     28  C   UNL     1      -0.608   0.711  23.908  0.00  0.00    +0.281 C 
ATOM     29  N   UNL     1       0.131   0.403  24.106  0.00  0.00    -0.086 NA
ATOM     30  O   UNL     1      -0.790   0.875  23.120  0.00  0.00    -0.270 OA
ENDBRANCH  21  28
BRANCH  21  22
ATOM     22  C   UNL     1      -0.934   1.203  25.209  0.00  0.00    +0.064 C 
BRANCH  22  23
ATOM     23  C   UNL     1      -0.834   2.020  25.257  0.00  0.00    +0.010 A 
ATOM     24  C   UNL     1      -0.880   2.552  24.628  0.00  0.00    +0.003 A 
ATOM     25  C   UNL     1      -0.745   3.311  24.925  0.00  0.00    +0.007 A 
ATOM     26  C   UNL     1      -0.617   3.247  25.737  0.00  0.00    +0.035 A 
ATOM     27  S   UNL     1      -0.672   2.450  25.943  0.00  0.00    -0.091 S 
ENDBRANCH  22  23
ENDBRANCH  21  22
ENDBRANCH  20  21
ENDBRANCH  17  18
BRANCH   4   3
ATOM      3  C   UNL     1      -2.127  -1.544  24.663  0.00  0.00    +0.143 C 
BRANCH   3   2
ATOM      1  C   UNL     1      -1.332  -2.640  24.205  0.00  0.00    +0.070 C 
ATOM      2  S   UNL     1      -1.703  -2.233  24.821  0.00  0.00    -0.130 S 
ENDBRANCH   3   2
ENDBRANCH   4   3
TORSDOF 10
ENDMDL
MODEL 6
REMARK VINA RESULT:      -8.0      1.896      3.355
REMARK  Name = 
REMARK  10 active torsions:
REMARK  status: ('A' for Active; 'I' for Inactive)
REMARK    1  A    between atoms: S_2  and  C_3
REMARK    2  A    between atoms: C_3  and  C_4
REMARK    3  A    between atoms: C_9  and  N_10
REMARK    4  A    between atoms: N_13  and  C_14
REMARK    5  A    between atoms: C_14  and  C_15
REMARK    6  A    between atoms: C_17  and  C_18
REMARK    7  A    between atoms: N_20  and  C_21
REMARK    8  A    between atoms: C_21  and  C_22
REMARK    9  A    between atoms: C_21  and  C_28
REMARK   10  A    between atoms: C_22  and  C_23
REMARK                            x       y       z     vdW  Elec       q    Type
REMARK                         _______ _______ _______ _____ _____    ______ ____
ROOT
ATOM      4  C   UNL     1      -3.465  -0.237  25.294  0.00  0.00    +0.237 C 
ATOM      5  O   UNL     1      -3.802  -0.792  25.802  0.00  0.00    -0.274 OA
ATOM      6  N   UNL     1      -2.666  -0.289  25.098  0.00  0.00    -0.271 N 
ATOM      7  C   UNL     1      -2.137  -0.863  25.365  0.00  0.00    +0.096 C 
ATOM      8  C   UNL     1      -1.399  -0.706  25.032  0.00  0.00    +0.045 C 
ATOM      9  C   UNL     1      -1.471  -0.034  24.559  0.00  0.00    +0.126 C 
ATOM     17  C   UNL     1      -2.254   0.223  24.599  0.00  0.00    +0.174 C 
ENDROOT
BRANCH   9  10
ATOM     10  N   UNL     1      -0.867   0.318  24.122  0.00  0.00    -0.187 NA
ATOM     11  C   UNL     1      -0.213  -0.127  23.888  0.00  0.00    +0.340 C 
ATOM     12  O   UNL     1      -0.163  -0.925  24.092  0.00  0.00    -0.249 OA
ATOM     13  N   UNL     1       0.392   0.225  23.452  0.00  0.00    -0.182 NA
BRANCH  13  14
ATOM     14  C   UNL     1       1.046  -0.220  23.218  0.00  0.00    +0.143 C 
BRANCH  14  15
ATOM     15  C   UNL     1       1.521   0.039  22.596  0.00  0.00    -0.003 C 
ATOM     16  C   UNL     1       2.342   0.031  22.672  0.00  0.00    -0.003 C 
ENDBRANCH  14  15
ENDBRANCH  13  14
ENDBRANCH   9  10
BRANCH  17  18
ATOM     18  C   UNL     1      -2.569   0.878  24.209  0.00  0.00    +0.262 C 
ATOM     19  O   UNL     1      -3.214   0.785  23.702  0.00  0.00    -0.271 OA
ATOM     20  N   UNL     1      -2.241   1.626  24.326  0.00  0.00    -0.196 NA
BRANCH  20  21
ATOM     21  C   UNL     1      -2.556   2.281  23.936  0.00  0.00    +0.179 C 
BRANCH  21  28
ATOM     28  C   UNL     1      -2.496   2.341  23.116  0.00  0.00    +0.281 C 
ATOM     29  N   UNL     1      -3.178   2.410  22.656  0.00  0.00    -0.086 NA
ATOM     30  O   UNL     1      -1.754   2.332  22.755  0.00  0.00    -0.270 OA
ENDBRANCH  21  28
BRANCH  21  22
ATOM     22  C   UNL     1      -2.933   2.875  24.366  0.00  0.00    +0.064 C 
BRANCH  22  23
ATOM     23  C   UNL     1      -2.489   3.388  24.836  0.00  0.00    +0.010 A 
ATOM     24  C   UNL     1      -1.745   3.693  24.653  0.00  0.00    +0.003 A 
ATOM     25  C   UNL     1      -1.509   4.181  25.276  0.00  0.00    +0.007 A 
ATOM     26  C   UNL     1      -2.107   4.177  25.844  0.00  0.00    +0.035 A 
ATOM     27  S   UNL     1      -2.713   3.687  25.572  0.00  0.00    -0.091 S 
ENDBRANCH  22  23
ENDBRANCH  21  22
ENDBRANCH  20  21
ENDBRANCH  17  18
BRANCH   4   3
ATOM      3  C   UNL     1      -3.928   0.371  24.982  0.00  0.00    +0.143 C 
BRANCH   3   2
ATOM      1  C   UNL     1      -5.185   0.893  25.418  0.00  0.00    +0.070 C 
ATOM      2  S   UNL     1      -4.750   0.320  25.011  0.00  0.00    -0.130 S 
ENDBRANCH   3   2
ENDBRANCH   4   3
TORSDOF 10
ENDMDL
MODEL 7
REMARK VINA RESULT:      -8.0      2.012      4.216
REMARK  Name = 
REMARK  10 active torsions:
REMARK  status: ('A' for Active; 'I' for Inactive)
REMARK    1  A    between atoms: S_2  and  C_3
REMARK    2  A    between atoms: C_3  and  C_4
REMARK    3  A    between atoms: C_9  and  N_10
REMARK    4  A    between atoms: N_13  and  C_14
REMARK    5  A    between atoms: C_14  and  C_15
REMARK    6  A    between atoms: C_17  and  C_18
REMARK    7  A    between atoms: N_20  and  C_21
REMARK    8  A    between atoms: C_21  and  C_22
REMARK    9  A    between atoms: C_21  and  C_28
REMARK   10  A    between atoms: C_22  and  C_23
REMARK                            x       y       z     vdW  Elec       q    Type
REMARK                         _______ _______ _______ _____ _____    ______ ____
ROOT
ATOM      4  C   UNL     1      -0.799   0.709  23.888  0.00  0.00    +0.237 C 
ATOM      5  O   UNL     1      -0.145   0.936  23.439  0.00  0.00    -0.274 OA
ATOM      6  N   UNL     1      -1.454   1.206  23.943  0.00  0.00    -0.271 N 
ATOM      7  C   UNL     1      -1.536   1.943  23.582  0.00  0.00    +0.096 C 
ATOM      8  C   UNL     1      -2.276   2.246  23.784  0.00  0.00    +0.045 C 
ATOM      9  C   UNL     1      -2.652   1.696  24.272  0.00  0.00    +0.126 C 
ATOM     17  C   UNL     1      -2.144   1.054  24.369  0.00  0.00    +0.174 C 
ENDROOT
BRANCH   9  10
ATOM     10  N   UNL     1      -3.403   1.776  24.602  0.00  0.00    -0.187 NA
ATOM     11  C   UNL     1      -3.728   2.526  24.715  0.00  0.00    +0.340 C 
ATOM     12  O   UNL     1      -3.300   3.197  24.497  0.00  0.00    -0.249 OA
ATOM     13  N   UNL     1      -4.479   2.605  25.045  0.00  0.00    -0.182 NA
BRANCH  13  14
ATOM     14  C   UNL     1      -4.803   3.356  25.158  0.00  0.00    +0.143 C 
BRANCH  14  15
ATOM     15  C   UNL     1      -5.465   3.451  25.640  0.00  0.00    -0.003 C 
ATOM     16  C   UNL     1      -5.926   4.133  25.580  0.00  0.00    -0.003 C 
ENDBRANCH  14  15
ENDBRANCH  13  14
ENDBRANCH   9  10
BRANCH  17  18
ATOM     18  C   UNL     1      -2.299   0.377  24.815  0.00  0.00    +0.262 C 
ATOM     19  O   UNL     1      -1.801   0.173  25.441  0.00  0.00    -0.271 OA
ATOM     20  N   UNL     1      -2.952  -0.094  24.637  0.00  0.00    -0.196 NA
BRANCH  20  21
ATOM     21  C   UNL     1      -3.107  -0.770  25.084  0.00  0.00    +0.179 C 
BRANCH  21  28
ATOM     28  C   UNL     1      -3.474  -0.704  25.819  0.00  0.00    +0.281 C 
ATOM     29  N   UNL     1      -3.106  -1.005  26.493  0.00  0.00    -0.086 NA
ATOM     30  O   UNL     1      -4.210  -0.337  25.880  0.00  0.00    -0.270 OA
ENDBRANCH  21  28
BRANCH  21  22
ATOM     22  C   UNL     1      -2.894  -1.513  24.794  0.00  0.00    +0.064 C 
BRANCH  22  23
ATOM     23  C   UNL     1      -3.437  -1.959  24.363  0.00  0.00    +0.010 A 
ATOM     24  C   UNL     1      -4.007  -1.662  23.846  0.00  0.00    +0.003 A 
ATOM     25  C   UNL     1      -4.428  -2.301  23.535  0.00  0.00    +0.007 A 
ATOM     26  C   UNL     1      -4.117  -2.993  23.861  0.00  0.00    +0.035 A 
ATOM     27  S   UNL     1      -3.506  -2.782  24.372  0.00  0.00    -0.091 S 
ENDBRANCH  22  23
ENDBRANCH  21  22
ENDBRANCH  20  21
ENDBRANCH  17  18
BRANCH   4   3
ATOM      3  C   UNL     1      -0.796  -0.016  24.282  0.00  0.00    +0.143 C 
BRANCH   3   2
ATOM      1  C   UNL     1       0.123  -1.032  23.875  0.00  0.00    +0.070 C 
ATOM      2  S   UNL     1      -0.088  -0.424  24.392  0.00  0.00    -0.130 S 
ENDBRANCH   3   2
ENDBRANCH   4   3
TORSDOF 10
ENDMDL
MODEL 8
REMARK VINA RESULT:      -7.9      1.446      3.111
REMARK  Name = 
REMARK  10 active torsions:
REMARK  status: ('A' for Active; 'I' for Inactive)
REMARK    1  A    between atoms: S_2  and  C_3
REMARK    2  A    between atoms: C_3  and  C_4
REMARK    3  A    between atoms: C_9  and  N_10
REMARK    4  A    between atoms: N_13  and  C_14
REMARK    5  A    between atoms: C_14  and  C_15
REMARK    6  A    between atoms: C_17  and  C_18
REMARK    7  A    between atoms: N_20  and  C_21
REMARK    8  A    between atoms: C_21  and  C_22
REMARK    9  A    between atoms: C_21  and  C_28
REMARK   10  A    between atoms: C_22  and  C_23
REMARK                            x       y       z     vdW  Elec       q    Type
REMARK                         _______ _______ _______ _____ _____    ______ ____
ROOT
ATOM      4  C   UNL     1      -4.591   2.844  24.849  0.00  0.00    +0.237 C 
ATOM      5  O   UNL     1      -5.254   3.232  25.149  0.00  0.00    -0.274 OA
ATOM      6  N   UNL     1      -4.532   2.024  24.907  0.00  0.00    -0.271 N 
ATOM      7  C   UNL     1      -5.089   1.520  25.248  0.00  0.00    +0.096 C 
ATOM      8  C   UNL     1      -4.808   0.747  25.186  0.00  0.00    +0.045 C 
ATOM      9  C   UNL     1      -4.076   0.773  24.806  0.00  0.00    +0.126 C 
ATOM     17  C   UNL     1      -3.906   1.562  24.633  0.00  0.00    +0.174 C 
ENDROOT
BRANCH   9  10
ATOM     10  N   UNL     1      -3.598   0.124  24.629  0.00  0.00    -0.187 NA
ATOM     11  C   UNL     1      -3.915  -0.638  24.644  0.00  0.00    +0.340 C 
ATOM     12  O   UNL     1      -4.710  -0.750  24.835  0.00  0.00    -0.249 OA
ATOM     13  N   UNL     1      -3.438  -1.287  24.467  0.00  0.00    -0.182 NA
BRANCH  13  14
ATOM     14  C   UNL     1      -3.754  -2.049  24.482  0.00  0.00    +0.143 C 
BRANCH  14  15
ATOM     15  C   UNL     1      -3.297  -2.690  24.239  0.00  0.00    -0.003 C 
ATOM     16  C   UNL     1      -3.375  -3.419  24.618  0.00  0.00    -0.003 C 
ENDBRANCH  14  15
ENDBRANCH  13  14
ENDBRANCH   9  10
BRANCH  17  18
ATOM     18  C   UNL     1      -3.228   1.839  24.254  0.00  0.00    +0.262 C 
ATOM     19  O   UNL     1      -3.293   2.254  23.544  0.00  0.00    -0.271 OA
ATOM     20  N   UNL     1      -2.484   1.702  24.584  0.00  0.00    -0.196 NA
BRANCH  20  21
ATOM     21  C   UNL     1      -1.807   1.980  24.204  0.00  0.00    +0.179 C 
BRANCH  21  28
ATOM     28  C   UNL     1      -1.535   1.607  23.521  0.00  0.00    +0.281 C 
ATOM     29  N   UNL     1      -1.536   2.012  22.802  0.00  0.00    -0.086 NA
ATOM     30  O   UNL     1      -1.261   0.830  23.556  0.00  0.00    -0.270 OA
ENDBRANCH  21  28
BRANCH  21  22
ATOM     22  C   UNL     1      -1.401   2.630  24.508  0.00  0.00    +0.064 C 
BRANCH  22  23
ATOM     23  C   UNL     1      -0.872   2.532  25.133  0.00  0.00    +0.010 A 
ATOM     24  C   UNL     1      -1.030   2.674  25.930  0.00  0.00    +0.003 A 
ATOM     25  C   UNL     1      -0.347   2.504  26.361  0.00  0.00    +0.007 A 
ATOM     26  C   UNL     1       0.234   2.256  25.829  0.00  0.00    +0.035 A 
ATOM     27  S   UNL     1      -0.090   2.274  25.071  0.00  0.00    -0.091 S 
ENDBRANCH  22  23
ENDBRANCH  21  22
ENDBRANCH  20  21
ENDBRANCH  17  18
BRANCH   4   3
ATOM      3  C   UNL     1      -3.986   3.277  24.491  0.00  0.00    +0.143 C 
BRANCH   3   2
ATOM      1  C   UNL     1      -3.829   4.679  24.717  0.00  0.00    +0.070 C 
ATOM      2  S   UNL     1      -4.119   4.057  24.259  0.00  0.00    -0.130 S 
ENDBRANCH   3   2
ENDBRANCH   4   3
TORSDOF 10
ENDMDL
MODEL 9
REMARK VINA RESULT:      -7.9      1.993      4.073
REMARK  Name = 
REMARK  10 active torsions:
REMARK  status: ('A' for Active; 'I' for Inactive)
REMARK    1  A    between atoms: S_2  and  C_3
REMARK    2  A    between atoms: C_3  and  C_4
REMARK    3  A    between atoms: C_9  and  N_10
REMARK    4  A    between atoms: N_13  and  C_14
REMARK    5  A    between atoms: C_14  and  C_15
REMARK    6  A    between atoms: C_17  and  C_18
REMARK    7  A    between atoms: N_20  and  C_21
REMARK    8  A    between atoms: C_21  and  C_22
REMARK    9  A    between atoms: C_21  and  C_28
REMARK   10  A    between atoms: C_22  and  C_23
REMARK                            x       y       z     vdW  Elec       q    Type
REMARK                         _______ _______ _______ _____ _____    ______ ____
ROOT
ATOM      4  C   UNL     1      -3.923   2.081  24.236  0.00  0.00    +0.237 C 
ATOM      5  O   UNL     1      -4.316   2.741  23.939  0.00  0.00    -0.274 OA
ATOM      6  N   UNL     1      -3.171   1.887  23.957  0.00  0.00    -0.271 N 
ATOM      7  C   UNL     1      -2.746   2.301  23.384  0.00  0.00    +0.096 C 
ATOM      8  C   UNL     1      -2.025   1.916  23.273  0.00  0.00    +0.045 C 
ATOM      9  C   UNL     1      -2.004   1.264  23.779  0.00  0.00    +0.126 C 
ATOM     17  C   UNL     1      -2.713   1.247  24.201  0.00  0.00    +0.174 C 
ENDROOT
BRANCH   9  10
ATOM     10  N   UNL     1      -1.384   0.725  23.849  0.00  0.00    -0.187 NA
ATOM     11  C   UNL     1      -0.656   0.884  23.496  0.00  0.00    +0.340 C 
ATOM     12  O   UNL     1      -0.548   1.583  23.072  0.00  0.00    -0.249 OA
ATOM     13  N   UNL     1      -0.036   0.345  23.566  0.00  0.00    -0.182 NA
BRANCH  13  14
ATOM     14  C   UNL     1       0.692   0.505  23.213  0.00  0.00    +0.143 C 
BRANCH  14  15
ATOM     15  C   UNL     1       1.234  -0.105  23.091  0.00  0.00    -0.003 C 
ATOM     16  C   UNL     1       1.960   0.053  22.731  0.00  0.00    -0.003 C 
ENDBRANCH  14  15
ENDBRANCH  13  14
ENDBRANCH   9  10
BRANCH  17  18
ATOM     18  C   UNL     1      -2.925   0.686  24.768  0.00  0.00    +0.262 C 
ATOM     19  O   UNL     1      -3.181   0.931  25.514  0.00  0.00    -0.271 OA
ATOM     20  N   UNL     1      -2.882  -0.118  24.590  0.00  0.00    -0.196 NA
BRANCH  20  21
ATOM     21  C   UNL     1      -3.094  -0.678  25.158  0.00  0.00    +0.179 C 
BRANCH  21  28
ATOM     28  C   UNL     1      -2.590  -0.836  25.791  0.00  0.00    +0.281 C 
ATOM     29  N   UNL     1      -2.879  -0.815  26.563  0.00  0.00    -0.086 NA
ATOM     30  O   UNL     1      -1.797  -1.015  25.651  0.00  0.00    -0.270 OA
ENDBRANCH  21  28
BRANCH  21  22
ATOM     22  C   UNL     1      -3.812  -1.080  25.092  0.00  0.00    +0.064 C 
BRANCH  22  23
ATOM     23  C   UNL     1      -3.880  -1.720  24.576  0.00  0.00    +0.010 A 
ATOM     24  C   UNL     1      -4.291  -1.725  23.861  0.00  0.00    +0.003 A 
ATOM     25  C   UNL     1      -4.215  -2.477  23.528  0.00  0.00    +0.007 A 
ATOM     26  C   UNL     1      -3.756  -2.936  24.038  0.00  0.00    +0.035 A 
ATOM     27  S   UNL     1      -3.549  -2.469  24.685  0.00  0.00    -0.091 S 
ENDBRANCH  22  23
ENDBRANCH  21  22
ENDBRANCH  20  21
ENDBRANCH  17  18
BRANCH   4   3
ATOM      3  C   UNL     1      -4.281   1.613  24.814  0.00  0.00    +0.143 C 
BRANCH   3   2
ATOM      1  C   UNL     1      -5.692   1.632  25.038  0.00  0.00    +0.070 C 
ATOM      2  S   UNL     1      -4.934   1.898  25.229  0.00  0.00    -0.130 S 
ENDBRANCH   3   2
ENDBRANCH   4   3
TORSDOF 10
ENDMDL
MODEL 10
REMARK VINA RESULT:      -7.8      2.086      5.066
REMARK  Name = 
REMARK  10 active torsions:
REMARK  status: ('A' for Active; 'I' for Inactive)
REMARK    1  A    between atoms: S_2  and  C_3
REMARK    2  A    between atoms: C_3  and  C_4
REMARK    3  A    between atoms: C_9  and  N_10
REMARK    4  A    between atoms: N_13  and  C_14
REMARK    5  A    between atoms: C_14  and  C_15
REMARK    6  A    between atoms: C_17  and  C_18
REMARK    7  A    between atoms: N_20  and  C_21
REMARK    8  A    between atoms: C_21  and  C_22
REMARK    9  A    between atoms: C_21  and  C_28
REMARK   10  A    between atoms: C_22  and  C_23
REMARK                            x       y       z     vdW  Elec       q    Type
REMARK                         _______ _______ _______ _____ _____    ______ ____
ROOT
ATOM      4  C   UNL     1      -4.010  -0.676  24.332  0.00  0.00    +0.237 C 
ATOM      5  O   UNL     1      -4.709  -0.945  23.988  0.00  0.00    -0.274 OA
ATOM      6  N   UNL     1      -3.890   0.131  24.447  0.00  0.00    -0.271 N 
ATOM      7  C   UNL     1      -4.417   0.733  24.246  0.00  0.00    +0.096 C 
ATOM      8  C   UNL     1      -4.075   1.454  24.457  0.00  0.00    +0.045 C 
ATOM      9  C   UNL     1      -3.336   1.297  24.789  0.00  0.00    +0.126 C 
ATOM     17  C   UNL     1      -3.222   0.480  24.783  0.00  0.00    +0.174 C 
ENDROOT
BRANCH   9  10
ATOM     10  N   UNL     1      -2.805   1.858  25.077  0.00  0.00    -0.187 NA
ATOM     11  C   UNL     1      -2.945   2.662  24.951  0.00  0.00    +0.340 C 
ATOM     12  O   UNL     1      -3.617   2.903  24.537  0.00  0.00    -0.249 OA
ATOM     13  N   UNL     1      -2.414   3.223  25.239  0.00  0.00    -0.182 NA
BRANCH  13  14
ATOM     14  C   UNL     1      -2.554   4.027  25.113  0.00  0.00    +0.143 C 
BRANCH  14  15
ATOM     15  C   UNL     1      -2.116   4.592  25.523  0.00  0.00    -0.003 C 
ATOM     16  C   UNL     1      -1.604   5.094  25.115  0.00  0.00    -0.003 C 
ENDBRANCH  14  15
ENDBRANCH  13  14
ENDBRANCH   9  10
BRANCH  17  18
ATOM     18  C   UNL     1      -2.556   0.082  25.063  0.00  0.00    +0.262 C 
ATOM     19  O   UNL     1      -2.642  -0.531  25.610  0.00  0.00    -0.271 OA
ATOM     20  N   UNL     1      -1.805   0.295  24.798  0.00  0.00    -0.196 NA
BRANCH  20  21
ATOM     21  C   UNL     1      -1.139  -0.104  25.079  0.00  0.00    +0.179 C 
BRANCH  21  28
ATOM     28  C   UNL     1      -0.914  -0.025  25.868  0.00  0.00    +0.281 C 
ATOM     29  N   UNL     1      -0.880  -0.690  26.356  0.00  0.00    -0.086 NA
ATOM     30  O   UNL     1      -0.721   0.718  26.169  0.00  0.00    -0.270 OA
ENDBRANCH  21  28
BRANCH  21  22
ATOM     22  C   UNL     1      -0.700  -0.581  24.570  0.00  0.00    +0.064 C 
BRANCH  22  23
ATOM     23  C   UNL     1      -0.182  -0.239  24.027  0.00  0.00    +0.010 A 
ATOM     24  C   UNL     1       0.087   0.541  24.037  0.00  0.00    +0.003 A 
ATOM     25  C   UNL     1       0.593   0.645  23.393  0.00  0.00    +0.007 A 
ATOM     26  C   UNL     1       0.637  -0.071  22.986  0.00  0.00    +0.035 A 
ATOM     27  S   UNL     1       0.159  -0.617  23.376  0.00  0.00    -0.091 S 
ENDBRANCH  22  23
ENDBRANCH  21  22
ENDBRANCH  20  21
ENDBRANCH  17  18
BRANCH   4   3
ATOM      3  C   UNL     1      -3.429  -1.217  24.563  0.00  0.00    +0.143 C 
BRANCH   3   2
ATOM      1  C   UNL     1      -3.548  -2.600  24.901  0.00  0.00    +0.070 C 
ATOM      2  S   UNL     1      -3.486  -2.006  24.331  0.00  0.00    -0.130 S 
ENDBRANCH   3   2
ENDBRANCH   4   3
TORSDOF 10
ENDMDL
