MODEL 1
REMARK VINA RESULT:     -11.3      0.000      0.000
REMARK  Name = 
REMARK  8 active torsions:
REMARK  status: ('A' for Active; 'I' for Inactive)
REMARK    1  A    between atoms: C_2  and  C_10
REMARK    2  A    between atoms: N_3  and  C_4
REMARK    3  A    between atoms: C_4  and  C_5
REMARK    4  A    between atoms: C_17  and  C_18
REMARK    5  A    between atoms: C_18  and  N_19
REMARK    6  A    between atoms: C_21  and  C_22
REMARK    7  A    between atoms: C_22  and  S_23
REMARK    8  A    between atoms: S_23  and  C_24
REMARK                            x       y       z     vdW  Elec       q    Type
REMARK                         _______ _______ _______ _____ _____    ______ ____
ROOT
ATOM     10  C   UNL     1      -0.734   0.128  24.985  0.00  0.00    +0.094 C 
ATOM     11  C   UNL     1      -1.017   0.356  25.673  0.00  0.00    +0.081 C 
ATOM     12  N   UNL     1      -0.595   0.824  25.140  0.00  0.00    -0.272 NA
ATOM     13  C   UNL     1      -0.360   0.221  24.316  0.00  0.00    +0.072 C 
ATOM     14  C   UNL     1      -0.082   0.144  23.730  0.00  0.00    +0.018 C 
ATOM     15  C   UNL     1      -0.321   0.594  24.467  0.00  0.00    +0.013 C 
ATOM     16  C   UNL     1      -0.073   1.435  24.503  0.00  0.00    +0.019 C 
ATOM     17  C   UNL     1      -0.335   1.698  25.170  0.00  0.00    +0.082 C 
ENDROOT
BRANCH  10   2
ATOM      1  O   UNL     1      -0.229  -1.145  24.574  0.00  0.00    -0.273 OA
ATOM      2  C   UNL     1      -0.867  -0.656  24.762  0.00  0.00    +0.243 C 
ATOM      3  N   UNL     1      -1.636  -0.950  24.728  0.00  0.00    -0.197 NA
BRANCH   3   4
ATOM      4  C   UNL     1      -1.768  -1.734  24.506  0.00  0.00    +0.179 C 
BRANCH   4   5
ATOM      5  C   UNL     1      -2.539  -2.024  24.455  0.00  0.00    +0.145 A 
ATOM      6  C   UNL     1      -2.807  -2.743  24.758  0.00  0.00    +0.038 A 
ATOM      7  C   UNL     1      -3.609  -2.811  24.583  0.00  0.00    +0.043 A 
ATOM      8  C   UNL     1      -3.839  -2.133  24.172  0.00  0.00    +0.179 A 
ATOM      9  O   UNL     1      -3.177  -1.647  24.093  0.00  0.00    -0.453 OA
ENDBRANCH   4   5
ENDBRANCH   3   4
ENDBRANCH  10   2
BRANCH  17  18
ATOM     18  C   UNL     1      -0.364   2.375  25.640  0.00  0.00    +0.145 C 
BRANCH  18  19
ATOM     19  N   UNL     1      -0.922   2.962  25.486  0.00  0.00    -0.229 N 
ATOM     20  C   UNL     1      -1.729   2.919  25.652  0.00  0.00    +0.114 A 
ATOM     21  C   UNL     1      -2.077   3.626  25.406  0.00  0.00    +0.112 A 
ATOM     30  N   UNL     1      -1.485   4.104  25.088  0.00  0.00    -0.132 NA
ATOM     31  N   UNL     1      -0.772   3.694  25.138  0.00  0.00    -0.064 NA
BRANCH  21  22
ATOM     22  C   UNL     1      -2.877   3.819  25.467  0.00  0.00    +0.111 C 
BRANCH  22  23
ATOM     23  S   UNL     1      -3.398   3.618  24.860  0.00  0.00    -0.107 S 
BRANCH  23  24
ATOM     24  C   UNL     1      -4.170   3.388  25.038  0.00  0.00    +0.026 A 
ATOM     25  C   UNL     1      -4.652   3.879  25.493  0.00  0.00    +0.006 A 
ATOM     26  C   UNL     1      -5.424   3.648  25.671  0.00  0.00    +0.001 A 
ATOM     27  C   UNL     1      -5.714   2.928  25.394  0.00  0.00    +0.000 A 
ATOM     28  C   UNL     1      -5.231   2.436  24.939  0.00  0.00    +0.001 A 
ATOM     29  C   UNL     1      -4.459   2.667  24.761  0.00  0.00    +0.006 A 
ENDBRANCH  23  24
ENDBRANCH  22  23
ENDBRANCH  21  22
ENDBRANCH  18  19
ENDBRANCH  17  18
TORSDOF 8
ENDMDL
MODEL 2
REMARK VINA RESULT:     -11.3      1.816      3.480
REMARK  Name = 
REMARK  8 active torsions:
REMARK  status: ('A' for Active; 'I' for Inactive)
REMARK    1  A    between atoms: C_2  and  C_10
REMARK    2  A    between atoms: N_3  and  C_4
REMARK    3  A    between atoms: C_4  and  C_5
REMARK    4  A    between atoms: C_17  and  C_18
REMARK    5  A    between atoms: C_18  and  N_19
REMARK    6  A    between atoms: C_21  and  C_22
REMARK    7  A    between atoms: C_22  and  S_23
REMARK    8  A    between atoms: S_23  and  C_24
REMARK                            x       y       z     vdW  Elec       q    Type
REMARK                         _______ _______ _______ _____ _____    ______ ____
ROOT
ATOM     10  C   UNL     1      -3.806  -0.287  24.507  0.00  0.00    +0.094 C 
ATOM     11  C   UNL     1      -3.765   0.184  23.888  0.00  0.00    +0.081 C 
ATOM     12  N   UNL     1      -4.210   0.314  24.571  0.00  0.00    -0.272 NA
ATOM     13  C   UNL     1      -4.047  -0.503  25.207  0.00  0.00    +0.072 C 
ATOM     14  C   UNL     1      -4.157  -0.815  25.771  0.00  0.00    +0.018 C 
ATOM     15  C   UNL     1      -4.245  -0.152  25.174  0.00  0.00    +0.013 C 
ATOM     16  C   UNL     1      -4.775   0.508  25.405  0.00  0.00    +0.019 C 
ATOM     17  C   UNL     1      -4.762   0.997  24.819  0.00  0.00    +0.082 C 
ENDROOT
BRANCH  10   2
ATOM      1  O   UNL     1      -3.745  -1.712  24.405  0.00  0.00    -0.273 OA
ATOM      2  C   UNL     1      -3.364  -0.984  24.481  0.00  0.00    +0.243 C 
ATOM      3  N   UNL     1      -2.542  -0.953  24.532  0.00  0.00    -0.197 NA
BRANCH   3   4
ATOM      4  C   UNL     1      -2.100  -1.649  24.506  0.00  0.00    +0.179 C 
BRANCH   4   5
ATOM      5  C   UNL     1      -1.284  -1.625  24.623  0.00  0.00    +0.145 A 
ATOM      6  C   UNL     1      -0.858  -2.079  25.164  0.00  0.00    +0.038 A 
ATOM      7  C   UNL     1      -0.061  -1.878  25.095  0.00  0.00    +0.043 A 
ATOM      8  C   UNL     1       0.006  -1.299  24.511  0.00  0.00    +0.179 A 
ATOM      9  O   UNL     1      -0.749  -1.143  24.219  0.00  0.00    -0.453 OA
ENDBRANCH   4   5
ENDBRANCH   3   4
ENDBRANCH  10   2
BRANCH  17  18
ATOM     18  C   UNL     1      -5.068   1.718  24.562  0.00  0.00    +0.145 C 
BRANCH  18  19
ATOM     19  N   UNL     1      -4.801   2.423  24.896  0.00  0.00    -0.229 N 
ATOM     20  C   UNL     1      -4.111   2.826  24.691  0.00  0.00    +0.114 A 
ATOM     21  C   UNL     1      -4.061   3.502  25.164  0.00  0.00    +0.112 A 
ATOM     30  N   UNL     1      -4.720   3.514  25.660  0.00  0.00    -0.132 NA
ATOM     31  N   UNL     1      -5.176   2.848  25.495  0.00  0.00    -0.064 NA
BRANCH  21  22
ATOM     22  C   UNL     1      -3.458   4.064  25.143  0.00  0.00    +0.111 C 
BRANCH  22  23
ATOM     23  S   UNL     1      -2.779   3.959  25.600  0.00  0.00    -0.107 S 
BRANCH  23  24
ATOM     24  C   UNL     1      -2.067   4.303  25.367  0.00  0.00    +0.026 A 
ATOM     25  C   UNL     1      -2.020   5.119  25.257  0.00  0.00    +0.006 A 
ATOM     26  C   UNL     1      -1.308   5.464  25.024  0.00  0.00    +0.001 A 
ATOM     27  C   UNL     1      -0.642   4.993  24.901  0.00  0.00    +0.000 A 
ATOM     28  C   UNL     1      -0.689   4.176  25.012  0.00  0.00    +0.001 A 
ATOM     29  C   UNL     1      -1.401   3.831  25.245  0.00  0.00    +0.006 A 
ENDBRANCH  23  24
ENDBRANCH  22  23
ENDBRANCH  21  22
ENDBRANCH  18  19
ENDBRANCH  17  18
TORSDOF 8
ENDMDL
MODEL 3
REMARK VINA RESULT:     -11.1      1.858      4.734
REMARK  Name = 
REMARK  8 active torsions:
REMARK  status: ('A' for Active; 'I' for Inactive)
REMARK    1  A    between atoms: C_2  and  C_10
REMARK    2  A    between atoms: N_3  and  C_4
REMARK    3  A    between atoms: C_4  and  C_5
REMARK    4  A    between atoms: C_17  and  C_18
REMARK    5  A    between atoms: C_18  and  N_19
REMARK    6  A    between atoms: C_21  and  C_22
REMARK    7  A    between atoms: C_22  and  S_23
REMARK    8  A    between atoms: S_23  and  C_24
REMARK                            x       y       z     vdW  Elec       q    Type
REMARK                         _______ _______ _______ _____ _____    ______ ____
ROOT
ATOM     10  C   UNL     1      -1.549   2.706  24.929  0.00  0.00    +0.094 C 
ATOM     11  C   UNL     1      -1.729   2.370  24.250  0.00  0.00    +0.081 C 
ATOM     12  N   UNL     1      -1.087   2.181  24.732  0.00  0.00    -0.272 NA
ATOM     13  C   UNL     1      -1.129   2.813  25.568  0.00  0.00    +0.072 C 
ATOM     14  C   UNL     1      -0.886   3.017  26.138  0.00  0.00    +0.018 C 
ATOM     15  C   UNL     1      -0.917   2.514  25.397  0.00  0.00    +0.013 C 
ATOM     16  C   UNL     1      -0.278   1.919  25.307  0.00  0.00    +0.019 C 
ATOM     17  C   UNL     1      -0.419   1.564  24.646  0.00  0.00    +0.082 C 
ENDROOT
BRANCH  10   2
ATOM      1  O   UNL     1      -1.732   4.049  25.383  0.00  0.00    -0.273 OA
ATOM      2  C   UNL     1      -2.046   3.309  25.195  0.00  0.00    +0.243 C 
ATOM      3  N   UNL     1      -2.855   3.172  25.274  0.00  0.00    -0.197 NA
BRANCH   3   4
ATOM      4  C   UNL     1      -3.351   3.775  25.540  0.00  0.00    +0.179 C 
BRANCH   4   5
ATOM      5  C   UNL     1      -4.165   3.647  25.594  0.00  0.00    +0.145 A 
ATOM      6  C   UNL     1      -4.750   4.063  25.187  0.00  0.00    +0.038 A 
ATOM      7  C   UNL     1      -5.482   3.754  25.406  0.00  0.00    +0.043 A 
ATOM      8  C   UNL     1      -5.351   3.147  25.949  0.00  0.00    +0.179 A 
ATOM      9  O   UNL     1      -4.537   3.080  26.065  0.00  0.00    -0.453 OA
ENDBRANCH   4   5
ENDBRANCH   3   4
ENDBRANCH  10   2
BRANCH  17  18
ATOM     18  C   UNL     1      -0.135   0.972  24.148  0.00  0.00    +0.145 C 
BRANCH  18  19
ATOM     19  N   UNL     1      -0.316   0.182  24.300  0.00  0.00    -0.229 N 
ATOM     20  C   UNL     1      -1.034  -0.191  24.138  0.00  0.00    +0.114 A 
ATOM     21  C   UNL     1      -0.972  -0.978  24.379  0.00  0.00    +0.112 A 
ATOM     30  N   UNL     1      -0.216  -1.090  24.691  0.00  0.00    -0.132 NA
ATOM     31  N   UNL     1       0.189  -0.374  24.642  0.00  0.00    -0.064 NA
BRANCH  21  22
ATOM     22  C   UNL     1      -1.562  -1.551  24.320  0.00  0.00    +0.111 C 
BRANCH  22  23
ATOM     23  S   UNL     1      -2.262  -1.469  24.749  0.00  0.00    -0.107 S 
BRANCH  23  24
ATOM     24  C   UNL     1      -2.946  -1.858  24.502  0.00  0.00    +0.026 A 
ATOM     25  C   UNL     1      -3.006  -2.677  24.581  0.00  0.00    +0.006 A 
ATOM     26  C   UNL     1      -3.689  -3.066  24.333  0.00  0.00    +0.001 A 
ATOM     27  C   UNL     1      -4.314  -2.637  24.007  0.00  0.00    +0.000 A 
ATOM     28  C   UNL     1      -4.254  -1.818  23.928  0.00  0.00    +0.001 A 
ATOM     29  C   UNL     1      -3.570  -1.428  24.176  0.00  0.00    +0.006 A 
ENDBRANCH  23  24
ENDBRANCH  22  23
ENDBRANCH  21  22
ENDBRANCH  18  19
ENDBRANCH  17  18
TORSDOF 8
ENDMDL
MODEL 4
REMARK VINA RESULT:     -10.3      2.282      4.952
REMARK  Name = 
REMARK  8 active torsions:
REMARK  status: ('A' for Active; 'I' for Inactive)
REMARK    1  A    between atoms: C_2  and  C_10
REMARK    2  A    between atoms: N_3  and  C_4
REMARK    3  A    between atoms: C_4  and  C_5
REMARK    4  A    between atoms: C_17  and  C_18
REMARK    5  A    between atoms: C_18  and  N_19
REMARK    6  A    between atoms: C_21  and  C_22
REMARK    7  A    between atoms: C_22  and  S_23
REMARK    8  A    between atoms: S_23  and  C_24
REMARK                            x       y       z     vdW  Elec       q    Type
REMARK                         _______ _______ _______ _____ _____    ______ ____
ROOT
ATOM     10  C   UNL     1      -2.827   3.666  25.030  0.00  0.00    +0.094 C 
ATOM     11  C   UNL     1      -3.124   3.295  24.414  0.00  0.00    +0.081 C 
ATOM     12  N   UNL     1      -3.536   3.520  25.093  0.00  0.00    -0.272 NA
ATOM     13  C   UNL     1      -2.850   3.996  25.727  0.00  0.00    +0.072 C 
ATOM     14  C   UNL     1      -2.713   4.301  26.289  0.00  0.00    +0.018 C 
ATOM     15  C   UNL     1      -3.237   3.883  25.693  0.00  0.00    +0.013 C 
ATOM     16  C   UNL     1      -4.079   3.784  25.922  0.00  0.00    +0.019 C 
ATOM     17  C   UNL     1      -4.409   3.420  25.338  0.00  0.00    +0.082 C 
ENDROOT
BRANCH  10   2
ATOM      1  O   UNL     1      -1.779   4.635  25.118  0.00  0.00    -0.273 OA
ATOM      2  C   UNL     1      -2.023   3.855  25.006  0.00  0.00    +0.243 C 
ATOM      3  N   UNL     1      -1.465   3.263  24.869  0.00  0.00    -0.197 NA
BRANCH   3   4
ATOM      4  C   UNL     1      -0.662   3.452  24.845  0.00  0.00    +0.179 C 
BRANCH   4   5
ATOM      5  C   UNL     1      -0.106   2.869  24.666  0.00  0.00    +0.145 A 
ATOM      6  C   UNL     1       0.180   2.296  25.186  0.00  0.00    +0.038 A 
ATOM      7  C   UNL     1       0.724   1.830  24.779  0.00  0.00    +0.043 A 
ATOM      8  C   UNL     1       0.775   2.114  24.006  0.00  0.00    +0.179 A 
ATOM      9  O   UNL     1       0.262   2.756  23.936  0.00  0.00    -0.453 OA
ENDBRANCH   4   5
ENDBRANCH   3   4
ENDBRANCH  10   2
BRANCH  17  18
ATOM     18  C   UNL     1      -5.131   3.116  25.081  0.00  0.00    +0.145 C 
BRANCH  18  19
ATOM     19  N   UNL     1      -5.314   2.322  25.209  0.00  0.00    -0.229 N 
ATOM     20  C   UNL     1      -4.955   1.677  24.840  0.00  0.00    +0.114 A 
ATOM     21  C   UNL     1      -5.308   0.989  25.131  0.00  0.00    +0.112 A 
ATOM     30  N   UNL     1      -5.883   1.211  25.679  0.00  0.00    -0.132 NA
ATOM     31  N   UNL     1      -5.887   2.034  25.727  0.00  0.00    -0.064 NA
BRANCH  21  22
ATOM     22  C   UNL     1      -5.118   0.217  24.912  0.00  0.00    +0.111 C 
BRANCH  22  23
ATOM     23  S   UNL     1      -4.327  -0.008  24.836  0.00  0.00    -0.107 S 
BRANCH  23  24
ATOM     24  C   UNL     1      -4.134  -0.798  24.702  0.00  0.00    +0.026 A 
ATOM     25  C   UNL     1      -4.357  -1.163  23.997  0.00  0.00    +0.006 A 
ATOM     26  C   UNL     1      -4.164  -1.953  23.862  0.00  0.00    +0.001 A 
ATOM     27  C   UNL     1      -3.748  -2.379  24.433  0.00  0.00    +0.000 A 
ATOM     28  C   UNL     1      -3.525  -2.014  25.139  0.00  0.00    +0.001 A 
ATOM     29  C   UNL     1      -3.718  -1.224  25.273  0.00  0.00    +0.006 A 
ENDBRANCH  23  24
ENDBRANCH  22  23
ENDBRANCH  21  22
ENDBRANCH  18  19
ENDBRANCH  17  18
TORSDOF 8
ENDMDL
MODEL 5
REMARK VINA RESULT:      -9.9      3.117      5.906
REMARK  Name = 
REMARK  8 active torsions:
REMARK  status: ('A' for Active; 'I' for Inactive)
REMARK    1  A    between atoms: C_2  and  C_10
REMARK    2  A    between atoms: N_3  and  C_4
REMARK    3  A    between atoms: C_4  and  C_5
REMARK    4  A    between atoms: C_17  and  C_18
REMARK    5  A    between atoms: C_18  and  N_19
REMARK    6  A    between atoms: C_21  and  C_22
REMARK    7  A    between atoms: C_22  and  S_23
REMARK    8  A    between atoms: S_23  and  C_24
REMARK                            x       y       z     vdW  Elec       q    Type
REMARK                         _______ _______ _______ _____ _____    ______ ____
ROOT
ATOM     10  C   UNL     1      -2.457   1.875  24.107  0.00  0.00    +0.094 C 
ATOM     11  C   UNL     1      -2.180   1.666  24.804  0.00  0.00    +0.081 C 
ATOM     12  N   UNL     1      -1.860   1.462  24.071  0.00  0.00    -0.272 NA
ATOM     13  C   UNL     1      -2.465   1.899  23.336  0.00  0.00    +0.072 C 
ATOM     14  C   UNL     1      -2.604   2.011  22.707  0.00  0.00    +0.018 C 
ATOM     15  C   UNL     1      -2.137   1.670  23.392  0.00  0.00    +0.013 C 
ATOM     16  C   UNL     1      -1.435   1.188  23.178  0.00  0.00    +0.019 C 
ATOM     17  C   UNL     1      -1.132   0.962  23.842  0.00  0.00    +0.082 C 
ENDROOT
BRANCH  10   2
ATOM      1  O   UNL     1      -3.160   3.021  23.622  0.00  0.00    -0.273 OA
ATOM      2  C   UNL     1      -3.135   2.346  24.096  0.00  0.00    +0.243 C 
ATOM      3  N   UNL     1      -3.787   2.141  24.557  0.00  0.00    -0.197 NA
BRANCH   3   4
ATOM      4  C   UNL     1      -4.464   2.611  24.545  0.00  0.00    +0.179 C 
BRANCH   4   5
ATOM      5  C   UNL     1      -5.101   2.432  25.039  0.00  0.00    +0.145 A 
ATOM      6  C   UNL     1      -5.751   1.963  24.841  0.00  0.00    +0.038 A 
ATOM      7  C   UNL     1      -6.250   1.930  25.496  0.00  0.00    +0.043 A 
ATOM      8  C   UNL     1      -5.910   2.379  26.099  0.00  0.00    +0.179 A 
ATOM      9  O   UNL     1      -5.199   2.689  25.817  0.00  0.00    -0.453 OA
ENDBRANCH   4   5
ENDBRANCH   3   4
ENDBRANCH  10   2
BRANCH  17  18
ATOM     18  C   UNL     1      -0.511   0.524  24.161  0.00  0.00    +0.145 C 
BRANCH  18  19
ATOM     19  N   UNL     1       0.151   0.348  23.701  0.00  0.00    -0.229 N 
ATOM     20  C   UNL     1       0.883   0.727  23.739  0.00  0.00    +0.114 A 
ATOM     21  C   UNL     1       1.381   0.374  23.183  0.00  0.00    +0.112 A 
ATOM     30  N   UNL     1       0.956  -0.221  22.802  0.00  0.00    -0.132 NA
ATOM     31  N   UNL     1       0.196  -0.237  23.121  0.00  0.00    -0.064 NA
BRANCH  21  22
ATOM     22  C   UNL     1       2.165   0.582  23.035  0.00  0.00    +0.111 C 
BRANCH  22  23
ATOM     23  S   UNL     1       2.716  -0.000  22.837  0.00  0.00    -0.107 S 
BRANCH  23  24
ATOM     24  C   UNL     1       3.518   0.125  22.981  0.00  0.00    +0.026 A 
ATOM     25  C   UNL     1       3.966  -0.456  23.358  0.00  0.00    +0.006 A 
ATOM     26  C   UNL     1       4.768  -0.330  23.501  0.00  0.00    +0.001 A 
ATOM     27  C   UNL     1       5.123   0.377  23.268  0.00  0.00    +0.000 A 
ATOM     28  C   UNL     1       4.675   0.958  22.891  0.00  0.00    +0.001 A 
ATOM     29  C   UNL     1       3.873   0.833  22.747  0.00  0.00    +0.006 A 
ENDBRANCH  23  24
ENDBRANCH  22  23
ENDBRANCH  21  22
ENDBRANCH  18  19
ENDBRANCH  17  18
TORSDOF 8
ENDMDL
MODEL 6
REMARK VINA RESULT:      -9.9      2.621      4.083
REMARK  Name = 
REMARK  8 active torsions:
REMARK  status: ('A' for Active; 'I' for Inactive)
REMARK    1  A    between atoms: C_2  and  C_10
REMARK    2  A    between atoms: N_3  and  C_4
REMARK    3  A    between atoms: C_4  and  C_5
REMARK    4  A    between atoms: C_17  and  C_18
REMARK    5  A    between atoms: C_18  and  N_19
REMARK    6  A    between atoms: C_21  and  C_22
REMARK    7  A    between atoms: C_22  and  S_23
REMARK    8  A    between atoms: S_23  and  C_24
REMARK                            x       y       z     vdW  Elec       q    Type
REMARK                         _______ _______ _______ _____ _____    ______ ____
ROOT
ATOM     10  C   UNL     1       1.368   0.632  23.227  0.00  0.00    +0.094 C 
ATOM     11  C   UNL     1       1.462   1.318  23.581  0.00  0.00    +0.081 C 
ATOM     12  N   UNL     1       0.774   0.863  23.577  0.00  0.00    -0.272 NA
ATOM     13  C   UNL     1       0.976   0.001  23.015  0.00  0.00    +0.072 C 
ATOM     14  C   UNL     1       0.785  -0.570  22.763  0.00  0.00    +0.018 C 
ATOM     15  C   UNL     1       0.689   0.190  23.228  0.00  0.00    +0.013 C 
ATOM     16  C   UNL     1      -0.098   0.323  23.593  0.00  0.00    +0.019 C 
ATOM     17  C   UNL     1      -0.047   0.994  23.954  0.00  0.00    +0.082 C 
ENDROOT
BRANCH  10   2
ATOM      1  O   UNL     1       1.905  -0.034  22.082  0.00  0.00    -0.273 OA
ATOM      2  C   UNL     1       2.016   0.326  22.816  0.00  0.00    +0.243 C 
ATOM      3  N   UNL     1       2.772   0.382  23.138  0.00  0.00    -0.197 NA
BRANCH   3   4
ATOM      4  C   UNL     1       3.419   0.077  22.727  0.00  0.00    +0.179 C 
BRANCH   4   5
ATOM      5  C   UNL     1       4.158   0.038  23.090  0.00  0.00    +0.145 A 
ATOM      6  C   UNL     1       4.727   0.636  23.097  0.00  0.00    +0.038 A 
ATOM      7  C   UNL     1       5.380   0.364  23.521  0.00  0.00    +0.043 A 
ATOM      8  C   UNL     1       5.215  -0.403  23.777  0.00  0.00    +0.179 A 
ATOM      9  O   UNL     1       4.460  -0.604  23.511  0.00  0.00    -0.453 OA
ENDBRANCH   4   5
ENDBRANCH   3   4
ENDBRANCH  10   2
BRANCH  17  18
ATOM     18  C   UNL     1      -0.479   1.524  24.413  0.00  0.00    +0.145 C 
BRANCH  18  19
ATOM     19  N   UNL     1      -1.267   1.684  24.229  0.00  0.00    -0.229 N 
ATOM     20  C   UNL     1      -1.920   1.511  24.703  0.00  0.00    +0.114 A 
ATOM     21  C   UNL     1      -2.598   1.764  24.305  0.00  0.00    +0.112 A 
ATOM     30  N   UNL     1      -2.362   2.093  23.586  0.00  0.00    -0.132 NA
ATOM     31  N   UNL     1      -1.541   2.043  23.539  0.00  0.00    -0.064 NA
BRANCH  21  22
ATOM     22  C   UNL     1      -3.373   1.700  24.578  0.00  0.00    +0.111 C 
BRANCH  22  23
ATOM     23  S   UNL     1      -3.880   2.351  24.541  0.00  0.00    -0.107 S 
BRANCH  23  24
ATOM     24  C   UNL     1      -4.608   2.329  24.926  0.00  0.00    +0.026 A 
ATOM     25  C   UNL     1      -4.792   2.898  25.494  0.00  0.00    +0.006 A 
ATOM     26  C   UNL     1      -5.520   2.877  25.880  0.00  0.00    +0.001 A 
ATOM     27  C   UNL     1      -6.066   2.286  25.698  0.00  0.00    +0.000 A 
ATOM     28  C   UNL     1      -5.882   1.716  25.129  0.00  0.00    +0.001 A 
ATOM     29  C   UNL     1      -5.154   1.737  24.744  0.00  0.00    +0.006 A 
ENDBRANCH  23  24
ENDBRANCH  22  23
ENDBRANCH  21  22
ENDBRANCH  18  19
ENDBRANCH  17  18
TORSDOF 8
ENDMDL
