MODEL 1
REMARK VINA RESULT:     -11.0      0.000      0.000
REMARK  Name = 
REMARK  8 active torsions:
REMARK  status: ('A' for Active; 'I' for Inactive)
REMARK    1  A    between atoms: C_2  and  C_4
REMARK    2  A    between atoms: C_6  and  C_7
REMARK    3  A    between atoms: C_7  and  C_8
REMARK    4  A    between atoms: C_18  and  C_19
REMARK    5  A    between atoms: C_19  and  N_20
REMARK    6  A    between atoms: C_21  and  C_23
REMARK    7  A    between atoms: C_23  and  C_24
REMARK    8  A    between atoms: C_24  and  C_25
REMARK                            x       y       z     vdW  Elec       q    Type
REMARK                         _______ _______ _______ _____ _____    ______ ____
ROOT
ATOM      4  C   UNL     1      -4.644   1.461  24.962  0.00  0.00    +0.006 C 
ATOM      5  C   UNL     1      -4.594   0.663  24.755  0.00  0.00    +0.005 C 
ATOM      6  C   UNL     1      -3.891   0.361  24.445  0.00  0.00    +0.027 C 
ATOM     15  C   UNL     1      -3.240   0.855  24.343  0.00  0.00    -0.048 C 
ATOM     16  C   UNL     1      -2.537   0.553  24.033  0.00  0.00    +0.026 C 
ATOM     17  C   UNL     1      -3.289   1.652  24.550  0.00  0.00    -0.033 C 
ATOM     18  C   UNL     1      -3.993   1.955  24.860  0.00  0.00    +0.043 C 
ENDROOT
BRANCH   4   2
ATOM      1  C   UNL     1      -5.930   2.051  24.764  0.00  0.00    +0.000 C 
ATOM      2  C   UNL     1      -5.347   1.763  25.271  0.00  0.00    +0.000 C 
ATOM      3  C   UNL     1      -5.466   1.777  26.088  0.00  0.00    +0.000 C 
ENDBRANCH   4   2
BRANCH   6   7
ATOM      7  C   UNL     1      -3.842  -0.436  24.238  0.00  0.00    +0.089 C 
BRANCH   7   8
ATOM      8  C   UNL     1      -3.715  -1.005  24.822  0.00  0.00    +0.226 C 
ATOM      9  O   UNL     1      -3.566  -0.774  25.598  0.00  0.00    -0.275 OA
ATOM     10  N   UNL     1      -3.739  -1.808  24.627  0.00  0.00    -0.280 N 
ATOM     11  C   UNL     1      -3.882  -2.121  23.876  0.00  0.00    +0.093 C 
ATOM     12  C   UNL     1      -3.856  -2.943  23.935  0.00  0.00    +0.023 C 
ATOM     13  C   UNL     1      -3.696  -3.139  24.721  0.00  0.00    +0.023 C 
ATOM     14  C   UNL     1      -3.624  -2.437  25.149  0.00  0.00    +0.093 C 
ENDBRANCH   7   8
ENDBRANCH   6   7
BRANCH  18  19
ATOM     19  C   UNL     1      -4.042   2.752  25.066  0.00  0.00    +0.119 C 
BRANCH  19  20
ATOM     20  N   UNL     1      -3.460   3.279  24.814  0.00  0.00    -0.205 NA
ATOM     21  C   UNL     1      -3.267   3.934  25.279  0.00  0.00    +0.242 C 
ATOM     22  O   UNL     1      -3.657   4.060  25.995  0.00  0.00    -0.273 OA
BRANCH  21  23
ATOM     23  C   UNL     1      -2.685   4.461  25.027  0.00  0.00    +0.099 C 
BRANCH  23  24
ATOM     24  C   UNL     1      -2.010   4.581  25.487  0.00  0.00    +0.124 C 
BRANCH  24  25
ATOM     25  C   UNL     1      -1.358   4.971  25.167  0.00  0.00    +0.365 C 
ATOM     26  O   UNL     1      -0.682   4.543  24.962  0.00  0.00    -0.246 OA
ATOM     27  O   UNL     1      -1.380   5.786  25.052  0.00  0.00    -0.246 OA
ENDBRANCH  24  25
ENDBRANCH  23  24
ENDBRANCH  21  23
ENDBRANCH  19  20
ENDBRANCH  18  19
TORSDOF 8
ENDMDL
MODEL 2
REMARK VINA RESULT:     -10.1      1.399      5.468
REMARK  Name = 
REMARK  8 active torsions:
REMARK  status: ('A' for Active; 'I' for Inactive)
REMARK    1  A    between atoms: C_2  and  C_4
REMARK    2  A    between atoms: C_6  and  C_7
REMARK    3  A    between atoms: C_7  and  C_8
REMARK    4  A    between atoms: C_18  and  C_19
REMARK    5  A    between atoms: C_19  and  N_20
REMARK    6  A    between atoms: C_21  and  C_23
REMARK    7  A    between atoms: C_23  and  C_24
REMARK    8  A    between atoms: C_24  and  C_25
REMARK                            x       y       z     vdW  Elec       q    Type
REMARK                         _______ _______ _______ _____ _____    ______ ____
ROOT
ATOM      4  C   UNL     1      -3.278   2.072  24.437  0.00  0.00    +0.006 C 
ATOM      5  C   UNL     1      -2.740   2.650  24.681  0.00  0.00    +0.005 C 
ATOM      6  C   UNL     1      -2.034   2.428  25.046  0.00  0.00    +0.027 C 
ATOM     15  C   UNL     1      -1.865   1.631  25.167  0.00  0.00    -0.048 C 
ATOM     16  C   UNL     1      -1.159   1.409  25.531  0.00  0.00    +0.026 C 
ATOM     17  C   UNL     1      -2.402   1.053  24.923  0.00  0.00    -0.033 C 
ATOM     18  C   UNL     1      -3.109   1.275  24.558  0.00  0.00    +0.043 C 
ENDROOT
BRANCH   4   2
ATOM      1  C   UNL     1      -4.678   2.339  24.514  0.00  0.00    +0.000 C 
ATOM      2  C   UNL     1      -3.983   2.294  24.072  0.00  0.00    +0.000 C 
ATOM      3  C   UNL     1      -3.995   2.470  23.266  0.00  0.00    +0.000 C 
ENDBRANCH   4   2
BRANCH   6   7
ATOM      7  C   UNL     1      -1.497   3.006  25.289  0.00  0.00    +0.089 C 
BRANCH   7   8
ATOM      8  C   UNL     1      -1.770   3.750  25.518  0.00  0.00    +0.226 C 
ATOM      9  O   UNL     1      -2.400   3.814  26.046  0.00  0.00    -0.275 OA
ATOM     10  N   UNL     1      -1.411   4.430  25.218  0.00  0.00    -0.280 N 
ATOM     11  C   UNL     1      -0.779   4.452  24.689  0.00  0.00    +0.093 C 
ATOM     12  C   UNL     1      -0.599   5.243  24.539  0.00  0.00    +0.023 C 
ATOM     13  C   UNL     1      -1.121   5.711  24.976  0.00  0.00    +0.023 C 
ATOM     14  C   UNL     1      -1.623   5.208  25.396  0.00  0.00    +0.093 C 
ENDBRANCH   7   8
ENDBRANCH   6   7
BRANCH  18  19
ATOM     19  C   UNL     1      -3.645   0.697  24.314  0.00  0.00    +0.119 C 
BRANCH  19  20
ATOM     20  N   UNL     1      -3.392  -0.081  24.210  0.00  0.00    -0.205 NA
ATOM     21  C   UNL     1      -3.946  -0.692  24.169  0.00  0.00    +0.242 C 
ATOM     22  O   UNL     1      -4.751  -0.524  24.232  0.00  0.00    -0.273 OA
BRANCH  21  23
ATOM     23  C   UNL     1      -3.693  -1.470  24.065  0.00  0.00    +0.099 C 
BRANCH  23  24
ATOM     24  C   UNL     1      -4.033  -2.077  24.510  0.00  0.00    +0.124 C 
BRANCH  24  25
ATOM     25  C   UNL     1      -3.658  -2.810  24.561  0.00  0.00    +0.365 C 
ATOM     26  O   UNL     1      -3.617  -3.299  23.897  0.00  0.00    -0.246 OA
ATOM     27  O   UNL     1      -3.326  -3.054  25.274  0.00  0.00    -0.246 OA
ENDBRANCH  24  25
ENDBRANCH  23  24
ENDBRANCH  21  23
ENDBRANCH  19  20
ENDBRANCH  18  19
TORSDOF 8
ENDMDL
MODEL 3
REMARK VINA RESULT:     -10.0      1.130      2.242
REMARK  Name = 
REMARK  8 active torsions:
REMARK  status: ('A' for Active; 'I' for Inactive)
REMARK    1  A    between atoms: C_2  and  C_4
REMARK    2  A    between atoms: C_6  and  C_7
REMARK    3  A    between atoms: C_7  and  C_8
REMARK    4  A    between atoms: C_18  and  C_19
REMARK    5  A    between atoms: C_19  and  N_20
REMARK    6  A    between atoms: C_21  and  C_23
REMARK    7  A    between atoms: C_23  and  C_24
REMARK    8  A    between atoms: C_24  and  C_25
REMARK                            x       y       z     vdW  Elec       q    Type
REMARK                         _______ _______ _______ _____ _____    ______ ____
ROOT
ATOM      4  C   UNL     1      -1.867   0.464  24.825  0.00  0.00    +0.006 C 
ATOM      5  C   UNL     1      -2.435  -0.124  24.707  0.00  0.00    +0.005 C 
ATOM      6  C   UNL     1      -3.238   0.066  24.738  0.00  0.00    +0.027 C 
ATOM     15  C   UNL     1      -3.472   0.842  24.887  0.00  0.00    -0.048 C 
ATOM     16  C   UNL     1      -4.274   1.032  24.918  0.00  0.00    +0.026 C 
ATOM     17  C   UNL     1      -2.904   1.430  25.005  0.00  0.00    -0.033 C 
ATOM     18  C   UNL     1      -2.101   1.240  24.974  0.00  0.00    +0.043 C 
ENDROOT
BRANCH   4   2
ATOM      1  C   UNL     1      -0.658   0.324  24.078  0.00  0.00    +0.000 C 
ATOM      2  C   UNL     1      -1.065   0.274  24.793  0.00  0.00    +0.000 C 
ATOM      3  C   UNL     1      -0.670   0.034  25.477  0.00  0.00    +0.000 C 
ENDBRANCH   4   2
BRANCH   6   7
ATOM      7  C   UNL     1      -3.804  -0.521  24.620  0.00  0.00    +0.089 C 
BRANCH   7   8
ATOM      8  C   UNL     1      -3.710  -1.261  24.973  0.00  0.00    +0.226 C 
ATOM      9  O   UNL     1      -3.478  -1.314  25.762  0.00  0.00    -0.275 OA
ATOM     10  N   UNL     1      -3.848  -1.947  24.536  0.00  0.00    -0.280 N 
ATOM     11  C   UNL     1      -4.082  -1.980  23.745  0.00  0.00    +0.093 C 
ATOM     12  C   UNL     1      -4.155  -2.774  23.534  0.00  0.00    +0.023 C 
ATOM     13  C   UNL     1      -3.966  -3.232  24.194  0.00  0.00    +0.023 C 
ATOM     14  C   UNL     1      -3.777  -2.722  24.813  0.00  0.00    +0.093 C 
ENDBRANCH   7   8
ENDBRANCH   6   7
BRANCH  18  19
ATOM     19  C   UNL     1      -1.535   1.827  25.092  0.00  0.00    +0.119 C 
BRANCH  19  20
ATOM     20  N   UNL     1      -1.760   2.621  25.095  0.00  0.00    -0.205 NA
ATOM     21  C   UNL     1      -1.237   3.196  25.374  0.00  0.00    +0.242 C 
ATOM     22  O   UNL     1      -0.491   2.977  25.649  0.00  0.00    -0.273 OA
BRANCH  21  23
ATOM     23  C   UNL     1      -1.462   3.990  25.378  0.00  0.00    +0.099 C 
BRANCH  23  24
ATOM     24  C   UNL     1      -0.956   4.563  25.066  0.00  0.00    +0.124 C 
BRANCH  24  25
ATOM     25  C   UNL     1      -1.204   5.348  25.017  0.00  0.00    +0.365 C 
ATOM     26  O   UNL     1      -0.720   5.911  24.656  0.00  0.00    -0.246 OA
ATOM     27  O   UNL     1      -1.934   5.570  25.328  0.00  0.00    -0.246 OA
ENDBRANCH  24  25
ENDBRANCH  23  24
ENDBRANCH  21  23
ENDBRANCH  19  20
ENDBRANCH  18  19
TORSDOF 8
ENDMDL
MODEL 4
REMARK VINA RESULT:      -9.9      2.705      4.579
REMARK  Name = 
REMARK  8 active torsions:
REMARK  status: ('A' for Active; 'I' for Inactive)
REMARK    1  A    between atoms: C_2  and  C_4
REMARK    2  A    between atoms: C_6  and  C_7
REMARK    3  A    between atoms: C_7  and  C_8
REMARK    4  A    between atoms: C_18  and  C_19
REMARK    5  A    between atoms: C_19  and  N_20
REMARK    6  A    between atoms: C_21  and  C_23
REMARK    7  A    between atoms: C_23  and  C_24
REMARK    8  A    between atoms: C_24  and  C_25
REMARK                            x       y       z     vdW  Elec       q    Type
REMARK                         _______ _______ _______ _____ _____    ______ ____
ROOT
ATOM      4  C   UNL     1      -2.357   0.321  24.690  0.00  0.00    +0.006 C 
ATOM      5  C   UNL     1      -3.074   0.729  24.706  0.00  0.00    +0.005 C 
ATOM      6  C   UNL     1      -3.206   1.354  24.182  0.00  0.00    +0.027 C 
ATOM     15  C   UNL     1      -2.621   1.570  23.644  0.00  0.00    -0.048 C 
ATOM     16  C   UNL     1      -2.751   2.194  23.120  0.00  0.00    +0.026 C 
ATOM     17  C   UNL     1      -1.903   1.162  23.628  0.00  0.00    -0.033 C 
ATOM     18  C   UNL     1      -1.772   0.537  24.152  0.00  0.00    +0.043 C 
ENDROOT
BRANCH   4   2
ATOM      1  C   UNL     1      -1.790  -0.177  25.902  0.00  0.00    +0.000 C 
ATOM      2  C   UNL     1      -2.226  -0.303  25.214  0.00  0.00    +0.000 C 
ATOM      3  C   UNL     1      -2.531  -1.051  25.049  0.00  0.00    +0.000 C 
ENDBRANCH   4   2
BRANCH   6   7
ATOM      7  C   UNL     1      -3.923   1.761  24.199  0.00  0.00    +0.089 C 
BRANCH   7   8
ATOM      8  C   UNL     1      -4.130   2.203  24.864  0.00  0.00    +0.226 C 
ATOM      9  O   UNL     1      -3.552   2.618  25.280  0.00  0.00    -0.275 OA
ATOM     10  N   UNL     1      -4.916   2.229  25.113  0.00  0.00    -0.280 N 
ATOM     11  C   UNL     1      -5.552   1.844  24.753  0.00  0.00    +0.093 C 
ATOM     12  C   UNL     1      -6.233   2.022  25.183  0.00  0.00    +0.023 C 
ATOM     13  C   UNL     1      -6.019   2.517  25.808  0.00  0.00    +0.023 C 
ATOM     14  C   UNL     1      -5.205   2.645  25.764  0.00  0.00    +0.093 C 
ENDBRANCH   7   8
ENDBRANCH   6   7
BRANCH  18  19
ATOM     19  C   UNL     1      -1.055   0.130  24.135  0.00  0.00    +0.119 C 
BRANCH  19  20
ATOM     20  N   UNL     1      -0.425   0.423  23.690  0.00  0.00    -0.205 NA
ATOM     21  C   UNL     1       0.241  -0.046  23.559  0.00  0.00    +0.242 C 
ATOM     22  O   UNL     1       0.277  -0.809  23.873  0.00  0.00    -0.273 OA
BRANCH  21  23
ATOM     23  C   UNL     1       0.871   0.247  23.114  0.00  0.00    +0.099 C 
BRANCH  23  24
ATOM     24  C   UNL     1       1.474  -0.261  22.870  0.00  0.00    +0.124 C 
BRANCH  24  25
ATOM     25  C   UNL     1       2.081   0.023  22.388  0.00  0.00    +0.365 C 
ATOM     26  O   UNL     1       2.068  -0.129  21.576  0.00  0.00    -0.246 OA
ATOM     27  O   UNL     1       2.699   0.458  22.716  0.00  0.00    -0.246 OA
ENDBRANCH  24  25
ENDBRANCH  23  24
ENDBRANCH  21  23
ENDBRANCH  19  20
ENDBRANCH  18  19
TORSDOF 8
ENDMDL
