MODEL 1
REMARK VINA RESULT:     -10.2      0.000      0.000
REMARK  Name = 
REMARK  10 active torsions:
REMARK  status: ('A' for Active; 'I' for Inactive)
REMARK    1  A    between atoms: O_2  and  C_3
REMARK    2  A    between atoms: C_3  and  C_4
REMARK    3  A    between atoms: C_4  and  O_5
REMARK    4  A    between atoms: O_5  and  C_6
REMARK    5  A    between atoms: C_9  and  C_12
REMARK    6  A    between atoms: C_15  and  C_17
REMARK    7  A    between atoms: N_21  and  C_22
REMARK    8  A    between atoms: C_22  and  C_23
REMARK    9  A    between atoms: C_23  and  C_24
REMARK   10  A    between atoms: C_24  and  C_25
REMARK                            x       y       z     vdW  Elec       q    Type
REMARK                         _______ _______ _______ _____ _____    ______ ____
ROOT
ATOM     12  C   UNL     1      -1.017   1.606  24.401  0.00  0.00    +0.205 A 
ATOM     13  N   UNL     1      -1.064   1.968  25.141  0.00  0.00    -0.056 NA
ATOM     14  O   UNL     1      -1.841   2.225  25.250  0.00  0.00    -0.336 OA
ATOM     15  C   UNL     1      -2.273   2.022  24.578  0.00  0.00    +0.251 A 
ATOM     16  N   UNL     1      -1.764   1.639  24.053  0.00  0.00    -0.190 NA
ENDROOT
BRANCH  12   9
ATOM      6  C   UNL     1       1.010   0.597  23.402  0.00  0.00    +0.225 A 
ATOM      7  C   UNL     1       0.311   0.160  23.447  0.00  0.00    +0.058 A 
ATOM      8  C   UNL     1      -0.365   0.496  23.780  0.00  0.00    +0.010 A 
ATOM      9  C   UNL     1      -0.341   1.269  24.068  0.00  0.00    +0.058 A 
ATOM     10  C   UNL     1       0.357   1.705  24.024  0.00  0.00    +0.105 A 
ATOM     11  N   UNL     1       1.033   1.369  23.691  0.00  0.00    -0.210 NA
BRANCH   6   5
ATOM      5  O   UNL     1       1.686   0.260  23.069  0.00  0.00    -0.457 OA
BRANCH   5   4
ATOM      4  C   UNL     1       2.392   0.686  23.050  0.00  0.00    +0.239 C 
BRANCH   4   3
ATOM      3  C   UNL     1       3.074   0.340  22.741  0.00  0.00    +0.189 C 
BRANCH   3   2
ATOM      1  C   UNL     1       4.496   0.452  22.832  0.00  0.00    +0.174 C 
ATOM      2  O   UNL     1       3.763   0.788  22.658  0.00  0.00    -0.347 OA
ENDBRANCH   3   2
ENDBRANCH   4   3
ENDBRANCH   5   4
ENDBRANCH   6   5
ENDBRANCH  12   9
BRANCH  15  17
ATOM     17  C   UNL     1      -3.074   2.174  24.452  0.00  0.00    +0.138 C 
ATOM     18  C   UNL     1      -3.389   2.848  24.095  0.00  0.00    +0.027 C 
ATOM     19  C   UNL     1      -4.210   2.770  24.083  0.00  0.00    +0.019 C 
ATOM     20  C   UNL     1      -4.403   2.048  24.432  0.00  0.00    +0.073 C 
ATOM     21  N   UNL     1      -3.700   1.679  24.661  0.00  0.00    -0.266 NA
BRANCH  21  22
ATOM     22  C   UNL     1      -3.636   0.946  25.032  0.00  0.00    +0.073 C 
BRANCH  22  23
ATOM     23  C   UNL     1      -4.055   0.297  24.739  0.00  0.00    +0.022 C 
BRANCH  23  24
ATOM     24  C   UNL     1      -4.133  -0.384  25.197  0.00  0.00    +0.028 C 
BRANCH  24  25
ATOM     25  C   UNL     1      -3.975  -1.124  24.868  0.00  0.00    -0.022 A 
ATOM     26  C   UNL     1      -4.334  -1.344  24.158  0.00  0.00    -0.004 A 
ATOM     27  C   UNL     1      -4.176  -2.085  23.829  0.00  0.00    -0.000 A 
ATOM     28  C   UNL     1      -3.659  -2.604  24.209  0.00  0.00    -0.000 A 
ATOM     29  C   UNL     1      -3.300  -2.382  24.918  0.00  0.00    -0.000 A 
ATOM     30  C   UNL     1      -3.458  -1.643  25.247  0.00  0.00    -0.004 A 
ENDBRANCH  24  25
ENDBRANCH  23  24
ENDBRANCH  22  23
ENDBRANCH  21  22
ENDBRANCH  15  17
TORSDOF 10
ENDMDL
MODEL 2
REMARK VINA RESULT:     -10.1      2.352      4.154
REMARK  Name = 
REMARK  10 active torsions:
REMARK  status: ('A' for Active; 'I' for Inactive)
REMARK    1  A    between atoms: O_2  and  C_3
REMARK    2  A    between atoms: C_3  and  C_4
REMARK    3  A    between atoms: C_4  and  O_5
REMARK    4  A    between atoms: O_5  and  C_6
REMARK    5  A    between atoms: C_9  and  C_12
REMARK    6  A    between atoms: C_15  and  C_17
REMARK    7  A    between atoms: N_21  and  C_22
REMARK    8  A    between atoms: C_22  and  C_23
REMARK    9  A    between atoms: C_23  and  C_24
REMARK   10  A    between atoms: C_24  and  C_25
REMARK                            x       y       z     vdW  Elec       q    Type
REMARK                         _______ _______ _______ _____ _____    ______ ____
ROOT
ATOM     12  C   UNL     1      -0.568   1.799  25.388  0.00  0.00    +0.205 A 
ATOM     13  N   UNL     1      -0.011   2.100  25.918  0.00  0.00    -0.056 NA
ATOM     14  O   UNL     1      -0.078   2.922  25.919  0.00  0.00    -0.336 OA
ATOM     15  C   UNL     1      -0.675   3.130  25.389  0.00  0.00    +0.251 A 
ATOM     16  N   UNL     1      -0.978   2.435  25.061  0.00  0.00    -0.190 NA
ENDROOT
BRANCH  12   9
ATOM      6  C   UNL     1      -0.940  -0.593  24.871  0.00  0.00    +0.225 A 
ATOM      7  C   UNL     1      -1.177  -0.286  25.600  0.00  0.00    +0.058 A 
ATOM      8  C   UNL     1      -1.053   0.511  25.772  0.00  0.00    +0.010 A 
ATOM      9  C   UNL     1      -0.692   1.002  25.216  0.00  0.00    +0.058 A 
ATOM     10  C   UNL     1      -0.455   0.696  24.488  0.00  0.00    +0.105 A 
ATOM     11  N   UNL     1      -0.579  -0.101  24.316  0.00  0.00    -0.210 NA
BRANCH   6   5
ATOM      5  O   UNL     1      -1.064  -1.390  24.699  0.00  0.00    -0.457 OA
BRANCH   5   4
ATOM      4  C   UNL     1      -1.828  -1.669  24.566  0.00  0.00    +0.239 C 
BRANCH   4   3
ATOM      3  C   UNL     1      -1.967  -2.480  24.504  0.00  0.00    +0.189 C 
BRANCH   3   2
ATOM      1  C   UNL     1      -3.315  -2.954  24.507  0.00  0.00    +0.174 C 
ATOM      2  O   UNL     1      -2.629  -2.756  24.095  0.00  0.00    -0.347 OA
ENDBRANCH   3   2
ENDBRANCH   4   3
ENDBRANCH   5   4
ENDBRANCH   6   5
ENDBRANCH  12   9
BRANCH  15  17
ATOM     17  C   UNL     1      -0.926   3.896  25.217  0.00  0.00    +0.138 C 
ATOM     18  C   UNL     1      -0.496   4.466  24.803  0.00  0.00    +0.027 C 
ATOM     19  C   UNL     1      -0.955   5.150  24.759  0.00  0.00    +0.019 C 
ATOM     20  C   UNL     1      -1.669   5.003  25.145  0.00  0.00    +0.073 C 
ATOM     21  N   UNL     1      -1.651   4.228  25.429  0.00  0.00    -0.266 NA
BRANCH  21  22
ATOM     22  C   UNL     1      -2.253   3.852  25.849  0.00  0.00    +0.073 C 
BRANCH  22  23
ATOM     23  C   UNL     1      -3.039   3.945  25.616  0.00  0.00    +0.022 C 
BRANCH  23  24
ATOM     24  C   UNL     1      -3.648   3.682  26.106  0.00  0.00    +0.028 C 
BRANCH  24  25
ATOM     25  C   UNL     1      -4.320   3.332  25.779  0.00  0.00    -0.022 A 
ATOM     26  C   UNL     1      -4.303   2.540  25.552  0.00  0.00    -0.004 A 
ATOM     27  C   UNL     1      -4.975   2.190  25.224  0.00  0.00    -0.000 A 
ATOM     28  C   UNL     1      -5.664   2.634  25.125  0.00  0.00    -0.000 A 
ATOM     29  C   UNL     1      -5.680   3.426  25.352  0.00  0.00    -0.000 A 
ATOM     30  C   UNL     1      -5.009   3.775  25.679  0.00  0.00    -0.004 A 
ENDBRANCH  24  25
ENDBRANCH  23  24
ENDBRANCH  22  23
ENDBRANCH  21  22
ENDBRANCH  15  17
TORSDOF 10
ENDMDL
MODEL 3
REMARK VINA RESULT:      -9.9      1.286      2.942
REMARK  Name = 
REMARK  10 active torsions:
REMARK  status: ('A' for Active; 'I' for Inactive)
REMARK    1  A    between atoms: O_2  and  C_3
REMARK    2  A    between atoms: C_3  and  C_4
REMARK    3  A    between atoms: C_4  and  O_5
REMARK    4  A    between atoms: O_5  and  C_6
REMARK    5  A    between atoms: C_9  and  C_12
REMARK    6  A    between atoms: C_15  and  C_17
REMARK    7  A    between atoms: N_21  and  C_22
REMARK    8  A    between atoms: C_22  and  C_23
REMARK    9  A    between atoms: C_23  and  C_24
REMARK   10  A    between atoms: C_24  and  C_25
REMARK                            x       y       z     vdW  Elec       q    Type
REMARK                         _______ _______ _______ _____ _____    ______ ____
ROOT
ATOM     12  C   UNL     1      -0.842  -0.321  24.514  0.00  0.00    +0.205 A 
ATOM     13  N   UNL     1      -0.922  -0.198  25.327  0.00  0.00    -0.056 NA
ATOM     14  O   UNL     1      -1.671  -0.460  25.552  0.00  0.00    -0.336 OA
ATOM     15  C   UNL     1      -2.055  -0.744  24.879  0.00  0.00    +0.251 A 
ATOM     16  N   UNL     1      -1.542  -0.658  24.238  0.00  0.00    -0.190 NA
ENDROOT
BRANCH  12   9
ATOM      6  C   UNL     1       1.148   0.227  23.149  0.00  0.00    +0.225 A 
ATOM      7  C   UNL     1       0.682   0.833  23.462  0.00  0.00    +0.058 A 
ATOM      8  C   UNL     1       0.019   0.650  23.917  0.00  0.00    +0.010 A 
ATOM      9  C   UNL     1      -0.179  -0.138  24.059  0.00  0.00    +0.058 A 
ATOM     10  C   UNL     1       0.286  -0.743  23.747  0.00  0.00    +0.105 A 
ATOM     11  N   UNL     1       0.949  -0.560  23.291  0.00  0.00    -0.210 NA
BRANCH   6   5
ATOM      5  O   UNL     1       1.811   0.410  22.693  0.00  0.00    -0.457 OA
BRANCH   5   4
ATOM      4  C   UNL     1       2.551   0.478  23.052  0.00  0.00    +0.239 C 
BRANCH   4   3
ATOM      3  C   UNL     1       3.231   0.522  22.587  0.00  0.00    +0.189 C 
BRANCH   3   2
ATOM      1  C   UNL     1       4.631   0.531  22.878  0.00  0.00    +0.174 C 
ATOM      2  O   UNL     1       3.900   0.914  22.871  0.00  0.00    -0.347 OA
ENDBRANCH   3   2
ENDBRANCH   4   3
ENDBRANCH   5   4
ENDBRANCH   6   5
ENDBRANCH  12   9
BRANCH  15  17
ATOM     17  C   UNL     1      -2.816  -1.059  24.852  0.00  0.00    +0.138 C 
ATOM     18  C   UNL     1      -3.019  -1.849  24.979  0.00  0.00    +0.027 C 
ATOM     19  C   UNL     1      -3.837  -1.919  24.898  0.00  0.00    +0.019 C 
ATOM     20  C   UNL     1      -4.140  -1.172  24.721  0.00  0.00    +0.073 C 
ATOM     21  N   UNL     1      -3.509  -0.641  24.692  0.00  0.00    -0.266 NA
BRANCH  21  22
ATOM     22  C   UNL     1      -3.562   0.166  24.532  0.00  0.00    +0.073 C 
BRANCH  22  23
ATOM     23  C   UNL     1      -4.255   0.577  24.710  0.00  0.00    +0.022 C 
BRANCH  23  24
ATOM     24  C   UNL     1      -4.372   1.337  24.412  0.00  0.00    +0.028 C 
BRANCH  24  25
ATOM     25  C   UNL     1      -4.806   1.889  24.845  0.00  0.00    -0.022 A 
ATOM     26  C   UNL     1      -4.443   2.579  25.116  0.00  0.00    -0.004 A 
ATOM     27  C   UNL     1      -4.878   3.131  25.549  0.00  0.00    -0.000 A 
ATOM     28  C   UNL     1      -5.676   2.992  25.711  0.00  0.00    -0.000 A 
ATOM     29  C   UNL     1      -6.038   2.303  25.440  0.00  0.00    -0.000 A 
ATOM     30  C   UNL     1      -5.603   1.752  25.007  0.00  0.00    -0.004 A 
ENDBRANCH  24  25
ENDBRANCH  23  24
ENDBRANCH  22  23
ENDBRANCH  21  22
ENDBRANCH  15  17
TORSDOF 10
ENDMDL
MODEL 4
REMARK VINA RESULT:      -9.6      2.497      2.921
REMARK  Name = 
REMARK  10 active torsions:
REMARK  status: ('A' for Active; 'I' for Inactive)
REMARK    1  A    between atoms: O_2  and  C_3
REMARK    2  A    between atoms: C_3  and  C_4
REMARK    3  A    between atoms: C_4  and  O_5
REMARK    4  A    between atoms: O_5  and  C_6
REMARK    5  A    between atoms: C_9  and  C_12
REMARK    6  A    between atoms: C_15  and  C_17
REMARK    7  A    between atoms: N_21  and  C_22
REMARK    8  A    between atoms: C_22  and  C_23
REMARK    9  A    between atoms: C_23  and  C_24
REMARK   10  A    between atoms: C_24  and  C_25
REMARK                            x       y       z     vdW  Elec       q    Type
REMARK                         _______ _______ _______ _____ _____    ______ ____
ROOT
ATOM     12  C   UNL     1      -2.182   2.623  25.079  0.00  0.00    +0.205 A 
ATOM     13  N   UNL     1      -2.334   2.960  24.341  0.00  0.00    -0.056 NA
ATOM     14  O   UNL     1      -3.131   2.836  24.164  0.00  0.00    -0.336 OA
ATOM     15  C   UNL     1      -3.470   2.422  24.792  0.00  0.00    +0.251 A 
ATOM     16  N   UNL     1      -2.883   2.291  25.357  0.00  0.00    -0.190 NA
ENDROOT
BRANCH  12   9
ATOM      6  C   UNL     1      -0.000   2.612  26.249  0.00  0.00    +0.225 A 
ATOM      7  C   UNL     1      -0.335   1.902  25.991  0.00  0.00    +0.058 A 
ATOM      8  C   UNL     1      -1.062   1.906  25.601  0.00  0.00    +0.010 A 
ATOM      9  C   UNL     1      -1.455   2.619  25.469  0.00  0.00    +0.058 A 
ATOM     10  C   UNL     1      -1.121   3.328  25.726  0.00  0.00    +0.105 A 
ATOM     11  N   UNL     1      -0.394   3.324  26.115  0.00  0.00    -0.210 NA
BRANCH   6   5
ATOM      5  O   UNL     1       0.727   2.608  26.639  0.00  0.00    -0.457 OA
BRANCH   5   4
ATOM      4  C   UNL     1       0.752   2.576  27.462  0.00  0.00    +0.239 C 
BRANCH   4   3
ATOM      3  C   UNL     1       1.474   2.644  27.855  0.00  0.00    +0.189 C 
BRANCH   3   2
ATOM      1  C   UNL     1       2.224   2.662  29.072  0.00  0.00    +0.174 C 
ATOM      2  O   UNL     1       1.499   2.627  28.680  0.00  0.00    -0.347 OA
ENDBRANCH   3   2
ENDBRANCH   4   3
ENDBRANCH   5   4
ENDBRANCH   6   5
ENDBRANCH  12   9
BRANCH  15  17
ATOM     17  C   UNL     1      -4.257   2.182  24.846  0.00  0.00    +0.138 C 
ATOM     18  C   UNL     1      -4.877   2.621  25.168  0.00  0.00    +0.027 C 
ATOM     19  C   UNL     1      -5.566   2.172  25.109  0.00  0.00    +0.019 C 
ATOM     20  C   UNL     1      -5.372   1.454  24.750  0.00  0.00    +0.073 C 
ATOM     21  N   UNL     1      -4.563   1.461  24.588  0.00  0.00    -0.266 NA
BRANCH  21  22
ATOM     22  C   UNL     1      -4.136   0.853  24.230  0.00  0.00    +0.073 C 
BRANCH  22  23
ATOM     23  C   UNL     1      -4.317   0.066  24.401  0.00  0.00    +0.022 C 
BRANCH  23  24
ATOM     24  C   UNL     1      -4.027  -0.537  23.919  0.00  0.00    +0.028 C 
BRANCH  24  25
ATOM     25  C   UNL     1      -3.864  -1.280  24.240  0.00  0.00    -0.022 A 
ATOM     26  C   UNL     1      -4.153  -1.960  23.873  0.00  0.00    -0.004 A 
ATOM     27  C   UNL     1      -3.990  -2.703  24.194  0.00  0.00    -0.000 A 
ATOM     28  C   UNL     1      -3.537  -2.765  24.881  0.00  0.00    -0.000 A 
ATOM     29  C   UNL     1      -3.248  -2.085  25.247  0.00  0.00    -0.000 A 
ATOM     30  C   UNL     1      -3.411  -1.343  24.927  0.00  0.00    -0.004 A 
ENDBRANCH  24  25
ENDBRANCH  23  24
ENDBRANCH  22  23
ENDBRANCH  21  22
ENDBRANCH  15  17
TORSDOF 10
ENDMDL
MODEL 5
REMARK VINA RESULT:      -9.6      1.689      3.587
REMARK  Name = 
REMARK  10 active torsions:
REMARK  status: ('A' for Active; 'I' for Inactive)
REMARK    1  A    between atoms: O_2  and  C_3
REMARK    2  A    between atoms: C_3  and  C_4
REMARK    3  A    between atoms: C_4  and  O_5
REMARK    4  A    between atoms: O_5  and  C_6
REMARK    5  A    between atoms: C_9  and  C_12
REMARK    6  A    between atoms: C_15  and  C_17
REMARK    7  A    between atoms: N_21  and  C_22
REMARK    8  A    between atoms: C_22  and  C_23
REMARK    9  A    between atoms: C_23  and  C_24
REMARK   10  A    between atoms: C_24  and  C_25
REMARK                            x       y       z     vdW  Elec       q    Type
REMARK                         _______ _______ _______ _____ _____    ______ ____
ROOT
ATOM     12  C   UNL     1      -1.664   0.235  24.522  0.00  0.00    +0.205 A 
ATOM     13  N   UNL     1      -1.967  -0.161  25.181  0.00  0.00    -0.056 NA
ATOM     14  O   UNL     1      -2.703   0.168  25.359  0.00  0.00    -0.336 OA
ATOM     15  C   UNL     1      -2.855   0.765  24.810  0.00  0.00    +0.251 A 
ATOM     16  N   UNL     1      -2.213   0.806  24.294  0.00  0.00    -0.190 NA
ENDROOT
BRANCH  12   9
ATOM      6  C   UNL     1       0.509  -0.218  23.428  0.00  0.00    +0.225 A 
ATOM      7  C   UNL     1       0.177   0.537  23.390  0.00  0.00    +0.058 A 
ATOM      8  C   UNL     1      -0.548   0.688  23.754  0.00  0.00    +0.010 A 
ATOM      9  C   UNL     1      -0.940   0.084  24.158  0.00  0.00    +0.058 A 
ATOM     10  C   UNL     1      -0.608  -0.670  24.196  0.00  0.00    +0.105 A 
ATOM     11  N   UNL     1       0.116  -0.821  23.831  0.00  0.00    -0.210 NA
BRANCH   6   5
ATOM      5  O   UNL     1       1.233  -0.369  23.063  0.00  0.00    -0.457 OA
BRANCH   5   4
ATOM      4  C   UNL     1       1.778   0.241  22.961  0.00  0.00    +0.239 C 
BRANCH   4   3
ATOM      3  C   UNL     1       2.534   0.075  22.674  0.00  0.00    +0.189 C 
BRANCH   3   2
ATOM      1  C   UNL     1       3.869   0.585  22.649  0.00  0.00    +0.174 C 
ATOM      2  O   UNL     1       3.061   0.691  22.519  0.00  0.00    -0.347 OA
ENDBRANCH   3   2
ENDBRANCH   4   3
ENDBRANCH   5   4
ENDBRANCH   6   5
ENDBRANCH  12   9
BRANCH  15  17
ATOM     17  C   UNL     1      -3.530   1.239  24.783  0.00  0.00    +0.138 C 
ATOM     18  C   UNL     1      -4.248   1.039  24.430  0.00  0.00    +0.027 C 
ATOM     19  C   UNL     1      -4.768   1.671  24.532  0.00  0.00    +0.019 C 
ATOM     20  C   UNL     1      -4.371   2.262  24.949  0.00  0.00    +0.073 C 
ATOM     21  N   UNL     1      -3.605   1.995  25.104  0.00  0.00    -0.266 NA
BRANCH  21  22
ATOM     22  C   UNL     1      -3.019   2.411  25.508  0.00  0.00    +0.073 C 
BRANCH  22  23
ATOM     23  C   UNL     1      -2.914   3.217  25.367  0.00  0.00    +0.022 C 
BRANCH  23  24
ATOM     24  C   UNL     1      -2.399   3.655  25.840  0.00  0.00    +0.028 C 
BRANCH  24  25
ATOM     25  C   UNL     1      -1.888   4.204  25.497  0.00  0.00    -0.022 A 
ATOM     26  C   UNL     1      -1.127   3.976  25.274  0.00  0.00    -0.004 A 
ATOM     27  C   UNL     1      -0.616   4.525  24.930  0.00  0.00    -0.000 A 
ATOM     28  C   UNL     1      -0.866   5.303  24.810  0.00  0.00    -0.000 A 
ATOM     29  C   UNL     1      -1.627   5.530  25.033  0.00  0.00    -0.000 A 
ATOM     30  C   UNL     1      -2.137   4.981  25.376  0.00  0.00    -0.004 A 
ENDBRANCH  24  25
ENDBRANCH  23  24
ENDBRANCH  22  23
ENDBRANCH  21  22
ENDBRANCH  15  17
TORSDOF 10
ENDMDL
MODEL 6
REMARK VINA RESULT:      -9.4      1.690      4.834
REMARK  Name = 
REMARK  10 active torsions:
REMARK  status: ('A' for Active; 'I' for Inactive)
REMARK    1  A    between atoms: O_2  and  C_3
REMARK    2  A    between atoms: C_3  and  C_4
REMARK    3  A    between atoms: C_4  and  O_5
REMARK    4  A    between atoms: O_5  and  C_6
REMARK    5  A    between atoms: C_9  and  C_12
REMARK    6  A    between atoms: C_15  and  C_17
REMARK    7  A    between atoms: N_21  and  C_22
REMARK    8  A    between atoms: C_22  and  C_23
REMARK    9  A    between atoms: C_23  and  C_24
REMARK   10  A    between atoms: C_24  and  C_25
REMARK                            x       y       z     vdW  Elec       q    Type
REMARK                         _______ _______ _______ _____ _____    ______ ____
ROOT
ATOM     12  C   UNL     1      -0.922   2.212  24.632  0.00  0.00    +0.205 A 
ATOM     13  N   UNL     1      -0.165   2.395  24.906  0.00  0.00    -0.056 NA
ATOM     14  O   UNL     1       0.353   1.816  24.627  0.00  0.00    -0.336 OA
ATOM     15  C   UNL     1      -0.083   1.276  24.181  0.00  0.00    +0.251 A 
ATOM     16  N   UNL     1      -0.871   1.521  24.184  0.00  0.00    -0.190 NA
ENDROOT
BRANCH  12   9
ATOM      6  C   UNL     1      -2.981   3.511  25.076  0.00  0.00    +0.225 A 
ATOM      7  C   UNL     1      -2.413   3.423  25.668  0.00  0.00    +0.058 A 
ATOM      8  C   UNL     1      -1.726   2.990  25.520  0.00  0.00    +0.010 A 
ATOM      9  C   UNL     1      -1.608   2.645  24.780  0.00  0.00    +0.058 A 
ATOM     10  C   UNL     1      -2.176   2.732  24.189  0.00  0.00    +0.105 A 
ATOM     11  N   UNL     1      -2.863   3.165  24.337  0.00  0.00    -0.210 NA
BRANCH   6   5
ATOM      5  O   UNL     1      -3.668   3.944  25.225  0.00  0.00    -0.457 OA
BRANCH   5   4
ATOM      4  C   UNL     1      -4.320   3.576  25.569  0.00  0.00    +0.239 C 
BRANCH   4   3
ATOM      3  C   UNL     1      -5.077   3.885  25.453  0.00  0.00    +0.189 C 
BRANCH   3   2
ATOM      1  C   UNL     1      -6.083   2.902  25.708  0.00  0.00    +0.174 C 
ATOM      2  O   UNL     1      -5.709   3.610  25.907  0.00  0.00    -0.347 OA
ENDBRANCH   3   2
ENDBRANCH   4   3
ENDBRANCH   5   4
ENDBRANCH   6   5
ENDBRANCH  12   9
BRANCH  15  17
ATOM     17  C   UNL     1       0.215   0.609  23.799  0.00  0.00    +0.138 C 
ATOM     18  C   UNL     1       0.746   0.609  23.168  0.00  0.00    +0.027 C 
ATOM     19  C   UNL     1       0.895  -0.175  22.959  0.00  0.00    +0.019 C 
ATOM     20  C   UNL     1       0.455  -0.660  23.463  0.00  0.00    +0.073 C 
ATOM     21  N   UNL     1       0.035  -0.175  23.982  0.00  0.00    -0.266 NA
BRANCH  21  22
ATOM     22  C   UNL     1      -0.474  -0.430  24.578  0.00  0.00    +0.073 C 
BRANCH  22  23
ATOM     23  C   UNL     1      -0.927  -1.112  24.470  0.00  0.00    +0.022 C 
BRANCH  23  24
ATOM     24  C   UNL     1      -1.349  -1.431  25.102  0.00  0.00    +0.028 C 
BRANCH  24  25
ATOM     25  C   UNL     1      -2.110  -1.726  24.985  0.00  0.00    -0.022 A 
ATOM     26  C   UNL     1      -2.220  -2.427  24.563  0.00  0.00    -0.004 A 
ATOM     27  C   UNL     1      -2.982  -2.722  24.445  0.00  0.00    -0.000 A 
ATOM     28  C   UNL     1      -3.633  -2.317  24.749  0.00  0.00    -0.000 A 
ATOM     29  C   UNL     1      -3.522  -1.617  25.171  0.00  0.00    -0.000 A 
ATOM     30  C   UNL     1      -2.762  -1.322  25.288  0.00  0.00    -0.004 A 
ENDBRANCH  24  25
ENDBRANCH  23  24
ENDBRANCH  22  23
ENDBRANCH  21  22
ENDBRANCH  15  17
TORSDOF 10
ENDMDL
MODEL 7
REMARK VINA RESULT:      -8.7      2.090      3.853
REMARK  Name = 
REMARK  10 active torsions:
REMARK  status: ('A' for Active; 'I' for Inactive)
REMARK    1  A    between atoms: O_2  and  C_3
REMARK    2  A    between atoms: C_3  and  C_4
REMARK    3  A    between atoms: C_4  and  O_5
REMARK    4  A    between atoms: O_5  and  C_6
REMARK    5  A    between atoms: C_9  and  C_12
REMARK    6  A    between atoms: C_15  and  C_17
REMARK    7  A    between atoms: N_21  and  C_22
REMARK    8  A    between atoms: C_22  and  C_23
REMARK    9  A    between atoms: C_23  and  C_24
REMARK   10  A    between atoms: C_24  and  C_25
REMARK                            x       y       z     vdW  Elec       q    Type
REMARK                         _______ _______ _______ _____ _____    ______ ____
ROOT
ATOM     12  C   UNL     1      -1.087  -0.096  24.682  0.00  0.00    +0.205 A 
ATOM     13  N   UNL     1      -0.640  -0.722  24.381  0.00  0.00    -0.056 NA
ATOM     14  O   UNL     1      -1.122  -1.391  24.356  0.00  0.00    -0.336 OA
ATOM     15  C   UNL     1      -1.867  -1.179  24.642  0.00  0.00    +0.251 A 
ATOM     16  N   UNL     1      -1.845  -0.379  24.843  0.00  0.00    -0.190 NA
ENDROOT
BRANCH  12   9
ATOM      6  C   UNL     1      -0.291   2.220  25.040  0.00  0.00    +0.225 A 
ATOM      7  C   UNL     1      -0.605   1.789  25.670  0.00  0.00    +0.058 A 
ATOM      8  C   UNL     1      -0.870   1.017  25.551  0.00  0.00    +0.010 A 
ATOM      9  C   UNL     1      -0.822   0.676  24.801  0.00  0.00    +0.058 A 
ATOM     10  C   UNL     1      -0.509   1.106  24.171  0.00  0.00    +0.105 A 
ATOM     11  N   UNL     1      -0.244   1.878  24.291  0.00  0.00    -0.210 NA
BRANCH   6   5
ATOM      5  O   UNL     1      -0.026   2.992  25.159  0.00  0.00    -0.457 OA
BRANCH   5   4
ATOM      4  C   UNL     1      -0.417   3.622  24.798  0.00  0.00    +0.239 C 
BRANCH   4   3
ATOM      3  C   UNL     1      -0.472   4.349  25.185  0.00  0.00    +0.189 C 
BRANCH   3   2
ATOM      1  C   UNL     1      -1.460   5.378  25.087  0.00  0.00    +0.174 C 
ATOM      2  O   UNL     1      -0.787   5.003  24.792  0.00  0.00    -0.347 OA
ENDBRANCH   3   2
ENDBRANCH   4   3
ENDBRANCH   5   4
ENDBRANCH   6   5
ENDBRANCH  12   9
BRANCH  15  17
ATOM     17  C   UNL     1      -2.519  -1.679  24.713  0.00  0.00    +0.138 C 
ATOM     18  C   UNL     1      -2.504  -2.461  24.977  0.00  0.00    +0.027 C 
ATOM     19  C   UNL     1      -3.276  -2.751  24.961  0.00  0.00    +0.019 C 
ATOM     20  C   UNL     1      -3.769  -2.148  24.687  0.00  0.00    +0.073 C 
ATOM     21  N   UNL     1      -3.300  -1.486  24.534  0.00  0.00    -0.266 NA
BRANCH  21  22
ATOM     22  C   UNL     1      -3.567  -0.758  24.251  0.00  0.00    +0.073 C 
BRANCH  22  23
ATOM     23  C   UNL     1      -4.226  -0.399  24.595  0.00  0.00    +0.022 C 
BRANCH  23  24
ATOM     24  C   UNL     1      -4.611   0.216  24.204  0.00  0.00    +0.028 C 
BRANCH  24  25
ATOM     25  C   UNL     1      -4.798   0.911  24.609  0.00  0.00    -0.022 A 
ATOM     26  C   UNL     1      -4.398   1.610  24.433  0.00  0.00    -0.004 A 
ATOM     27  C   UNL     1      -4.585   2.305  24.838  0.00  0.00    -0.000 A 
ATOM     28  C   UNL     1      -5.171   2.299  25.418  0.00  0.00    -0.000 A 
ATOM     29  C   UNL     1      -5.570   1.599  25.594  0.00  0.00    -0.000 A 
ATOM     30  C   UNL     1      -5.384   0.906  25.189  0.00  0.00    -0.004 A 
ENDBRANCH  24  25
ENDBRANCH  23  24
ENDBRANCH  22  23
ENDBRANCH  21  22
ENDBRANCH  15  17
TORSDOF 10
ENDMDL
