MODEL 1
REMARK VINA RESULT:     -12.8      0.000      0.000
REMARK  Name = 
REMARK  6 active torsions:
REMARK  status: ('A' for Active; 'I' for Inactive)
REMARK    1  A    between atoms: C_2  and  C_5
REMARK    2  A    between atoms: C_8  and  C_11
REMARK    3  A    between atoms: C_13  and  C_14
REMARK    4  A    between atoms: C_14  and  C_15
REMARK    5  A    between atoms: C_20  and  C_21
REMARK    6  A    between atoms: C_21  and  C_22
REMARK                            x       y       z     vdW  Elec       q    Type
REMARK                         _______ _______ _______ _____ _____    ______ ____
ROOT
ATOM     15  C   UNL     1      -5.276   1.850  24.987  0.00  0.00    +0.024 C 
ATOM     16  C   UNL     1      -5.939   1.580  25.399  0.00  0.00    +0.089 C 
ATOM     17  N   UNL     1      -6.234   2.014  26.035  0.00  0.00    -0.218 NA
ATOM     18  C   UNL     1      -5.866   2.718  26.261  0.00  0.00    +0.089 C 
ATOM     19  C   UNL     1      -5.204   2.987  25.849  0.00  0.00    +0.019 C 
ATOM     20  C   UNL     1      -4.909   2.553  25.212  0.00  0.00    +0.012 C 
ENDROOT
BRANCH  15  14
ATOM     14  C   UNL     1      -4.981   1.416  24.350  0.00  0.00    +0.051 C 
BRANCH  14  13
ATOM     11  C   UNL     1      -3.904  -0.408  24.620  0.00  0.00    +0.177 A 
ATOM     12  C   UNL     1      -3.921   0.408  24.493  0.00  0.00    +0.058 A 
ATOM     13  C   UNL     1      -4.710   0.645  24.467  0.00  0.00    +0.101 A 
ATOM     34  N   UNL     1      -5.181  -0.022  24.577  0.00  0.00    -0.081 NA
ATOM     35  O   UNL     1      -4.684  -0.673  24.672  0.00  0.00    -0.354 OA
BRANCH  11   8
ATOM      5  C   UNL     1      -1.874  -1.809  24.813  0.00  0.00    -0.023 A 
ATOM      6  C   UNL     1      -2.617  -2.165  24.760  0.00  0.00    -0.004 A 
ATOM      7  C   UNL     1      -3.293  -1.697  24.696  0.00  0.00    +0.003 A 
ATOM      8  C   UNL     1      -3.227  -0.875  24.685  0.00  0.00    +0.037 A 
ATOM      9  C   UNL     1      -2.484  -0.520  24.738  0.00  0.00    +0.003 A 
ATOM     10  C   UNL     1      -1.808  -0.988  24.802  0.00  0.00    -0.004 A 
BRANCH   5   2
ATOM      1  C   UNL     1      -0.520  -2.745  24.941  0.00  0.00    +0.004 C 
ATOM      2  C   UNL     1      -1.197  -2.276  24.877  0.00  0.00    +0.019 C 
ATOM      3  C   UNL     1      -0.866  -1.727  25.395  0.00  0.00    +0.004 C 
ATOM      4  C   UNL     1      -1.528  -2.827  24.359  0.00  0.00    +0.004 C 
ENDBRANCH   5   2
ENDBRANCH  11   8
ENDBRANCH  14  13
ENDBRANCH  15  14
BRANCH  20  21
ATOM     21  C   UNL     1      -4.247   2.823  24.801  0.00  0.00    +0.085 C 
BRANCH  21  22
ATOM     22  C   UNL     1      -3.947   3.576  24.951  0.00  0.00    +0.226 C 
ATOM     23  O   UNL     1      -4.458   4.190  25.159  0.00  0.00    -0.275 OA
ATOM     24  N   UNL     1      -3.137   3.717  24.893  0.00  0.00    -0.275 N 
ATOM     25  C   UNL     1      -2.625   3.103  24.685  0.00  0.00    +0.098 C 
ATOM     26  C   UNL     1      -1.814   3.244  24.627  0.00  0.00    +0.048 C 
ATOM     27  C   UNL     1      -1.513   3.997  24.776  0.00  0.00    -0.023 A 
ATOM     28  C   UNL     1      -2.025   4.612  24.984  0.00  0.00    -0.006 A 
ATOM     29  C   UNL     1      -2.836   4.471  25.042  0.00  0.00    +0.120 C 
ATOM     30  C   UNL     1      -1.725   5.365  25.134  0.00  0.00    -0.003 A 
ATOM     31  C   UNL     1      -0.915   5.505  25.076  0.00  0.00    -0.000 A 
ATOM     32  C   UNL     1      -0.403   4.891  24.868  0.00  0.00    -0.000 A 
ATOM     33  C   UNL     1      -0.703   4.138  24.718  0.00  0.00    -0.004 A 
ENDBRANCH  21  22
ENDBRANCH  20  21
TORSDOF 6
ENDMDL
MODEL 2
REMARK VINA RESULT:     -12.6      1.998      6.137
REMARK  Name = 
REMARK  6 active torsions:
REMARK  status: ('A' for Active; 'I' for Inactive)
REMARK    1  A    between atoms: C_2  and  C_5
REMARK    2  A    between atoms: C_8  and  C_11
REMARK    3  A    between atoms: C_13  and  C_14
REMARK    4  A    between atoms: C_14  and  C_15
REMARK    5  A    between atoms: C_20  and  C_21
REMARK    6  A    between atoms: C_21  and  C_22
REMARK                            x       y       z     vdW  Elec       q    Type
REMARK                         _______ _______ _______ _____ _____    ______ ____
ROOT
ATOM     15  C   UNL     1      -0.042   1.459  24.810  0.00  0.00    +0.024 C 
ATOM     16  C   UNL     1       0.483   1.940  24.394  0.00  0.00    +0.089 C 
ATOM     17  N   UNL     1       0.842   1.659  23.706  0.00  0.00    -0.218 NA
ATOM     18  C   UNL     1       0.675   0.898  23.434  0.00  0.00    +0.089 C 
ATOM     19  C   UNL     1       0.150   0.418  23.852  0.00  0.00    +0.019 C 
ATOM     20  C   UNL     1      -0.209   0.698  24.540  0.00  0.00    +0.012 C 
ENDROOT
BRANCH  15  14
ATOM     14  C   UNL     1      -0.401   1.740  25.499  0.00  0.00    +0.051 C 
BRANCH  14  13
ATOM     11  C   UNL     1      -2.056   3.086  25.431  0.00  0.00    +0.177 A 
ATOM     12  C   UNL     1      -1.751   2.321  25.486  0.00  0.00    +0.058 A 
ATOM     13  C   UNL     1      -0.928   2.373  25.460  0.00  0.00    +0.101 A 
ATOM     34  N   UNL     1      -0.724   3.169  25.389  0.00  0.00    -0.081 NA
ATOM     35  O   UNL     1      -1.421   3.610  25.370  0.00  0.00    -0.354 OA
BRANCH  11   8
ATOM      5  C   UNL     1      -4.453   3.701  25.443  0.00  0.00    -0.023 A 
ATOM      6  C   UNL     1      -4.135   3.292  24.800  0.00  0.00    -0.004 A 
ATOM      7  C   UNL     1      -3.337   3.087  24.797  0.00  0.00    +0.003 A 
ATOM      8  C   UNL     1      -2.855   3.291  25.435  0.00  0.00    +0.037 A 
ATOM      9  C   UNL     1      -3.173   3.700  26.077  0.00  0.00    +0.003 A 
ATOM     10  C   UNL     1      -3.972   3.905  26.080  0.00  0.00    -0.004 A 
BRANCH   5   2
ATOM      1  C   UNL     1      -6.052   4.110  25.451  0.00  0.00    +0.004 C 
ATOM      2  C   UNL     1      -5.252   3.906  25.447  0.00  0.00    +0.019 C 
ATOM      3  C   UNL     1      -5.063   4.653  25.152  0.00  0.00    +0.004 C 
ATOM      4  C   UNL     1      -5.442   3.159  25.742  0.00  0.00    +0.004 C 
ENDBRANCH   5   2
ENDBRANCH  11   8
ENDBRANCH  14  13
ENDBRANCH  15  14
BRANCH  20  21
ATOM     21  C   UNL     1      -0.734   0.217  24.956  0.00  0.00    +0.085 C 
BRANCH  21  22
ATOM     22  C   UNL     1      -0.792  -0.585  24.775  0.00  0.00    +0.226 C 
ATOM     23  O   UNL     1      -0.112  -1.018  24.601  0.00  0.00    -0.275 OA
ATOM     24  N   UNL     1      -1.529  -0.954  24.768  0.00  0.00    -0.275 N 
ATOM     25  C   UNL     1      -2.210  -0.520  24.941  0.00  0.00    +0.098 C 
ATOM     26  C   UNL     1      -2.947  -0.890  24.934  0.00  0.00    +0.048 C 
ATOM     27  C   UNL     1      -3.005  -1.693  24.753  0.00  0.00    -0.023 A 
ATOM     28  C   UNL     1      -2.324  -2.127  24.579  0.00  0.00    -0.006 A 
ATOM     29  C   UNL     1      -1.587  -1.757  24.586  0.00  0.00    +0.120 C 
ATOM     30  C   UNL     1      -2.382  -2.929  24.397  0.00  0.00    -0.003 A 
ATOM     31  C   UNL     1      -3.119  -3.299  24.390  0.00  0.00    -0.000 A 
ATOM     32  C   UNL     1      -3.800  -2.865  24.564  0.00  0.00    -0.000 A 
ATOM     33  C   UNL     1      -3.742  -2.062  24.745  0.00  0.00    -0.004 A 
ENDBRANCH  21  22
ENDBRANCH  20  21
TORSDOF 6
ENDMDL
MODEL 3
REMARK VINA RESULT:     -12.5      1.740      3.568
REMARK  Name = 
REMARK  6 active torsions:
REMARK  status: ('A' for Active; 'I' for Inactive)
REMARK    1  A    between atoms: C_2  and  C_5
REMARK    2  A    between atoms: C_8  and  C_11
REMARK    3  A    between atoms: C_13  and  C_14
REMARK    4  A    between atoms: C_14  and  C_15
REMARK    5  A    between atoms: C_20  and  C_21
REMARK    6  A    between atoms: C_21  and  C_22
REMARK                            x       y       z     vdW  Elec       q    Type
REMARK                         _______ _______ _______ _____ _____    ______ ____
ROOT
ATOM     15  C   UNL     1      -0.442   2.138  24.882  0.00  0.00    +0.024 C 
ATOM     16  C   UNL     1       0.273   2.014  25.274  0.00  0.00    +0.089 C 
ATOM     17  N   UNL     1       0.461   2.463  25.940  0.00  0.00    -0.218 NA
ATOM     18  C   UNL     1      -0.066   3.036  26.214  0.00  0.00    +0.089 C 
ATOM     19  C   UNL     1      -0.781   3.159  25.821  0.00  0.00    +0.019 C 
ATOM     20  C   UNL     1      -0.969   2.710  25.155  0.00  0.00    +0.012 C 
ENDROOT
BRANCH  15  14
ATOM     14  C   UNL     1      -0.630   1.688  24.216  0.00  0.00    +0.051 C 
BRANCH  14  13
ATOM     11  C   UNL     1      -1.208  -0.361  24.389  0.00  0.00    +0.177 A 
ATOM     12  C   UNL     1      -1.399   0.441  24.341  0.00  0.00    +0.058 A 
ATOM     13  C   UNL     1      -0.696   0.867  24.278  0.00  0.00    +0.101 A 
ATOM     34  N   UNL     1      -0.070   0.331  24.287  0.00  0.00    -0.081 NA
ATOM     35  O   UNL     1      -0.386  -0.428  24.356  0.00  0.00    -0.354 OA
BRANCH  11   8
ATOM      5  C   UNL     1      -2.815  -2.231  24.599  0.00  0.00    -0.023 A 
ATOM      6  C   UNL     1      -2.019  -2.386  24.444  0.00  0.00    -0.004 A 
ATOM      7  C   UNL     1      -1.484  -1.762  24.374  0.00  0.00    +0.003 A 
ATOM      8  C   UNL     1      -1.743  -0.984  24.459  0.00  0.00    +0.037 A 
ATOM      9  C   UNL     1      -2.539  -0.829  24.614  0.00  0.00    +0.003 A 
ATOM     10  C   UNL     1      -3.074  -1.453  24.684  0.00  0.00    -0.004 A 
BRANCH   5   2
ATOM      1  C   UNL     1      -3.886  -3.478  24.737  0.00  0.00    +0.004 C 
ATOM      2  C   UNL     1      -3.350  -2.854  24.668  0.00  0.00    +0.019 C 
ATOM      3  C   UNL     1      -3.210  -2.885  25.480  0.00  0.00    +0.004 C 
ATOM      4  C   UNL     1      -3.491  -2.824  23.856  0.00  0.00    +0.004 C 
ENDBRANCH   5   2
ENDBRANCH  11   8
ENDBRANCH  14  13
ENDBRANCH  15  14
BRANCH  20  21
ATOM     21  C   UNL     1      -1.684   2.834  24.763  0.00  0.00    +0.085 C 
BRANCH  21  22
ATOM     22  C   UNL     1      -2.219   3.394  25.046  0.00  0.00    +0.226 C 
ATOM     23  O   UNL     1      -1.948   4.131  25.300  0.00  0.00    -0.275 OA
ATOM     24  N   UNL     1      -3.024   3.217  25.077  0.00  0.00    -0.275 N 
ATOM     25  C   UNL     1      -3.294   2.480  24.823  0.00  0.00    +0.098 C 
ATOM     26  C   UNL     1      -4.100   2.304  24.853  0.00  0.00    +0.048 C 
ATOM     27  C   UNL     1      -4.636   2.864  25.136  0.00  0.00    -0.023 A 
ATOM     28  C   UNL     1      -4.365   3.602  25.390  0.00  0.00    -0.006 A 
ATOM     29  C   UNL     1      -3.559   3.778  25.360  0.00  0.00    +0.120 C 
ATOM     30  C   UNL     1      -4.899   4.162  25.673  0.00  0.00    -0.003 A 
ATOM     31  C   UNL     1      -5.704   3.986  25.704  0.00  0.00    -0.000 A 
ATOM     32  C   UNL     1      -5.975   3.248  25.450  0.00  0.00    -0.000 A 
ATOM     33  C   UNL     1      -5.440   2.688  25.167  0.00  0.00    -0.004 A 
ENDBRANCH  21  22
ENDBRANCH  20  21
TORSDOF 6
ENDMDL
MODEL 4
REMARK VINA RESULT:     -12.3      1.306      1.805
REMARK  Name = 
REMARK  6 active torsions:
REMARK  status: ('A' for Active; 'I' for Inactive)
REMARK    1  A    between atoms: C_2  and  C_5
REMARK    2  A    between atoms: C_8  and  C_11
REMARK    3  A    between atoms: C_13  and  C_14
REMARK    4  A    between atoms: C_14  and  C_15
REMARK    5  A    between atoms: C_20  and  C_21
REMARK    6  A    between atoms: C_21  and  C_22
REMARK                            x       y       z     vdW  Elec       q    Type
REMARK                         _______ _______ _______ _____ _____    ______ ____
ROOT
ATOM     15  C   UNL     1      -4.881   3.056  24.944  0.00  0.00    +0.024 C 
ATOM     16  C   UNL     1      -5.657   3.131  25.213  0.00  0.00    +0.089 C 
ATOM     17  N   UNL     1      -5.843   3.702  25.779  0.00  0.00    -0.218 NA
ATOM     18  C   UNL     1      -5.253   4.198  26.075  0.00  0.00    +0.089 C 
ATOM     19  C   UNL     1      -4.478   4.122  25.805  0.00  0.00    +0.019 C 
ATOM     20  C   UNL     1      -4.291   3.551  25.239  0.00  0.00    +0.012 C 
ENDROOT
BRANCH  15  14
ATOM     14  C   UNL     1      -4.694   2.484  24.378  0.00  0.00    +0.051 C 
BRANCH  14  13
ATOM     11  C   UNL     1      -4.652   0.368  24.657  0.00  0.00    +0.177 A 
ATOM     12  C   UNL     1      -4.289   1.072  24.424  0.00  0.00    +0.058 A 
ATOM     13  C   UNL     1      -4.827   1.686  24.539  0.00  0.00    +0.101 A 
ATOM     34  N   UNL     1      -5.522   1.363  24.843  0.00  0.00    -0.081 NA
ATOM     35  O   UNL     1      -5.414   0.548  24.917  0.00  0.00    -0.354 OA
BRANCH  11   8
ATOM      5  C   UNL     1      -3.633  -1.887  24.591  0.00  0.00    -0.023 A 
ATOM      6  C   UNL     1      -3.564  -1.422  25.271  0.00  0.00    -0.004 A 
ATOM      7  C   UNL     1      -3.904  -0.671  25.291  0.00  0.00    +0.003 A 
ATOM      8  C   UNL     1      -4.312  -0.384  24.635  0.00  0.00    +0.037 A 
ATOM      9  C   UNL     1      -4.381  -0.848  23.956  0.00  0.00    +0.003 A 
ATOM     10  C   UNL     1      -4.041  -1.599  23.935  0.00  0.00    -0.004 A 
BRANCH   5   2
ATOM      1  C   UNL     1      -2.955  -3.390  24.547  0.00  0.00    +0.004 C 
ATOM      2  C   UNL     1      -3.294  -2.638  24.570  0.00  0.00    +0.019 C 
ATOM      3  C   UNL     1      -2.594  -2.332  24.881  0.00  0.00    +0.004 C 
ATOM      4  C   UNL     1      -3.994  -2.945  24.258  0.00  0.00    +0.004 C 
ENDBRANCH   5   2
ENDBRANCH  11   8
ENDBRANCH  14  13
ENDBRANCH  15  14
BRANCH  20  21
ATOM     21  C   UNL     1      -3.515   3.476  24.970  0.00  0.00    +0.085 C 
BRANCH  21  22
ATOM     22  C   UNL     1      -2.887   3.519  25.502  0.00  0.00    +0.226 C 
ATOM     23  O   UNL     1      -2.989   3.892  26.231  0.00  0.00    -0.275 OA
ATOM     24  N   UNL     1      -2.157   3.189  25.306  0.00  0.00    -0.275 N 
ATOM     25  C   UNL     1      -2.055   2.816  24.577  0.00  0.00    +0.098 C 
ATOM     26  C   UNL     1      -1.324   2.486  24.382  0.00  0.00    +0.048 C 
ATOM     27  C   UNL     1      -0.695   2.528  24.914  0.00  0.00    -0.023 A 
ATOM     28  C   UNL     1      -0.798   2.902  25.644  0.00  0.00    -0.006 A 
ATOM     29  C   UNL     1      -1.528   3.232  25.839  0.00  0.00    +0.120 C 
ATOM     30  C   UNL     1      -0.170   2.945  26.176  0.00  0.00    -0.003 A 
ATOM     31  C   UNL     1       0.560   2.615  25.981  0.00  0.00    -0.000 A 
ATOM     32  C   UNL     1       0.662   2.242  25.251  0.00  0.00    -0.000 A 
ATOM     33  C   UNL     1       0.034   2.199  24.719  0.00  0.00    -0.004 A 
ENDBRANCH  21  22
ENDBRANCH  20  21
TORSDOF 6
ENDMDL
MODEL 5
REMARK VINA RESULT:     -11.9      4.133      5.361
REMARK  Name = 
REMARK  6 active torsions:
REMARK  status: ('A' for Active; 'I' for Inactive)
REMARK    1  A    between atoms: C_2  and  C_5
REMARK    2  A    between atoms: C_8  and  C_11
REMARK    3  A    between atoms: C_13  and  C_14
REMARK    4  A    between atoms: C_14  and  C_15
REMARK    5  A    between atoms: C_20  and  C_21
REMARK    6  A    between atoms: C_21  and  C_22
REMARK                            x       y       z     vdW  Elec       q    Type
REMARK                         _______ _______ _______ _____ _____    ______ ____
ROOT
ATOM     15  C   UNL     1      -0.136   0.022  23.906  0.00  0.00    +0.024 C 
ATOM     16  C   UNL     1      -0.091  -0.802  23.908  0.00  0.00    +0.089 C 
ATOM     17  N   UNL     1      -0.445  -1.232  24.517  0.00  0.00    -0.218 NA
ATOM     18  C   UNL     1      -0.843  -0.838  25.124  0.00  0.00    +0.089 C 
ATOM     19  C   UNL     1      -0.887  -0.014  25.120  0.00  0.00    +0.019 C 
ATOM     20  C   UNL     1      -0.534   0.416  24.512  0.00  0.00    +0.012 C 
ENDROOT
BRANCH  15  14
ATOM     14  C   UNL     1       0.218   0.453  23.297  0.00  0.00    +0.051 C 
BRANCH  14  13
ATOM     11  C   UNL     1       2.267   0.037  22.866  0.00  0.00    +0.177 A 
ATOM     12  C   UNL     1       1.684   0.367  23.349  0.00  0.00    +0.058 A 
ATOM     13  C   UNL     1       0.952   0.220  23.000  0.00  0.00    +0.101 A 
ATOM     34  N   UNL     1       1.080  -0.200  22.302  0.00  0.00    -0.081 NA
ATOM     35  O   UNL     1       1.893  -0.314  22.219  0.00  0.00    -0.354 OA
BRANCH  11   8
ATOM      5  C   UNL     1       4.706   0.089  23.284  0.00  0.00    -0.023 A 
ATOM      6  C   UNL     1       4.269  -0.585  23.474  0.00  0.00    -0.004 A 
ATOM      7  C   UNL     1       3.456  -0.602  23.335  0.00  0.00    +0.003 A 
ATOM      8  C   UNL     1       3.080   0.054  23.006  0.00  0.00    +0.037 A 
ATOM      9  C   UNL     1       3.517   0.728  22.816  0.00  0.00    +0.003 A 
ATOM     10  C   UNL     1       4.329   0.744  22.955  0.00  0.00    -0.004 A 
BRANCH   5   2
ATOM      1  C   UNL     1       6.332   0.123  23.562  0.00  0.00    +0.004 C 
ATOM      2  C   UNL     1       5.518   0.106  23.424  0.00  0.00    +0.019 C 
ATOM      3  C   UNL     1       5.384   0.426  24.172  0.00  0.00    +0.004 C 
ATOM      4  C   UNL     1       5.653  -0.214  22.675  0.00  0.00    +0.004 C 
ENDBRANCH   5   2
ENDBRANCH  11   8
ENDBRANCH  14  13
ENDBRANCH  15  14
BRANCH  20  21
ATOM     21  C   UNL     1      -0.579   1.240  24.510  0.00  0.00    +0.085 C 
BRANCH  21  22
ATOM     22  C   UNL     1      -1.236   1.618  24.831  0.00  0.00    +0.226 C 
ATOM     23  O   UNL     1      -1.884   1.175  25.086  0.00  0.00    -0.275 OA
ATOM     24  N   UNL     1      -1.247   2.440  24.899  0.00  0.00    -0.275 N 
ATOM     25  C   UNL     1      -0.599   2.884  24.645  0.00  0.00    +0.098 C 
ATOM     26  C   UNL     1      -0.610   3.706  24.713  0.00  0.00    +0.048 C 
ATOM     27  C   UNL     1      -1.269   4.085  25.035  0.00  0.00    -0.023 A 
ATOM     28  C   UNL     1      -1.917   3.641  25.290  0.00  0.00    -0.006 A 
ATOM     29  C   UNL     1      -1.906   2.819  25.221  0.00  0.00    +0.120 C 
ATOM     30  C   UNL     1      -2.575   4.020  25.612  0.00  0.00    -0.003 A 
ATOM     31  C   UNL     1      -2.586   4.842  25.679  0.00  0.00    -0.000 A 
ATOM     32  C   UNL     1      -1.937   5.285  25.425  0.00  0.00    -0.000 A 
ATOM     33  C   UNL     1      -1.279   4.907  25.103  0.00  0.00    -0.004 A 
ENDBRANCH  21  22
ENDBRANCH  20  21
TORSDOF 6
ENDMDL
MODEL 6
REMARK VINA RESULT:     -11.5      3.697      5.256
REMARK  Name = 
REMARK  6 active torsions:
REMARK  status: ('A' for Active; 'I' for Inactive)
REMARK    1  A    between atoms: C_2  and  C_5
REMARK    2  A    between atoms: C_8  and  C_11
REMARK    3  A    between atoms: C_13  and  C_14
REMARK    4  A    between atoms: C_14  and  C_15
REMARK    5  A    between atoms: C_20  and  C_21
REMARK    6  A    between atoms: C_21  and  C_22
REMARK                            x       y       z     vdW  Elec       q    Type
REMARK                         _______ _______ _______ _____ _____    ______ ____
ROOT
ATOM     15  C   UNL     1      -0.772  -0.227  24.258  0.00  0.00    +0.024 C 
ATOM     16  C   UNL     1      -0.348  -0.910  24.442  0.00  0.00    +0.089 C 
ATOM     17  N   UNL     1      -0.691  -1.493  24.915  0.00  0.00    -0.218 NA
ATOM     18  C   UNL     1      -1.458  -1.393  25.203  0.00  0.00    +0.089 C 
ATOM     19  C   UNL     1      -1.881  -0.709  25.018  0.00  0.00    +0.019 C 
ATOM     20  C   UNL     1      -1.538  -0.126  24.545  0.00  0.00    +0.012 C 
ENDROOT
BRANCH  15  14
ATOM     14  C   UNL     1      -0.429   0.357  23.785  0.00  0.00    +0.051 C 
BRANCH  14  13
ATOM     11  C   UNL     1       1.554   0.079  23.042  0.00  0.00    +0.177 A 
ATOM     12  C   UNL     1       1.033   0.318  23.637  0.00  0.00    +0.058 A 
ATOM     13  C   UNL     1       0.264   0.194  23.367  0.00  0.00    +0.101 A 
ATOM     34  N   UNL     1       0.307  -0.122  22.607  0.00  0.00    -0.081 NA
ATOM     35  O   UNL     1       1.104  -0.193  22.405  0.00  0.00    -0.354 OA
BRANCH  11   8
ATOM      5  C   UNL     1       4.024   0.162  23.150  0.00  0.00    -0.023 A 
ATOM      6  C   UNL     1       3.631  -0.558  23.245  0.00  0.00    -0.004 A 
ATOM      7  C   UNL     1       2.808  -0.584  23.209  0.00  0.00    +0.003 A 
ATOM      8  C   UNL     1       2.377   0.106  23.078  0.00  0.00    +0.037 A 
ATOM      9  C   UNL     1       2.770   0.826  22.982  0.00  0.00    +0.003 A 
ATOM     10  C   UNL     1       3.594   0.853  23.018  0.00  0.00    -0.004 A 
BRANCH   5   2
ATOM      1  C   UNL     1       5.672   0.217  23.222  0.00  0.00    +0.004 C 
ATOM      2  C   UNL     1       4.848   0.190  23.185  0.00  0.00    +0.019 C 
ATOM      3  C   UNL     1       4.854   0.772  22.602  0.00  0.00    +0.004 C 
ATOM      4  C   UNL     1       4.842  -0.394  23.769  0.00  0.00    +0.004 C 
ENDBRANCH   5   2
ENDBRANCH  11   8
ENDBRANCH  14  13
ENDBRANCH  15  14
BRANCH  20  21
ATOM     21  C   UNL     1      -1.963   0.557  24.361  0.00  0.00    +0.085 C 
BRANCH  21  22
ATOM     22  C   UNL     1      -2.785   0.559  24.413  0.00  0.00    +0.226 C 
ATOM     23  O   UNL     1      -3.211  -0.126  24.241  0.00  0.00    -0.275 OA
ATOM     24  N   UNL     1      -3.183   1.245  24.638  0.00  0.00    -0.275 N 
ATOM     25  C   UNL     1      -2.757   1.931  24.811  0.00  0.00    +0.098 C 
ATOM     26  C   UNL     1      -3.155   2.618  25.036  0.00  0.00    +0.048 C 
ATOM     27  C   UNL     1      -3.978   2.620  25.089  0.00  0.00    -0.023 A 
ATOM     28  C   UNL     1      -4.405   1.934  24.916  0.00  0.00    -0.006 A 
ATOM     29  C   UNL     1      -4.006   1.248  24.691  0.00  0.00    +0.120 C 
ATOM     30  C   UNL     1      -5.227   1.936  24.968  0.00  0.00    -0.003 A 
ATOM     31  C   UNL     1      -5.625   2.623  25.193  0.00  0.00    -0.000 A 
ATOM     32  C   UNL     1      -5.199   3.309  25.366  0.00  0.00    -0.000 A 
ATOM     33  C   UNL     1      -4.376   3.307  25.313  0.00  0.00    -0.004 A 
ENDBRANCH  21  22
ENDBRANCH  20  21
TORSDOF 6
ENDMDL
MODEL 7
REMARK VINA RESULT:     -11.3      2.419      4.059
REMARK  Name = 
REMARK  6 active torsions:
REMARK  status: ('A' for Active; 'I' for Inactive)
REMARK    1  A    between atoms: C_2  and  C_5
REMARK    2  A    between atoms: C_8  and  C_11
REMARK    3  A    between atoms: C_13  and  C_14
REMARK    4  A    between atoms: C_14  and  C_15
REMARK    5  A    between atoms: C_20  and  C_21
REMARK    6  A    between atoms: C_21  and  C_22
REMARK                            x       y       z     vdW  Elec       q    Type
REMARK                         _______ _______ _______ _____ _____    ______ ____
ROOT
ATOM     15  C   UNL     1      -3.006  -1.136  24.783  0.00  0.00    +0.024 C 
ATOM     16  C   UNL     1      -2.975  -1.953  24.666  0.00  0.00    +0.089 C 
ATOM     17  N   UNL     1      -3.577  -2.332  24.248  0.00  0.00    -0.218 NA
ATOM     18  C   UNL     1      -4.211  -1.894  23.949  0.00  0.00    +0.089 C 
ATOM     19  C   UNL     1      -4.240  -1.079  24.067  0.00  0.00    +0.019 C 
ATOM     20  C   UNL     1      -3.638  -0.700  24.485  0.00  0.00    +0.012 C 
ENDROOT
BRANCH  15  14
ATOM     14  C   UNL     1      -2.403  -0.757  25.201  0.00  0.00    +0.051 C 
BRANCH  14  13
ATOM     11  C   UNL     1      -0.410  -0.820  24.437  0.00  0.00    +0.177 A 
ATOM     12  C   UNL     1      -1.167  -0.492  24.450  0.00  0.00    +0.058 A 
ATOM     13  C   UNL     1      -1.614  -0.902  25.009  0.00  0.00    +0.101 A 
ATOM     34  N   UNL     1      -1.134  -1.484  25.342  0.00  0.00    -0.081 NA
ATOM     35  O   UNL     1      -0.389  -1.434  24.989  0.00  0.00    -0.354 OA
BRANCH  11   8
ATOM      5  C   UNL     1       1.468  -0.093  23.000  0.00  0.00    -0.023 A 
ATOM      6  C   UNL     1       1.510  -0.814  23.399  0.00  0.00    -0.004 A 
ATOM      7  C   UNL     1       0.883  -1.055  23.878  0.00  0.00    +0.003 A 
ATOM      8  C   UNL     1       0.216  -0.578  23.958  0.00  0.00    +0.037 A 
ATOM      9  C   UNL     1       0.175   0.144  23.559  0.00  0.00    +0.003 A 
ATOM     10  C   UNL     1       0.801   0.385  23.080  0.00  0.00    -0.004 A 
BRANCH   5   2
ATOM      1  C   UNL     1       2.721   0.392  22.041  0.00  0.00    +0.004 C 
ATOM      2  C   UNL     1       2.094   0.150  22.521  0.00  0.00    +0.019 C 
ATOM      3  C   UNL     1       2.404   0.589  23.146  0.00  0.00    +0.004 C 
ATOM      4  C   UNL     1       1.785  -0.290  21.894  0.00  0.00    +0.004 C 
ENDBRANCH   5   2
ENDBRANCH  11   8
ENDBRANCH  14  13
ENDBRANCH  15  14
BRANCH  20  21
ATOM     21  C   UNL     1      -3.669   0.117  24.603  0.00  0.00    +0.085 C 
BRANCH  21  22
ATOM     22  C   UNL     1      -4.360   0.468  24.882  0.00  0.00    +0.226 C 
ATOM     23  O   UNL     1      -5.002  -0.002  25.100  0.00  0.00    -0.275 OA
ATOM     24  N   UNL     1      -4.411   1.288  24.944  0.00  0.00    -0.275 N 
ATOM     25  C   UNL     1      -3.768   1.759  24.726  0.00  0.00    +0.098 C 
ATOM     26  C   UNL     1      -3.818   2.580  24.788  0.00  0.00    +0.048 C 
ATOM     27  C   UNL     1      -4.511   2.932  25.068  0.00  0.00    -0.023 A 
ATOM     28  C   UNL     1      -5.153   2.461  25.286  0.00  0.00    -0.006 A 
ATOM     29  C   UNL     1      -5.103   1.640  25.224  0.00  0.00    +0.120 C 
ATOM     30  C   UNL     1      -5.845   2.812  25.565  0.00  0.00    -0.003 A 
ATOM     31  C   UNL     1      -5.895   3.633  25.627  0.00  0.00    -0.000 A 
ATOM     32  C   UNL     1      -5.252   4.103  25.409  0.00  0.00    -0.000 A 
ATOM     33  C   UNL     1      -4.561   3.752  25.129  0.00  0.00    -0.004 A 
ENDBRANCH  21  22
ENDBRANCH  20  21
TORSDOF 6
ENDMDL
MODEL 8
REMARK VINA RESULT:     -11.3      2.331      4.750
REMARK  Name = 
REMARK  6 active torsions:
REMARK  status: ('A' for Active; 'I' for Inactive)
REMARK    1  A    between atoms: C_2  and  C_5
REMARK    2  A    between atoms: C_8  and  C_11
REMARK    3  A    between atoms: C_13  and  C_14
REMARK    4  A    between atoms: C_14  and  C_15
REMARK    5  A    between atoms: C_20  and  C_21
REMARK    6  A    between atoms: C_21  and  C_22
REMARK                            x       y       z     vdW  Elec       q    Type
REMARK                         _______ _______ _______ _____ _____    ______ ____
ROOT
ATOM     15  C   UNL     1      -2.892   2.623  25.100  0.00  0.00    +0.024 C 
ATOM     16  C   UNL     1      -2.853   3.421  24.890  0.00  0.00    +0.089 C 
ATOM     17  N   UNL     1      -3.474   3.768  24.473  0.00  0.00    -0.218 NA
ATOM     18  C   UNL     1      -4.135   3.318  24.266  0.00  0.00    +0.089 C 
ATOM     19  C   UNL     1      -4.173   2.521  24.476  0.00  0.00    +0.019 C 
ATOM     20  C   UNL     1      -3.552   2.174  24.893  0.00  0.00    +0.012 C 
ENDROOT
BRANCH  15  14
ATOM     14  C   UNL     1      -2.270   2.276  25.517  0.00  0.00    +0.051 C 
BRANCH  14  13
ATOM     11  C   UNL     1      -0.382   1.947  24.575  0.00  0.00    +0.177 A 
ATOM     12  C   UNL     1      -1.144   1.696  24.772  0.00  0.00    +0.058 A 
ATOM     13  C   UNL     1      -1.505   2.295  25.208  0.00  0.00    +0.101 A 
ATOM     34  N   UNL     1      -0.969   2.917  25.282  0.00  0.00    -0.081 NA
ATOM     35  O   UNL     1      -0.274   2.703  24.891  0.00  0.00    -0.354 OA
BRANCH  11   8
ATOM      5  C   UNL     1       1.284   0.665  23.270  0.00  0.00    -0.023 A 
ATOM      6  C   UNL     1       1.469   1.421  23.546  0.00  0.00    -0.004 A 
ATOM      7  C   UNL     1       0.913   1.847  23.981  0.00  0.00    +0.003 A 
ATOM      8  C   UNL     1       0.173   1.520  24.141  0.00  0.00    +0.037 A 
ATOM      9  C   UNL     1      -0.012   0.764  23.865  0.00  0.00    +0.003 A 
ATOM     10  C   UNL     1       0.544   0.338  23.430  0.00  0.00    -0.004 A 
BRANCH   5   2
ATOM      1  C   UNL     1       2.395  -0.190  22.401  0.00  0.00    +0.004 C 
ATOM      2  C   UNL     1       1.839   0.238  22.836  0.00  0.00    +0.019 C 
ATOM      3  C   UNL     1       1.236  -0.229  22.522  0.00  0.00    +0.004 C 
ATOM      4  C   UNL     1       2.444   0.704  23.149  0.00  0.00    +0.004 C 
ENDBRANCH   5   2
ENDBRANCH  11   8
ENDBRANCH  14  13
ENDBRANCH  15  14
BRANCH  20  21
ATOM     21  C   UNL     1      -3.591   1.377  25.104  0.00  0.00    +0.085 C 
BRANCH  21  22
ATOM     22  C   UNL     1      -3.928   0.830  24.587  0.00  0.00    +0.226 C 
ATOM     23  O   UNL     1      -4.389   1.090  23.954  0.00  0.00    -0.275 OA
ATOM     24  N   UNL     1      -3.804   0.023  24.702  0.00  0.00    -0.275 N 
ATOM     25  C   UNL     1      -3.342  -0.237  25.336  0.00  0.00    +0.098 C 
ATOM     26  C   UNL     1      -3.219  -1.045  25.452  0.00  0.00    +0.048 C 
ATOM     27  C   UNL     1      -3.555  -1.593  24.935  0.00  0.00    -0.023 A 
ATOM     28  C   UNL     1      -4.017  -1.333  24.301  0.00  0.00    -0.006 A 
ATOM     29  C   UNL     1      -4.141  -0.525  24.186  0.00  0.00    +0.120 C 
ATOM     30  C   UNL     1      -4.353  -1.880  23.784  0.00  0.00    -0.003 A 
ATOM     31  C   UNL     1      -4.230  -2.687  23.900  0.00  0.00    -0.000 A 
ATOM     32  C   UNL     1      -3.768  -2.947  24.534  0.00  0.00    -0.000 A 
ATOM     33  C   UNL     1      -3.432  -2.400  25.050  0.00  0.00    -0.004 A 
ENDBRANCH  21  22
ENDBRANCH  20  21
TORSDOF 6
ENDMDL
MODEL 9
REMARK VINA RESULT:      -9.0     14.244     16.267
REMARK  Name = 
REMARK  6 active torsions:
REMARK  status: ('A' for Active; 'I' for Inactive)
REMARK    1  A    between atoms: C_2  and  C_5
REMARK    2  A    between atoms: C_8  and  C_11
REMARK    3  A    between atoms: C_13  and  C_14
REMARK    4  A    between atoms: C_14  and  C_15
REMARK    5  A    between atoms: C_20  and  C_21
REMARK    6  A    between atoms: C_21  and  C_22
REMARK                            x       y       z     vdW  Elec       q    Type
REMARK                         _______ _______ _______ _____ _____    ______ ____
ROOT
ATOM     15  C   UNL     1      -2.967 -10.635  15.382  0.00  0.00    +0.024 C 
ATOM     16  C   UNL     1      -2.580 -10.571  16.108  0.00  0.00    +0.089 C 
ATOM     17  N   UNL     1      -1.768 -10.426  16.131  0.00  0.00    -0.218 NA
ATOM     18  C   UNL     1      -1.343 -10.343  15.428  0.00  0.00    +0.089 C 
ATOM     19  C   UNL     1      -1.731 -10.407  14.702  0.00  0.00    +0.019 C 
ATOM     20  C   UNL     1      -2.543 -10.553  14.679  0.00  0.00    +0.012 C 
ENDROOT
BRANCH  15  14
ATOM     14  C   UNL     1      -3.779 -10.781  15.359  0.00  0.00    +0.051 C 
BRANCH  14  13
ATOM     11  C   UNL     1      -5.336 -10.144  16.673  0.00  0.00    +0.177 A 
ATOM     12  C   UNL     1      -5.080 -10.414  15.937  0.00  0.00    +0.058 A 
ATOM     13  C   UNL     1      -4.263 -10.518  15.973  0.00  0.00    +0.101 A 
ATOM     34  N   UNL     1      -4.013 -10.312  16.731  0.00  0.00    -0.081 NA
ATOM     35  O   UNL     1      -4.676 -10.080  17.165  0.00  0.00    -0.354 OA
BRANCH  11   8
ATOM      5  C   UNL     1      -7.671  -9.616  17.300  0.00  0.00    -0.023 A 
ATOM      6  C   UNL     1      -7.387  -9.406  16.554  0.00  0.00    -0.004 A 
ATOM      7  C   UNL     1      -6.608  -9.582  16.346  0.00  0.00    +0.003 A 
ATOM      8  C   UNL     1      -6.114  -9.968  16.882  0.00  0.00    +0.037 A 
ATOM      9  C   UNL     1      -6.399 -10.178  17.628  0.00  0.00    +0.003 A 
ATOM     10  C   UNL     1      -7.177 -10.001  17.836  0.00  0.00    -0.004 A 
BRANCH   5   2
ATOM      1  C   UNL     1      -9.228  -9.263  17.718  0.00  0.00    +0.004 C 
ATOM      2  C   UNL     1      -8.449  -9.440  17.509  0.00  0.00    +0.019 C 
ATOM      3  C   UNL     1      -8.514 -10.170  17.887  0.00  0.00    +0.004 C 
ATOM      4  C   UNL     1      -8.385  -8.709  17.131  0.00  0.00    +0.004 C 
ENDBRANCH   5   2
ENDBRANCH  11   8
ENDBRANCH  14  13
ENDBRANCH  15  14
BRANCH  20  21
ATOM     21  C   UNL     1      -2.930 -10.617  13.953  0.00  0.00    +0.085 C 
BRANCH  21  22
ATOM     22  C   UNL     1      -2.563 -10.350  13.265  0.00  0.00    +0.226 C 
ATOM     23  O   UNL     1      -1.749 -10.216  13.257  0.00  0.00    -0.275 OA
ATOM     24  N   UNL     1      -3.008 -10.218  12.584  0.00  0.00    -0.275 N 
ATOM     25  C   UNL     1      -3.823 -10.352  12.592  0.00  0.00    +0.098 C 
ATOM     26  C   UNL     1      -4.269 -10.220  11.910  0.00  0.00    +0.048 C 
ATOM     27  C   UNL     1      -3.902  -9.953  11.221  0.00  0.00    -0.023 A 
ATOM     28  C   UNL     1      -3.087  -9.818  11.214  0.00  0.00    -0.006 A 
ATOM     29  C   UNL     1      -2.641  -9.951  11.895  0.00  0.00    +0.120 C 
ATOM     30  C   UNL     1      -2.720  -9.552  10.525  0.00  0.00    -0.003 A 
ATOM     31  C   UNL     1      -3.166  -9.419   9.845  0.00  0.00    -0.000 A 
ATOM     32  C   UNL     1      -3.981  -9.554   9.852  0.00  0.00    -0.000 A 
ATOM     33  C   UNL     1      -4.348  -9.821  10.541  0.00  0.00    -0.004 A 
ENDBRANCH  21  22
ENDBRANCH  20  21
TORSDOF 6
ENDMDL
