MODEL 1
REMARK VINA RESULT:     -10.2      0.000      0.000
REMARK  Name = 
REMARK  5 active torsions:
REMARK  status: ('A' for Active; 'I' for Inactive)
REMARK    1  A    between atoms: O_2  and  C_3
REMARK    2  A    between atoms: C_3  and  C_4
REMARK    3  A    between atoms: C_10  and  C_12
REMARK    4  A    between atoms: C_12  and  O_14
REMARK    5  A    between atoms: C_16  and  C_18
REMARK                            x       y       z     vdW  Elec       q    Type
REMARK                         _______ _______ _______ _____ _____    ______ ____
ROOT
ATOM      4  C   UNL     1      -1.667   2.778  24.920  0.00  0.00    +0.256 C 
ATOM      5  O   UNL     1      -0.890   2.505  24.887  0.00  0.00    -0.272 OA
ATOM      6  N   UNL     1      -2.295   2.242  24.892  0.00  0.00    -0.273 N 
ATOM      7  C   UNL     1      -2.144   1.434  24.831  0.00  0.00    +0.115 C 
ATOM      8  C   UNL     1      -2.771   0.898  24.803  0.00  0.00    +0.115 C 
ATOM      9  N   UNL     1      -3.549   1.170  24.836  0.00  0.00    -0.268 N 
ATOM     10  C   UNL     1      -3.700   1.980  24.898  0.00  0.00    +0.195 C 
ATOM     11  C   UNL     1      -3.073   2.516  24.926  0.00  0.00    +0.125 C 
ATOM     16  C   UNL     1      -4.175   0.636  24.808  0.00  0.00    +0.226 C 
ATOM     17  O   UNL     1      -4.953   0.909  24.841  0.00  0.00    -0.275 OA
ENDROOT
BRANCH  16  18
ATOM     18  C   UNL     1      -4.025  -0.173  24.747  0.00  0.00    +0.077 C 
ATOM     19  C   UNL     1      -3.853  -0.614  25.422  0.00  0.00    +0.009 C 
ATOM     20  C   UNL     1      -3.703  -1.422  25.360  0.00  0.00    +0.000 C 
ATOM     21  C   UNL     1      -3.724  -1.791  24.622  0.00  0.00    +0.000 C 
ATOM     22  C   UNL     1      -3.896  -1.350  23.946  0.00  0.00    +0.000 C 
ATOM     23  C   UNL     1      -4.046  -0.541  24.008  0.00  0.00    +0.009 C 
ENDBRANCH  16  18
BRANCH  10  12
ATOM     12  C   UNL     1      -4.477   2.252  24.931  0.00  0.00    +0.337 C 
ATOM     13  O   UNL     1      -4.909   2.355  24.236  0.00  0.00    -0.248 OA
BRANCH  12  14
ATOM     14  O   UNL     1      -4.824   2.422  25.661  0.00  0.00    -0.443 OA
ATOM     15  C   UNL     1      -5.486   2.912  25.700  0.00  0.00    +0.256 C 
ENDBRANCH  12  14
ENDBRANCH  10  12
BRANCH   4   3
ATOM      3  C   UNL     1      -1.819   3.587  24.982  0.00  0.00    +0.227 C 
BRANCH   3   2
ATOM      1  C   UNL     1      -1.342   4.928  25.107  0.00  0.00    +0.175 C 
ATOM      2  O   UNL     1      -1.194   4.117  25.076  0.00  0.00    -0.342 OA
ENDBRANCH   3   2
ENDBRANCH   4   3
TORSDOF 5
ENDMDL
MODEL 2
REMARK VINA RESULT:      -9.9      1.642      2.723
REMARK  Name = 
REMARK  5 active torsions:
REMARK  status: ('A' for Active; 'I' for Inactive)
REMARK    1  A    between atoms: O_2  and  C_3
REMARK    2  A    between atoms: C_3  and  C_4
REMARK    3  A    between atoms: C_10  and  C_12
REMARK    4  A    between atoms: C_12  and  O_14
REMARK    5  A    between atoms: C_16  and  C_18
REMARK                            x       y       z     vdW  Elec       q    Type
REMARK                         _______ _______ _______ _____ _____    ______ ____
ROOT
ATOM      4  C   UNL     1      -5.336   2.069  25.428  0.00  0.00    +0.256 C 
ATOM      5  O   UNL     1      -6.020   1.847  25.830  0.00  0.00    -0.272 OA
ATOM      6  N   UNL     1      -4.822   1.491  25.137  0.00  0.00    -0.273 N 
ATOM      7  C   UNL     1      -4.994   0.693  25.248  0.00  0.00    +0.115 C 
ATOM      8  C   UNL     1      -4.481   0.116  24.958  0.00  0.00    +0.115 C 
ATOM      9  N   UNL     1      -3.796   0.338  24.555  0.00  0.00    -0.268 N 
ATOM     10  C   UNL     1      -3.624   1.137  24.443  0.00  0.00    +0.195 C 
ATOM     11  C   UNL     1      -4.137   1.714  24.734  0.00  0.00    +0.125 C 
ATOM     16  C   UNL     1      -3.283  -0.239  24.264  0.00  0.00    +0.226 C 
ATOM     17  O   UNL     1      -2.598  -0.016  23.861  0.00  0.00    -0.275 OA
ENDROOT
BRANCH  16  18
ATOM     18  C   UNL     1      -3.455  -1.038  24.376  0.00  0.00    +0.077 C 
ATOM     19  C   UNL     1      -3.160  -1.435  25.036  0.00  0.00    +0.009 C 
ATOM     20  C   UNL     1      -3.332  -2.234  25.147  0.00  0.00    +0.000 C 
ATOM     21  C   UNL     1      -3.798  -2.636  24.597  0.00  0.00    +0.000 C 
ATOM     22  C   UNL     1      -4.093  -2.239  23.937  0.00  0.00    +0.000 C 
ATOM     23  C   UNL     1      -3.921  -1.439  23.826  0.00  0.00    +0.009 C 
ENDBRANCH  16  18
BRANCH  10  12
ATOM     12  C   UNL     1      -2.939   1.359  24.040  0.00  0.00    +0.337 C 
ATOM     13  O   UNL     1      -2.220   1.401  24.441  0.00  0.00    -0.248 OA
BRANCH  12  14
ATOM     14  O   UNL     1      -2.974   1.539  23.235  0.00  0.00    -0.443 OA
ATOM     15  C   UNL     1      -2.378   1.990  22.887  0.00  0.00    +0.256 C 
ENDBRANCH  12  14
ENDBRANCH  10  12
BRANCH   4   3
ATOM      3  C   UNL     1      -5.163   2.868  25.316  0.00  0.00    +0.227 C 
BRANCH   3   2
ATOM      1  C   UNL     1      -5.477   4.244  25.541  0.00  0.00    +0.175 C 
ATOM      2  O   UNL     1      -5.633   3.445  25.672  0.00  0.00    -0.342 OA
ENDBRANCH   3   2
ENDBRANCH   4   3
TORSDOF 5
ENDMDL
MODEL 3
REMARK VINA RESULT:      -9.1      1.302      2.579
REMARK  Name = 
REMARK  5 active torsions:
REMARK  status: ('A' for Active; 'I' for Inactive)
REMARK    1  A    between atoms: O_2  and  C_3
REMARK    2  A    between atoms: C_3  and  C_4
REMARK    3  A    between atoms: C_10  and  C_12
REMARK    4  A    between atoms: C_12  and  O_14
REMARK    5  A    between atoms: C_16  and  C_18
REMARK                            x       y       z     vdW  Elec       q    Type
REMARK                         _______ _______ _______ _____ _____    ______ ____
ROOT
ATOM      4  C   UNL     1      -2.887   2.887  25.043  0.00  0.00    +0.256 C 
ATOM      5  O   UNL     1      -3.662   3.147  25.149  0.00  0.00    -0.272 OA
ATOM      6  N   UNL     1      -2.734   2.083  24.926  0.00  0.00    -0.273 N 
ATOM      7  C   UNL     1      -3.356   1.543  24.915  0.00  0.00    +0.115 C 
ATOM      8  C   UNL     1      -3.203   0.740  24.798  0.00  0.00    +0.115 C 
ATOM      9  N   UNL     1      -2.428   0.479  24.692  0.00  0.00    -0.268 N 
ATOM     10  C   UNL     1      -1.805   1.021  24.703  0.00  0.00    +0.195 C 
ATOM     11  C   UNL     1      -1.958   1.823  24.820  0.00  0.00    +0.125 C 
ATOM     16  C   UNL     1      -2.274  -0.322  24.575  0.00  0.00    +0.226 C 
ATOM     17  O   UNL     1      -1.498  -0.583  24.469  0.00  0.00    -0.275 OA
ENDROOT
BRANCH  16  18
ATOM     18  C   UNL     1      -2.896  -0.864  24.563  0.00  0.00    +0.077 C 
ATOM     19  C   UNL     1      -3.352  -0.955  23.882  0.00  0.00    +0.009 C 
ATOM     20  C   UNL     1      -3.973  -1.497  23.871  0.00  0.00    +0.000 C 
ATOM     21  C   UNL     1      -4.140  -1.948  24.542  0.00  0.00    +0.000 C 
ATOM     22  C   UNL     1      -3.684  -1.857  25.223  0.00  0.00    +0.000 C 
ATOM     23  C   UNL     1      -3.061  -1.314  25.234  0.00  0.00    +0.009 C 
ENDBRANCH  16  18
BRANCH  10  12
ATOM     12  C   UNL     1      -1.030   0.760  24.597  0.00  0.00    +0.337 C 
ATOM     13  O   UNL     1      -0.600   0.471  25.238  0.00  0.00    -0.248 OA
BRANCH  12  14
ATOM     14  O   UNL     1      -0.684   0.788  23.848  0.00  0.00    -0.443 OA
ATOM     15  C   UNL     1       0.137   0.755  23.770  0.00  0.00    +0.256 C 
ENDBRANCH  12  14
ENDBRANCH  10  12
BRANCH   4   3
ATOM      3  C   UNL     1      -2.264   3.428  25.054  0.00  0.00    +0.227 C 
BRANCH   3   2
ATOM      1  C   UNL     1      -1.787   4.758  25.265  0.00  0.00    +0.175 C 
ATOM      2  O   UNL     1      -2.413   4.224  25.211  0.00  0.00    -0.342 OA
ENDBRANCH   3   2
ENDBRANCH   4   3
TORSDOF 5
ENDMDL
MODEL 4
REMARK VINA RESULT:      -7.9     16.060     18.169
REMARK  Name = 
REMARK  5 active torsions:
REMARK  status: ('A' for Active; 'I' for Inactive)
REMARK    1  A    between atoms: O_2  and  C_3
REMARK    2  A    between atoms: C_3  and  C_4
REMARK    3  A    between atoms: C_10  and  C_12
REMARK    4  A    between atoms: C_12  and  O_14
REMARK    5  A    between atoms: C_16  and  C_18
REMARK                            x       y       z     vdW  Elec       q    Type
REMARK                         _______ _______ _______ _____ _____    ______ ____
ROOT
ATOM      4  C   UNL     1      14.970   6.620  20.365  0.00  0.00    +0.256 C 
ATOM      5  O   UNL     1      15.330   6.498  21.097  0.00  0.00    -0.272 OA
ATOM      6  N   UNL     1      14.184   6.872  20.329  0.00  0.00    -0.273 N 
ATOM      7  C   UNL     1      13.760   7.001  21.024  0.00  0.00    +0.115 C 
ATOM      8  C   UNL     1      12.975   7.253  20.988  0.00  0.00    +0.115 C 
ATOM      9  N   UNL     1      12.614   7.375  20.257  0.00  0.00    -0.268 N 
ATOM     10  C   UNL     1      13.039   7.245  19.561  0.00  0.00    +0.195 C 
ATOM     11  C   UNL     1      13.824   6.994  19.597  0.00  0.00    +0.125 C 
ATOM     16  C   UNL     1      11.830   7.626  20.220  0.00  0.00    +0.226 C 
ATOM     17  O   UNL     1      11.469   7.748  19.488  0.00  0.00    -0.275 OA
ENDROOT
BRANCH  16  18
ATOM     18  C   UNL     1      11.406   7.756  20.916  0.00  0.00    +0.077 C 
ATOM     19  C   UNL     1      10.999   7.133  21.273  0.00  0.00    +0.009 C 
ATOM     20  C   UNL     1      10.575   7.263  21.968  0.00  0.00    +0.000 C 
ATOM     21  C   UNL     1      10.556   8.016  22.306  0.00  0.00    +0.000 C 
ATOM     22  C   UNL     1      10.963   8.638  21.948  0.00  0.00    +0.000 C 
ATOM     23  C   UNL     1      11.388   8.508  21.253  0.00  0.00    +0.009 C 
ENDBRANCH  16  18
BRANCH  10  12
ATOM     12  C   UNL     1      12.678   7.368  18.829  0.00  0.00    +0.337 C 
ATOM     13  O   UNL     1      12.172   6.797  18.518  0.00  0.00    -0.248 OA
BRANCH  12  14
ATOM     14  O   UNL     1      12.824   8.063  18.409  0.00  0.00    -0.443 OA
ATOM     15  C   UNL     1      12.656   8.100  17.602  0.00  0.00    +0.256 C 
ENDBRANCH  12  14
ENDBRANCH  10  12
BRANCH   4   3
ATOM      3  C   UNL     1      15.394   6.491  19.669  0.00  0.00    +0.227 C 
BRANCH   3   2
ATOM      1  C   UNL     1      16.601   6.103  19.011  0.00  0.00    +0.175 C 
ATOM      2  O   UNL     1      16.169   6.211  19.705  0.00  0.00    -0.342 OA
ENDBRANCH   3   2
ENDBRANCH   4   3
TORSDOF 5
ENDMDL
MODEL 5
REMARK VINA RESULT:      -7.4     17.124     19.185
REMARK  Name = 
REMARK  5 active torsions:
REMARK  status: ('A' for Active; 'I' for Inactive)
REMARK    1  A    between atoms: O_2  and  C_3
REMARK    2  A    between atoms: C_3  and  C_4
REMARK    3  A    between atoms: C_10  and  C_12
REMARK    4  A    between atoms: C_12  and  O_14
REMARK    5  A    between atoms: C_16  and  C_18
REMARK                            x       y       z     vdW  Elec       q    Type
REMARK                         _______ _______ _______ _____ _____    ______ ____
ROOT
ATOM      4  C   UNL     1      12.637   8.342  17.074  0.00  0.00    +0.256 C 
ATOM      5  O   UNL     1      13.081   8.634  16.444  0.00  0.00    -0.272 OA
ATOM      6  N   UNL     1      13.018   8.027  17.736  0.00  0.00    -0.273 N 
ATOM      7  C   UNL     1      13.842   8.006  17.766  0.00  0.00    +0.115 C 
ATOM      8  C   UNL     1      14.223   7.692  18.427  0.00  0.00    +0.115 C 
ATOM      9  N   UNL     1      13.780   7.399  19.058  0.00  0.00    -0.268 N 
ATOM     10  C   UNL     1      12.955   7.421  19.028  0.00  0.00    +0.195 C 
ATOM     11  C   UNL     1      12.574   7.735  18.367  0.00  0.00    +0.125 C 
ATOM     16  C   UNL     1      14.160   7.086  19.719  0.00  0.00    +0.226 C 
ATOM     17  O   UNL     1      13.716   6.793  20.351  0.00  0.00    -0.275 OA
ENDROOT
BRANCH  16  18
ATOM     18  C   UNL     1      14.984   7.064  19.749  0.00  0.00    +0.077 C 
ATOM     19  C   UNL     1      15.391   6.409  19.455  0.00  0.00    +0.009 C 
ATOM     20  C   UNL     1      16.215   6.388  19.486  0.00  0.00    +0.000 C 
ATOM     21  C   UNL     1      16.632   7.021  19.811  0.00  0.00    +0.000 C 
ATOM     22  C   UNL     1      16.225   7.676  20.105  0.00  0.00    +0.000 C 
ATOM     23  C   UNL     1      15.400   7.697  20.074  0.00  0.00    +0.009 C 
ENDBRANCH  16  18
BRANCH  10  12
ATOM     12  C   UNL     1      12.512   7.128  19.660  0.00  0.00    +0.337 C 
ATOM     13  O   UNL     1      12.316   6.328  19.691  0.00  0.00    -0.248 OA
BRANCH  12  14
ATOM     14  O   UNL     1      12.265   7.637  20.261  0.00  0.00    -0.443 OA
ATOM     15  C   UNL     1      11.628   7.429  20.743  0.00  0.00    +0.256 C 
ENDBRANCH  12  14
ENDBRANCH  10  12
BRANCH   4   3
ATOM      3  C   UNL     1      11.813   8.363  17.045  0.00  0.00    +0.227 C 
BRANCH   3   2
ATOM      1  C   UNL     1      10.609   8.686  16.345  0.00  0.00    +0.175 C 
ATOM      2  O   UNL     1      11.432   8.623  16.361  0.00  0.00    -0.342 OA
ENDBRANCH   3   2
ENDBRANCH   4   3
TORSDOF 5
ENDMDL
MODEL 6
REMARK VINA RESULT:      -7.3     16.339     18.366
REMARK  Name = 
REMARK  5 active torsions:
REMARK  status: ('A' for Active; 'I' for Inactive)
REMARK    1  A    between atoms: O_2  and  C_3
REMARK    2  A    between atoms: C_3  and  C_4
REMARK    3  A    between atoms: C_10  and  C_12
REMARK    4  A    between atoms: C_12  and  O_14
REMARK    5  A    between atoms: C_16  and  C_18
REMARK                            x       y       z     vdW  Elec       q    Type
REMARK                         _______ _______ _______ _____ _____    ______ ____
ROOT
ATOM      4  C   UNL     1      12.938   7.803  17.554  0.00  0.00    +0.256 C 
ATOM      5  O   UNL     1      12.233   7.906  17.139  0.00  0.00    -0.272 OA
ATOM      6  N   UNL     1      12.921   7.616  18.358  0.00  0.00    -0.273 N 
ATOM      7  C   UNL     1      12.198   7.532  18.746  0.00  0.00    +0.115 C 
ATOM      8  C   UNL     1      12.180   7.345  19.549  0.00  0.00    +0.115 C 
ATOM      9  N   UNL     1      12.885   7.242  19.965  0.00  0.00    -0.268 N 
ATOM     10  C   UNL     1      13.609   7.327  19.576  0.00  0.00    +0.195 C 
ATOM     11  C   UNL     1      13.627   7.514  18.773  0.00  0.00    +0.125 C 
ATOM     16  C   UNL     1      12.867   7.055  20.767  0.00  0.00    +0.226 C 
ATOM     17  O   UNL     1      13.573   6.953  21.183  0.00  0.00    -0.275 OA
ENDROOT
BRANCH  16  18
ATOM     18  C   UNL     1      12.145   6.970  21.155  0.00  0.00    +0.077 C 
ATOM     19  C   UNL     1      11.785   7.625  21.507  0.00  0.00    +0.009 C 
ATOM     20  C   UNL     1      11.063   7.539  21.895  0.00  0.00    +0.000 C 
ATOM     21  C   UNL     1      10.699   6.800  21.932  0.00  0.00    +0.000 C 
ATOM     22  C   UNL     1      11.058   6.145  21.581  0.00  0.00    +0.000 C 
ATOM     23  C   UNL     1      11.782   6.231  21.192  0.00  0.00    +0.009 C 
ENDBRANCH  16  18
BRANCH  10  12
ATOM     12  C   UNL     1      14.314   7.224  19.992  0.00  0.00    +0.337 C 
ATOM     13  O   UNL     1      14.623   7.844  20.439  0.00  0.00    -0.248 OA
BRANCH  12  14
ATOM     14  O   UNL     1      14.709   6.500  19.960  0.00  0.00    -0.443 OA
ATOM     15  C   UNL     1      15.511   6.459  20.151  0.00  0.00    +0.256 C 
ENDBRANCH  12  14
ENDBRANCH  10  12
BRANCH   4   3
ATOM      3  C   UNL     1      13.662   7.888  17.166  0.00  0.00    +0.227 C 
BRANCH   3   2
ATOM      1  C   UNL     1      14.358   8.403  16.030  0.00  0.00    +0.175 C 
ATOM      2  O   UNL     1      13.680   8.073  16.363  0.00  0.00    -0.342 OA
ENDBRANCH   3   2
ENDBRANCH   4   3
TORSDOF 5
ENDMDL
