MODEL 1
REMARK VINA RESULT:     -10.8      0.000      0.000
REMARK  Name = 
REMARK  6 active torsions:
REMARK  status: ('A' for Active; 'I' for Inactive)
REMARK    1  A    between atoms: C_2  and  N_4
REMARK    2  A    between atoms: C_5  and  C_7
REMARK    3  A    between atoms: C_7  and  C_8
REMARK    4  A    between atoms: C_10  and  C_11
REMARK    5  A    between atoms: C_11  and  N_12
REMARK    6  A    between atoms: C_13  and  C_15
REMARK                            x       y       z     vdW  Elec       q    Type
REMARK                         _______ _______ _______ _____ _____    ______ ____
ROOT
ATOM      8  C   UNL     1      -4.464   3.068  25.515  0.00  0.00    +0.157 C 
ATOM      9  O   UNL     1      -4.197   2.334  25.251  0.00  0.00    -0.351 OA
ATOM     10  C   UNL     1      -4.857   1.863  25.099  0.00  0.00    +0.170 C 
ATOM     22  C   UNL     1      -5.532   2.306  25.269  0.00  0.00    +0.213 C 
ATOM     23  O   UNL     1      -6.312   2.050  25.194  0.00  0.00    -0.218 OA
ATOM     24  C   UNL     1      -5.289   3.051  25.526  0.00  0.00    +0.212 C 
ATOM     25  O   UNL     1      -5.784   3.671  25.754  0.00  0.00    -0.218 OA
ENDROOT
BRANCH   8   7
ATOM      7  C   UNL     1      -3.989   3.708  25.730  0.00  0.00    +0.119 C 
BRANCH   7   5
ATOM      4  N   UNL     1      -2.577   3.877  25.872  0.00  0.00    -0.207 NA
ATOM      5  C   UNL     1      -3.243   3.800  25.390  0.00  0.00    +0.244 C 
ATOM      6  O   UNL     1      -3.163   3.816  24.569  0.00  0.00    -0.273 OA
BRANCH   4   2
ATOM      1  C   UNL     1      -1.311   3.329  25.501  0.00  0.00    +0.023 C 
ATOM      2  C   UNL     1      -1.831   3.969  25.532  0.00  0.00    +0.095 C 
ATOM      3  C   UNL     1      -1.606   4.700  25.224  0.00  0.00    +0.023 C 
ENDBRANCH   4   2
ENDBRANCH   7   5
ENDBRANCH   8   7
BRANCH  10  11
ATOM     11  C   UNL     1      -4.844   1.085  24.824  0.00  0.00    +0.148 C 
BRANCH  11  12
ATOM     12  N   UNL     1      -4.173   0.619  24.934  0.00  0.00    -0.199 NA
ATOM     13  C   UNL     1      -4.140  -0.140  24.614  0.00  0.00    +0.265 C 
ATOM     14  O   UNL     1      -4.780  -0.434  24.183  0.00  0.00    -0.268 OA
BRANCH  13  15
ATOM     15  C   UNL     1      -3.469  -0.606  24.723  0.00  0.00    +0.055 A 
ATOM     16  C   UNL     1      -3.538  -1.362  25.048  0.00  0.00    +0.004 A 
ATOM     17  C   UNL     1      -2.866  -1.827  25.157  0.00  0.00    -0.004 A 
ATOM     18  C   UNL     1      -2.124  -1.538  24.942  0.00  0.00    -0.022 A 
ATOM     19  C   UNL     1      -1.452  -2.003  25.052  0.00  0.00    +0.031 C 
ATOM     20  C   UNL     1      -2.054  -0.783  24.618  0.00  0.00    -0.004 A 
ATOM     21  C   UNL     1      -2.726  -0.317  24.508  0.00  0.00    +0.004 A 
ENDBRANCH  13  15
ENDBRANCH  11  12
ENDBRANCH  10  11
TORSDOF 6
ENDMDL
MODEL 2
REMARK VINA RESULT:     -10.7      1.237      1.849
REMARK  Name = 
REMARK  6 active torsions:
REMARK  status: ('A' for Active; 'I' for Inactive)
REMARK    1  A    between atoms: C_2  and  N_4
REMARK    2  A    between atoms: C_5  and  C_7
REMARK    3  A    between atoms: C_7  and  C_8
REMARK    4  A    between atoms: C_10  and  C_11
REMARK    5  A    between atoms: C_11  and  N_12
REMARK    6  A    between atoms: C_13  and  C_15
REMARK                            x       y       z     vdW  Elec       q    Type
REMARK                         _______ _______ _______ _____ _____    ______ ____
ROOT
ATOM      8  C   UNL     1      -2.733   3.198  24.848  0.00  0.00    +0.157 C 
ATOM      9  O   UNL     1      -3.005   2.420  24.878  0.00  0.00    -0.351 OA
ATOM     10  C   UNL     1      -3.827   2.435  24.812  0.00  0.00    +0.170 C 
ATOM     22  C   UNL     1      -4.063   3.222  24.741  0.00  0.00    +0.213 C 
ATOM     23  O   UNL     1      -4.838   3.491  24.661  0.00  0.00    -0.218 OA
ATOM     24  C   UNL     1      -3.386   3.694  24.763  0.00  0.00    +0.212 C 
ATOM     25  O   UNL     1      -3.367   4.516  24.709  0.00  0.00    -0.218 OA
ENDROOT
BRANCH   8   7
ATOM      7  C   UNL     1      -1.944   3.438  24.895  0.00  0.00    +0.119 C 
BRANCH   7   5
ATOM      4  N   UNL     1      -0.778   2.619  24.995  0.00  0.00    -0.207 NA
ATOM      5  C   UNL     1      -1.410   3.009  25.355  0.00  0.00    +0.244 C 
ATOM      6  O   UNL     1      -1.508   2.971  26.173  0.00  0.00    -0.273 OA
BRANCH   4   2
ATOM      1  C   UNL     1      -0.204   1.369  25.383  0.00  0.00    +0.023 C 
ATOM      2  C   UNL     1      -0.244   2.190  25.455  0.00  0.00    +0.095 C 
ATOM      3  C   UNL     1       0.251   2.582  25.987  0.00  0.00    +0.023 C 
ENDBRANCH   4   2
ENDBRANCH   7   5
ENDBRANCH   8   7
BRANCH  10  11
ATOM     11  C   UNL     1      -4.326   1.778  24.816  0.00  0.00    +0.148 C 
BRANCH  11  12
ATOM     12  N   UNL     1      -4.009   1.018  24.775  0.00  0.00    -0.199 NA
ATOM     13  C   UNL     1      -4.497   0.361  24.873  0.00  0.00    +0.265 C 
ATOM     14  O   UNL     1      -5.304   0.463  25.014  0.00  0.00    -0.268 OA
BRANCH  13  15
ATOM     15  C   UNL     1      -4.180  -0.400  24.832  0.00  0.00    +0.055 A 
ATOM     16  C   UNL     1      -4.243  -0.836  24.134  0.00  0.00    +0.004 A 
ATOM     17  C   UNL     1      -3.925  -1.596  24.094  0.00  0.00    -0.004 A 
ATOM     18  C   UNL     1      -3.545  -1.920  24.749  0.00  0.00    -0.022 A 
ATOM     19  C   UNL     1      -3.227  -2.681  24.708  0.00  0.00    +0.031 C 
ATOM     20  C   UNL     1      -3.482  -1.485  25.447  0.00  0.00    -0.004 A 
ATOM     21  C   UNL     1      -3.799  -0.724  25.488  0.00  0.00    +0.004 A 
ENDBRANCH  13  15
ENDBRANCH  11  12
ENDBRANCH  10  11
TORSDOF 6
ENDMDL
MODEL 3
REMARK VINA RESULT:     -10.6      1.653      3.030
REMARK  Name = 
REMARK  6 active torsions:
REMARK  status: ('A' for Active; 'I' for Inactive)
REMARK    1  A    between atoms: C_2  and  N_4
REMARK    2  A    between atoms: C_5  and  C_7
REMARK    3  A    between atoms: C_7  and  C_8
REMARK    4  A    between atoms: C_10  and  C_11
REMARK    5  A    between atoms: C_11  and  N_12
REMARK    6  A    between atoms: C_13  and  C_15
REMARK                            x       y       z     vdW  Elec       q    Type
REMARK                         _______ _______ _______ _____ _____    ______ ____
ROOT
ATOM      8  C   UNL     1      -2.131   2.785  24.970  0.00  0.00    +0.157 C 
ATOM      9  O   UNL     1      -2.231   1.987  25.154  0.00  0.00    -0.351 OA
ATOM     10  C   UNL     1      -1.484   1.661  25.286  0.00  0.00    +0.170 C 
ATOM     22  C   UNL     1      -0.923   2.257  25.183  0.00  0.00    +0.213 C 
ATOM     23  O   UNL     1      -0.107   2.174  25.261  0.00  0.00    -0.218 OA
ATOM     24  C   UNL     1      -1.324   2.952  24.988  0.00  0.00    +0.212 C 
ATOM     25  O   UNL     1      -0.977   3.685  24.837  0.00  0.00    -0.218 OA
ENDROOT
BRANCH   8   7
ATOM      7  C   UNL     1      -2.734   3.322  24.799  0.00  0.00    +0.119 C 
BRANCH   7   5
ATOM      4  N   UNL     1      -4.141   3.073  24.764  0.00  0.00    -0.207 NA
ATOM      5  C   UNL     1      -3.459   3.265  25.188  0.00  0.00    +0.244 C 
ATOM      6  O   UNL     1      -3.503   3.401  26.001  0.00  0.00    -0.273 OA
BRANCH   4   2
ATOM      1  C   UNL     1      -5.221   2.279  25.258  0.00  0.00    +0.023 C 
ATOM      2  C   UNL     1      -4.866   3.017  25.154  0.00  0.00    +0.095 C 
ATOM      3  C   UNL     1      -5.235   3.697  25.440  0.00  0.00    +0.023 C 
ENDBRANCH   4   2
ENDBRANCH   7   5
ENDBRANCH   8   7
BRANCH  10  11
ATOM     11  C   UNL     1      -1.326   0.876  25.485  0.00  0.00    +0.148 C 
BRANCH  11  12
ATOM     12  N   UNL     1      -1.828   0.275  25.226  0.00  0.00    -0.199 NA
ATOM     13  C   UNL     1      -1.744  -0.489  25.523  0.00  0.00    +0.265 C 
ATOM     14  O   UNL     1      -1.158  -0.653  26.081  0.00  0.00    -0.268 OA
BRANCH  13  15
ATOM     15  C   UNL     1      -2.246  -1.090  25.264  0.00  0.00    +0.055 A 
ATOM     16  C   UNL     1      -3.006  -1.159  25.578  0.00  0.00    +0.004 A 
ATOM     17  C   UNL     1      -3.507  -1.760  25.318  0.00  0.00    -0.004 A 
ATOM     18  C   UNL     1      -3.249  -2.293  24.745  0.00  0.00    -0.022 A 
ATOM     19  C   UNL     1      -3.751  -2.895  24.485  0.00  0.00    +0.031 C 
ATOM     20  C   UNL     1      -2.490  -2.226  24.430  0.00  0.00    -0.004 A 
ATOM     21  C   UNL     1      -1.988  -1.624  24.690  0.00  0.00    +0.004 A 
ENDBRANCH  13  15
ENDBRANCH  11  12
ENDBRANCH  10  11
TORSDOF 6
ENDMDL
MODEL 4
REMARK VINA RESULT:     -10.4      1.002      4.322
REMARK  Name = 
REMARK  6 active torsions:
REMARK  status: ('A' for Active; 'I' for Inactive)
REMARK    1  A    between atoms: C_2  and  N_4
REMARK    2  A    between atoms: C_5  and  C_7
REMARK    3  A    between atoms: C_7  and  C_8
REMARK    4  A    between atoms: C_10  and  C_11
REMARK    5  A    between atoms: C_11  and  N_12
REMARK    6  A    between atoms: C_13  and  C_15
REMARK                            x       y       z     vdW  Elec       q    Type
REMARK                         _______ _______ _______ _____ _____    ______ ____
ROOT
ATOM      8  C   UNL     1      -5.065   1.589  24.968  0.00  0.00    +0.157 C 
ATOM      9  O   UNL     1      -4.408   2.005  25.242  0.00  0.00    -0.351 OA
ATOM     10  C   UNL     1      -4.674   2.713  25.570  0.00  0.00    +0.170 C 
ATOM     22  C   UNL     1      -5.496   2.735  25.499  0.00  0.00    +0.213 C 
ATOM     23  O   UNL     1      -5.989   3.344  25.754  0.00  0.00    -0.218 OA
ATOM     24  C   UNL     1      -5.737   2.040  25.126  0.00  0.00    +0.212 C 
ATOM     25  O   UNL     1      -6.514   1.832  24.943  0.00  0.00    -0.218 OA
ENDROOT
BRANCH   8   7
ATOM      7  C   UNL     1      -5.051   0.850  24.599  0.00  0.00    +0.119 C 
BRANCH   7   5
ATOM      4  N   UNL     1      -4.411  -0.347  25.044  0.00  0.00    -0.207 NA
ATOM      5  C   UNL     1      -4.377   0.377  24.649  0.00  0.00    +0.244 C 
ATOM      6  O   UNL     1      -3.671   0.628  24.304  0.00  0.00    -0.273 OA
BRANCH   4   2
ATOM      1  C   UNL     1      -3.495  -1.262  24.440  0.00  0.00    +0.023 C 
ATOM      2  C   UNL     1      -3.737  -0.820  25.094  0.00  0.00    +0.095 C 
ATOM      3  C   UNL     1      -3.305  -0.851  25.796  0.00  0.00    +0.023 C 
ENDBRANCH   4   2
ENDBRANCH   7   5
ENDBRANCH   8   7
BRANCH  10  11
ATOM     11  C   UNL     1      -4.202   3.298  25.911  0.00  0.00    +0.148 C 
BRANCH  11  12
ATOM     12  N   UNL     1      -3.487   3.510  25.558  0.00  0.00    -0.199 NA
ATOM     13  C   UNL     1      -2.947   3.979  25.968  0.00  0.00    +0.265 C 
ATOM     14  O   UNL     1      -3.121   4.237  26.732  0.00  0.00    -0.268 OA
BRANCH  13  15
ATOM     15  C   UNL     1      -2.233   4.191  25.614  0.00  0.00    +0.055 A 
ATOM     16  C   UNL     1      -1.629   3.634  25.536  0.00  0.00    +0.004 A 
ATOM     17  C   UNL     1      -0.915   3.848  25.182  0.00  0.00    -0.004 A 
ATOM     18  C   UNL     1      -0.804   4.616  24.906  0.00  0.00    -0.022 A 
ATOM     19  C   UNL     1      -0.089   4.829  24.552  0.00  0.00    +0.031 C 
ATOM     20  C   UNL     1      -1.407   5.174  24.984  0.00  0.00    -0.004 A 
ATOM     21  C   UNL     1      -2.122   4.961  25.338  0.00  0.00    +0.004 A 
ENDBRANCH  13  15
ENDBRANCH  11  12
ENDBRANCH  10  11
TORSDOF 6
ENDMDL
MODEL 5
REMARK VINA RESULT:     -10.3      2.058      5.216
REMARK  Name = 
REMARK  6 active torsions:
REMARK  status: ('A' for Active; 'I' for Inactive)
REMARK    1  A    between atoms: C_2  and  N_4
REMARK    2  A    between atoms: C_5  and  C_7
REMARK    3  A    between atoms: C_7  and  C_8
REMARK    4  A    between atoms: C_10  and  C_11
REMARK    5  A    between atoms: C_11  and  N_12
REMARK    6  A    between atoms: C_13  and  C_15
REMARK                            x       y       z     vdW  Elec       q    Type
REMARK                         _______ _______ _______ _____ _____    ______ ____
ROOT
ATOM      8  C   UNL     1      -1.213  -0.554  24.537  0.00  0.00    +0.157 C 
ATOM      9  O   UNL     1      -1.724   0.094  24.520  0.00  0.00    -0.351 OA
ATOM     10  C   UNL     1      -1.290   0.754  24.284  0.00  0.00    +0.170 C 
ATOM     22  C   UNL     1      -0.510   0.515  24.156  0.00  0.00    +0.213 C 
ATOM     23  O   UNL     1       0.112   0.998  23.913  0.00  0.00    -0.218 OA
ATOM     24  C   UNL     1      -0.464  -0.294  24.313  0.00  0.00    +0.212 C 
ATOM     25  O   UNL     1       0.214  -0.760  24.255  0.00  0.00    -0.218 OA
ENDROOT
BRANCH   8   7
ATOM      7  C   UNL     1      -1.417  -1.326  24.744  0.00  0.00    +0.119 C 
BRANCH   7   5
ATOM      4  N   UNL     1      -2.606  -1.986  24.304  0.00  0.00    -0.207 NA
ATOM      5  C   UNL     1      -2.209  -1.526  24.863  0.00  0.00    +0.244 C 
ATOM      6  O   UNL     1      -2.604  -1.265  25.538  0.00  0.00    -0.273 OA
BRANCH   4   2
ATOM      1  C   UNL     1      -3.594  -2.816  24.918  0.00  0.00    +0.023 C 
ATOM      2  C   UNL     1      -3.398  -2.186  24.423  0.00  0.00    +0.095 C 
ATOM      3  C   UNL     1      -3.993  -1.755  24.046  0.00  0.00    +0.023 C 
ENDBRANCH   4   2
ENDBRANCH   7   5
ENDBRANCH   8   7
BRANCH  10  11
ATOM     11  C   UNL     1      -1.583   1.520  24.192  0.00  0.00    +0.148 C 
BRANCH  11  12
ATOM     12  N   UNL     1      -2.319   1.721  24.504  0.00  0.00    -0.199 NA
ATOM     13  C   UNL     1      -2.651   2.457  24.338  0.00  0.00    +0.265 C 
ATOM     14  O   UNL     1      -2.246   2.994  23.859  0.00  0.00    -0.268 OA
BRANCH  13  15
ATOM     15  C   UNL     1      -3.388   2.658  24.650  0.00  0.00    +0.055 A 
ATOM     16  C   UNL     1      -4.074   2.318  24.341  0.00  0.00    +0.004 A 
ATOM     17  C   UNL     1      -4.810   2.519  24.654  0.00  0.00    -0.004 A 
ATOM     18  C   UNL     1      -4.861   3.059  25.274  0.00  0.00    -0.022 A 
ATOM     19  C   UNL     1      -5.598   3.261  25.587  0.00  0.00    +0.031 C 
ATOM     20  C   UNL     1      -4.177   3.400  25.583  0.00  0.00    -0.004 A 
ATOM     21  C   UNL     1      -3.440   3.198  25.271  0.00  0.00    +0.004 A 
ENDBRANCH  13  15
ENDBRANCH  11  12
ENDBRANCH  10  11
TORSDOF 6
ENDMDL
MODEL 6
REMARK VINA RESULT:      -9.9      1.799      4.627
REMARK  Name = 
REMARK  6 active torsions:
REMARK  status: ('A' for Active; 'I' for Inactive)
REMARK    1  A    between atoms: C_2  and  N_4
REMARK    2  A    between atoms: C_5  and  C_7
REMARK    3  A    between atoms: C_7  and  C_8
REMARK    4  A    between atoms: C_10  and  C_11
REMARK    5  A    between atoms: C_11  and  N_12
REMARK    6  A    between atoms: C_13  and  C_15
REMARK                            x       y       z     vdW  Elec       q    Type
REMARK                         _______ _______ _______ _____ _____    ______ ____
ROOT
ATOM      8  C   UNL     1      -0.634   1.656  25.180  0.00  0.00    +0.157 C 
ATOM      9  O   UNL     1      -1.406   1.874  24.991  0.00  0.00    -0.351 OA
ATOM     10  C   UNL     1      -1.474   2.689  25.101  0.00  0.00    +0.170 C 
ATOM     22  C   UNL     1      -0.743   2.974  25.357  0.00  0.00    +0.213 C 
ATOM     23  O   UNL     1      -0.564   3.759  25.533  0.00  0.00    -0.218 OA
ATOM     24  C   UNL     1      -0.224   2.335  25.406  0.00  0.00    +0.212 C 
ATOM     25  O   UNL     1       0.566   2.369  25.640  0.00  0.00    -0.218 OA
ENDROOT
BRANCH   8   7
ATOM      7  C   UNL     1      -0.325   0.891  25.148  0.00  0.00    +0.119 C 
BRANCH   7   5
ATOM      4  N   UNL     1      -1.021  -0.293  25.545  0.00  0.00    -0.207 NA
ATOM      5  C   UNL     1      -0.817   0.255  24.962  0.00  0.00    +0.244 C 
ATOM      6  O   UNL     1      -1.106   0.168  24.194  0.00  0.00    -0.273 OA
BRANCH   4   2
ATOM      1  C   UNL     1      -1.204  -1.590  24.974  0.00  0.00    +0.023 C 
ATOM      2  C   UNL     1      -1.513  -0.928  25.358  0.00  0.00    +0.095 C 
ATOM      3  C   UNL     1      -2.314  -0.902  25.556  0.00  0.00    +0.023 C 
ENDBRANCH   4   2
ENDBRANCH   7   5
ENDBRANCH   8   7
BRANCH  10  11
ATOM     11  C   UNL     1      -2.154   3.141  24.976  0.00  0.00    +0.148 C 
BRANCH  11  12
ATOM     12  N   UNL     1      -2.898   2.814  25.114  0.00  0.00    -0.199 NA
ATOM     13  C   UNL     1      -3.576   3.210  24.863  0.00  0.00    +0.265 C 
ATOM     14  O   UNL     1      -3.510   3.935  24.474  0.00  0.00    -0.268 OA
BRANCH  13  15
ATOM     15  C   UNL     1      -4.320   2.883  25.001  0.00  0.00    +0.055 A 
ATOM     16  C   UNL     1      -4.608   2.288  24.507  0.00  0.00    +0.004 A 
ATOM     17  C   UNL     1      -5.353   1.962  24.646  0.00  0.00    -0.004 A 
ATOM     18  C   UNL     1      -5.810   2.229  25.277  0.00  0.00    -0.022 A 
ATOM     19  C   UNL     1      -6.555   1.902  25.416  0.00  0.00    +0.031 C 
ATOM     20  C   UNL     1      -5.523   2.824  25.772  0.00  0.00    -0.004 A 
ATOM     21  C   UNL     1      -4.778   3.151  25.633  0.00  0.00    +0.004 A 
ENDBRANCH  13  15
ENDBRANCH  11  12
ENDBRANCH  10  11
TORSDOF 6
ENDMDL
