MODEL 1
REMARK VINA RESULT:     -13.6      0.000      0.000
REMARK  Name = 
REMARK  6 active torsions:
REMARK  status: ('A' for Active; 'I' for Inactive)
REMARK    1  A    between atoms: O_2  and  C_3
REMARK    2  A    between atoms: C_6  and  C_9
REMARK    3  A    between atoms: C_20  and  N_21
REMARK    4  A    between atoms: C_22  and  C_24
REMARK    5  A    between atoms: C_24  and  O_25
REMARK    6  A    between atoms: O_25  and  C_26
REMARK                            x       y       z     vdW  Elec       q    Type
REMARK                         _______ _______ _______ _____ _____    ______ ____
ROOT
ATOM      9  C   UNL     1      -2.011   3.067  25.366  0.00  0.00    +0.249 C 
ATOM     10  O   UNL     1      -1.658   3.469  25.994  0.00  0.00    -0.270 OA
ATOM     11  N   UNL     1      -2.739   3.321  25.072  0.00  0.00    -0.276 N 
ATOM     12  C   UNL     1      -3.431   3.783  24.997  0.00  0.00    +0.096 C 
ATOM     13  C   UNL     1      -3.865   3.311  24.246  0.00  0.00    +0.043 C 
ATOM     14  C   UNL     1      -4.345   3.039  23.646  0.00  0.00    +0.011 C 
ATOM     15  C   UNL     1      -3.728   2.868  23.935  0.00  0.00    +0.058 C 
ATOM     16  C   UNL     1      -3.322   3.335  24.662  0.00  0.00    +0.099 C 
ATOM     17  C   UNL     1      -3.045   2.258  23.867  0.00  0.00    +0.041 A 
ATOM     18  C   UNL     1      -2.815   1.601  23.425  0.00  0.00    +0.014 A 
ATOM     19  C   UNL     1      -2.101   1.221  23.592  0.00  0.00    +0.023 A 
ATOM     20  C   UNL     1      -1.618   1.500  24.200  0.00  0.00    +0.129 A 
ATOM     32  C   UNL     1      -1.848   2.157  24.642  0.00  0.00    +0.276 A 
ATOM     33  O   UNL     1      -1.221   2.237  25.171  0.00  0.00    -0.266 OA
ATOM     34  N   UNL     1      -2.561   2.536  24.475  0.00  0.00    -0.298 N 
ATOM     35  C   UNL     1      -3.146   2.678  24.182  0.00  0.00    +0.110 C 
ENDROOT
BRANCH   9   6
ATOM      3  C   UNL     1      -0.694   0.905  24.150  0.00  0.00    +0.139 A 
ATOM      4  C   UNL     1      -0.733   1.783  23.950  0.00  0.00    +0.037 A 
ATOM      5  C   UNL     1      -1.172   2.503  24.356  0.00  0.00    +0.008 A 
ATOM      6  C   UNL     1      -1.636   2.412  25.032  0.00  0.00    +0.054 A 
ATOM      7  C   UNL     1      -1.727   1.667  25.374  0.00  0.00    +0.008 A 
ATOM      8  C   UNL     1      -1.352   1.012  25.039  0.00  0.00    +0.037 A 
BRANCH   3   2
ATOM      1  C   UNL     1       0.248   0.106  23.431  0.00  0.00    +0.252 C 
ATOM      2  O   UNL     1      -0.394   0.163  23.945  0.00  0.00    -0.471 OA
ENDBRANCH   3   2
ENDBRANCH   9   6
BRANCH  20  21
ATOM     21  N   UNL     1      -0.905   1.120  24.366  0.00  0.00    -0.171 NA
ATOM     22  C   UNL     1      -0.905   0.335  24.622  0.00  0.00    +0.290 C 
ATOM     23  O   UNL     1      -0.191  -0.044  24.788  0.00  0.00    -0.269 OA
BRANCH  22  24
ATOM     24  C   UNL     1      -1.618  -0.069  24.712  0.00  0.00    +0.291 C 
BRANCH  24  25
ATOM     25  O   UNL     1      -1.628  -0.814  25.069  0.00  0.00    -0.466 OA
BRANCH  25  26
ATOM     26  C   UNL     1      -2.313  -1.273  25.045  0.00  0.00    +0.139 A 
ATOM     27  C   UNL     1      -2.910  -1.153  25.601  0.00  0.00    +0.037 A 
ATOM     28  C   UNL     1      -3.594  -1.613  25.577  0.00  0.00    +0.003 A 
ATOM     29  C   UNL     1      -3.681  -2.193  24.998  0.00  0.00    +0.000 A 
ATOM     30  C   UNL     1      -3.084  -2.313  24.442  0.00  0.00    +0.003 A 
ATOM     31  C   UNL     1      -2.399  -1.853  24.465  0.00  0.00    +0.037 A 
ENDBRANCH  25  26
ENDBRANCH  24  25
ENDBRANCH  22  24
ENDBRANCH  20  21
TORSDOF 6
ENDMDL
MODEL 2
REMARK VINA RESULT:     -13.2      1.458      3.548
REMARK  Name = 
REMARK  6 active torsions:
REMARK  status: ('A' for Active; 'I' for Inactive)
REMARK    1  A    between atoms: O_2  and  C_3
REMARK    2  A    between atoms: C_6  and  C_9
REMARK    3  A    between atoms: C_20  and  N_21
REMARK    4  A    between atoms: C_22  and  C_24
REMARK    5  A    between atoms: C_24  and  O_25
REMARK    6  A    between atoms: O_25  and  C_26
REMARK                            x       y       z     vdW  Elec       q    Type
REMARK                         _______ _______ _______ _____ _____    ______ ____
ROOT
ATOM      9  C   UNL     1      -1.975  -0.701  25.755  0.00  0.00    +0.249 C 
ATOM     10  O   UNL     1      -1.710  -1.196  26.359  0.00  0.00    -0.270 OA
ATOM     11  N   UNL     1      -2.757  -0.751  25.494  0.00  0.00    -0.276 N 
ATOM     12  C   UNL     1      -3.547  -1.016  25.448  0.00  0.00    +0.096 C 
ATOM     13  C   UNL     1      -3.878  -0.429  24.725  0.00  0.00    +0.043 C 
ATOM     14  C   UNL     1      -4.297  -0.028  24.154  0.00  0.00    +0.011 C 
ATOM     15  C   UNL     1      -3.645  -0.029  24.414  0.00  0.00    +0.058 C 
ATOM     16  C   UNL     1      -3.341  -0.604  25.114  0.00  0.00    +0.099 C 
ATOM     17  C   UNL     1      -2.830   0.385  24.320  0.00  0.00    +0.041 A 
ATOM     18  C   UNL     1      -2.458   0.972  23.876  0.00  0.00    +0.014 A 
ATOM     19  C   UNL     1      -1.664   1.150  24.012  0.00  0.00    +0.023 A 
ATOM     20  C   UNL     1      -1.242   0.741  24.591  0.00  0.00    +0.129 A 
ATOM     32  C   UNL     1      -1.615   0.154  25.035  0.00  0.00    +0.276 A 
ATOM     33  O   UNL     1      -1.006  -0.098  25.531  0.00  0.00    -0.266 OA
ATOM     34  N   UNL     1      -2.409  -0.024  24.899  0.00  0.00    -0.298 N 
ATOM     35  C   UNL     1      -3.023  -0.002  24.634  0.00  0.00    +0.110 C 
ENDROOT
BRANCH   9   6
ATOM      3  C   UNL     1      -0.200   1.079  24.501  0.00  0.00    +0.139 A 
ATOM      4  C   UNL     1      -0.478   0.248  24.290  0.00  0.00    +0.037 A 
ATOM      5  C   UNL     1      -1.070  -0.345  24.708  0.00  0.00    +0.008 A 
ATOM      6  C   UNL     1      -1.459  -0.157  25.410  0.00  0.00    +0.054 A 
ATOM      7  C   UNL     1      -1.333   0.575  25.769  0.00  0.00    +0.008 A 
ATOM      8  C   UNL     1      -0.817   1.120  25.425  0.00  0.00    +0.037 A 
BRANCH   3   2
ATOM      1  C   UNL     1       0.896   1.621  23.761  0.00  0.00    +0.252 C 
ATOM      2  O   UNL     1       0.273   1.722  24.293  0.00  0.00    -0.471 OA
ENDBRANCH   3   2
ENDBRANCH   9   6
BRANCH  20  21
ATOM     21  N   UNL     1      -0.449   0.920  24.726  0.00  0.00    -0.171 NA
ATOM     22  C   UNL     1      -0.234   1.671  24.990  0.00  0.00    +0.290 C 
ATOM     23  O   UNL     1       0.561   1.850  25.125  0.00  0.00    -0.269 OA
BRANCH  22  24
ATOM     24  C   UNL     1      -0.813   2.245  25.119  0.00  0.00    +0.291 C 
BRANCH  24  25
ATOM     25  O   UNL     1      -0.623   2.938  25.524  0.00  0.00    -0.466 OA
BRANCH  25  26
ATOM     26  C   UNL     1      -1.128   3.590  25.484  0.00  0.00    +0.139 A 
ATOM     27  C   UNL     1      -1.829   3.595  25.918  0.00  0.00    +0.037 A 
ATOM     28  C   UNL     1      -2.334   4.246  25.879  0.00  0.00    +0.003 A 
ATOM     29  C   UNL     1      -2.137   4.892  25.406  0.00  0.00    +0.000 A 
ATOM     30  C   UNL     1      -1.435   4.887  24.972  0.00  0.00    +0.003 A 
ATOM     31  C   UNL     1      -0.931   4.236  25.011  0.00  0.00    +0.037 A 
ENDBRANCH  25  26
ENDBRANCH  24  25
ENDBRANCH  22  24
ENDBRANCH  20  21
TORSDOF 6
ENDMDL
MODEL 3
REMARK VINA RESULT:     -13.2      1.319      1.936
REMARK  Name = 
REMARK  6 active torsions:
REMARK  status: ('A' for Active; 'I' for Inactive)
REMARK    1  A    between atoms: O_2  and  C_3
REMARK    2  A    between atoms: C_6  and  C_9
REMARK    3  A    between atoms: C_20  and  N_21
REMARK    4  A    between atoms: C_22  and  C_24
REMARK    5  A    between atoms: C_24  and  O_25
REMARK    6  A    between atoms: O_25  and  C_26
REMARK                            x       y       z     vdW  Elec       q    Type
REMARK                         _______ _______ _______ _____ _____    ______ ____
ROOT
ATOM      9  C   UNL     1      -3.343   3.636  25.543  0.00  0.00    +0.249 C 
ATOM     10  O   UNL     1      -2.780   4.131  25.886  0.00  0.00    -0.270 OA
ATOM     11  N   UNL     1      -4.123   3.648  25.813  0.00  0.00    -0.276 N 
ATOM     12  C   UNL     1      -4.786   3.872  26.270  0.00  0.00    +0.096 C 
ATOM     13  C   UNL     1      -5.470   3.284  25.868  0.00  0.00    +0.043 C 
ATOM     14  C   UNL     1      -6.138   2.872  25.649  0.00  0.00    +0.011 C 
ATOM     15  C   UNL     1      -5.463   2.903  25.460  0.00  0.00    +0.058 C 
ATOM     16  C   UNL     1      -4.813   3.478  25.859  0.00  0.00    +0.099 C 
ATOM     17  C   UNL     1      -4.862   2.535  24.870  0.00  0.00    +0.041 A 
ATOM     18  C   UNL     1      -4.819   1.978  24.263  0.00  0.00    +0.014 A 
ATOM     19  C   UNL     1      -4.101   1.840  23.881  0.00  0.00    +0.023 A 
ATOM     20  C   UNL     1      -3.426   2.259  24.105  0.00  0.00    +0.129 A 
ATOM     32  C   UNL     1      -3.469   2.816  24.712  0.00  0.00    +0.276 A 
ATOM     33  O   UNL     1      -2.692   3.090  24.749  0.00  0.00    -0.266 OA
ATOM     34  N   UNL     1      -4.187   2.954  25.095  0.00  0.00    -0.298 N 
ATOM     35  C   UNL     1      -4.835   2.905  25.255  0.00  0.00    +0.110 C 
ENDROOT
BRANCH   9   6
ATOM      3  C   UNL     1      -2.648   1.978  23.385  0.00  0.00    +0.139 A 
ATOM      4  C   UNL     1      -3.047   2.785  23.428  0.00  0.00    +0.037 A 
ATOM      5  C   UNL     1      -3.278   3.337  24.148  0.00  0.00    +0.008 A 
ATOM      6  C   UNL     1      -3.127   3.127  24.930  0.00  0.00    +0.054 A 
ATOM      7  C   UNL     1      -2.759   2.409  25.102  0.00  0.00    +0.008 A 
ATOM      8  C   UNL     1      -2.543   1.900  24.489  0.00  0.00    +0.037 A 
BRANCH   3   2
ATOM      1  C   UNL     1      -2.263   1.502  22.093  0.00  0.00    +0.252 C 
ATOM      2  O   UNL     1      -2.374   1.369  22.900  0.00  0.00    -0.471 OA
ENDBRANCH   3   2
ENDBRANCH   9   6
BRANCH  20  21
ATOM     21  N   UNL     1      -2.709   2.121  23.722  0.00  0.00    -0.171 NA
ATOM     22  C   UNL     1      -2.358   1.375  23.759  0.00  0.00    +0.290 C 
ATOM     23  O   UNL     1      -1.640   1.237  23.375  0.00  0.00    -0.269 OA
BRANCH  22  24
ATOM     24  C   UNL     1      -2.725   0.768  24.180  0.00  0.00    +0.291 C 
BRANCH  24  25
ATOM     25  O   UNL     1      -2.353   0.034  24.253  0.00  0.00    -0.466 OA
BRANCH  25  26
ATOM     26  C   UNL     1      -2.736  -0.586  24.639  0.00  0.00    +0.139 A 
ATOM     27  C   UNL     1      -3.207  -1.110  24.211  0.00  0.00    +0.037 A 
ATOM     28  C   UNL     1      -3.591  -1.730  24.597  0.00  0.00    +0.003 A 
ATOM     29  C   UNL     1      -3.503  -1.825  25.411  0.00  0.00    +0.000 A 
ATOM     30  C   UNL     1      -3.032  -1.301  25.840  0.00  0.00    +0.003 A 
ATOM     31  C   UNL     1      -2.649  -0.681  25.454  0.00  0.00    +0.037 A 
ENDBRANCH  25  26
ENDBRANCH  24  25
ENDBRANCH  22  24
ENDBRANCH  20  21
TORSDOF 6
ENDMDL
MODEL 4
REMARK VINA RESULT:     -12.9      1.643      3.845
REMARK  Name = 
REMARK  6 active torsions:
REMARK  status: ('A' for Active; 'I' for Inactive)
REMARK    1  A    between atoms: O_2  and  C_3
REMARK    2  A    between atoms: C_6  and  C_9
REMARK    3  A    between atoms: C_20  and  N_21
REMARK    4  A    between atoms: C_22  and  C_24
REMARK    5  A    between atoms: C_24  and  O_25
REMARK    6  A    between atoms: O_25  and  C_26
REMARK                            x       y       z     vdW  Elec       q    Type
REMARK                         _______ _______ _______ _____ _____    ______ ____
ROOT
ATOM      9  C   UNL     1      -2.181  -1.007  25.495  0.00  0.00    +0.249 C 
ATOM     10  O   UNL     1      -1.629  -1.073  26.104  0.00  0.00    -0.270 OA
ATOM     11  N   UNL     1      -2.660  -1.650  25.300  0.00  0.00    -0.276 N 
ATOM     12  C   UNL     1      -2.980  -2.421  25.332  0.00  0.00    +0.096 C 
ATOM     13  C   UNL     1      -3.645  -2.355  24.604  0.00  0.00    +0.043 C 
ATOM     14  C   UNL     1      -4.227  -2.462  24.045  0.00  0.00    +0.011 C 
ATOM     15  C   UNL     1      -3.795  -1.949  24.252  0.00  0.00    +0.058 C 
ATOM     16  C   UNL     1      -3.158  -2.029  24.959  0.00  0.00    +0.099 C 
ATOM     17  C   UNL     1      -3.572  -1.076  24.070  0.00  0.00    +0.041 A 
ATOM     18  C   UNL     1      -3.772  -0.456  23.564  0.00  0.00    +0.014 A 
ATOM     19  C   UNL     1      -3.383   0.268  23.626  0.00  0.00    +0.023 A 
ATOM     20  C   UNL     1      -2.793   0.373  24.194  0.00  0.00    +0.129 A 
ATOM     32  C   UNL     1      -2.593  -0.247  24.700  0.00  0.00    +0.276 A 
ATOM     33  O   UNL     1      -1.999   0.092  25.160  0.00  0.00    -0.266 OA
ATOM     34  N   UNL     1      -2.983  -0.972  24.638  0.00  0.00    -0.298 N 
ATOM     35  C   UNL     1      -3.405  -1.444  24.421  0.00  0.00    +0.110 C 
ENDROOT
BRANCH   9   6
ATOM      3  C   UNL     1      -2.359   1.368  24.005  0.00  0.00    +0.139 A 
ATOM      4  C   UNL     1      -1.898   0.604  23.878  0.00  0.00    +0.037 A 
ATOM      5  C   UNL     1      -1.839  -0.188  24.375  0.00  0.00    +0.008 A 
ATOM      6  C   UNL     1      -2.254  -0.297  25.079  0.00  0.00    +0.054 A 
ATOM      7  C   UNL     1      -2.741   0.301  25.369  0.00  0.00    +0.008 A 
ATOM      8  C   UNL     1      -2.814   1.011  24.954  0.00  0.00    +0.037 A 
BRANCH   3   2
ATOM      1  C   UNL     1      -2.092   2.447  23.106  0.00  0.00    +0.252 C 
ATOM      2  O   UNL     1      -2.539   2.121  23.719  0.00  0.00    -0.471 OA
ENDBRANCH   3   2
ENDBRANCH   9   6
BRANCH  20  21
ATOM     21  N   UNL     1      -2.405   1.098  24.255  0.00  0.00    -0.171 NA
ATOM     22  C   UNL     1      -2.827   1.776  24.459  0.00  0.00    +0.290 C 
ATOM     23  O   UNL     1      -2.437   2.502  24.521  0.00  0.00    -0.269 OA
BRANCH  22  24
ATOM     24  C   UNL     1      -3.638   1.731  24.602  0.00  0.00    +0.291 C 
BRANCH  24  25
ATOM     25  O   UNL     1      -4.081   2.422  24.691  0.00  0.00    -0.466 OA
BRANCH  25  26
ATOM     26  C   UNL     1      -4.831   2.389  25.032  0.00  0.00    +0.139 A 
ATOM     27  C   UNL     1      -5.464   2.076  24.607  0.00  0.00    +0.037 A 
ATOM     28  C   UNL     1      -6.215   2.044  24.948  0.00  0.00    +0.003 A 
ATOM     29  C   UNL     1      -6.332   2.325  25.714  0.00  0.00    +0.000 A 
ATOM     30  C   UNL     1      -5.698   2.638  26.140  0.00  0.00    +0.003 A 
ATOM     31  C   UNL     1      -4.948   2.670  25.799  0.00  0.00    +0.037 A 
ENDBRANCH  25  26
ENDBRANCH  24  25
ENDBRANCH  22  24
ENDBRANCH  20  21
TORSDOF 6
ENDMDL
MODEL 5
REMARK VINA RESULT:     -12.8      1.886      4.451
REMARK  Name = 
REMARK  6 active torsions:
REMARK  status: ('A' for Active; 'I' for Inactive)
REMARK    1  A    between atoms: O_2  and  C_3
REMARK    2  A    between atoms: C_6  and  C_9
REMARK    3  A    between atoms: C_20  and  N_21
REMARK    4  A    between atoms: C_22  and  C_24
REMARK    5  A    between atoms: C_24  and  O_25
REMARK    6  A    between atoms: O_25  and  C_26
REMARK                            x       y       z     vdW  Elec       q    Type
REMARK                         _______ _______ _______ _____ _____    ______ ____
ROOT
ATOM      9  C   UNL     1      -4.044  -1.346  23.687  0.00  0.00    +0.249 C 
ATOM     10  O   UNL     1      -4.287  -1.525  22.920  0.00  0.00    -0.270 OA
ATOM     11  N   UNL     1      -3.761  -1.944  24.180  0.00  0.00    -0.276 N 
ATOM     12  C   UNL     1      -3.536  -2.710  24.426  0.00  0.00    +0.096 C 
ATOM     13  C   UNL     1      -3.242  -2.509  25.348  0.00  0.00    +0.043 C 
ATOM     14  C   UNL     1      -2.968  -2.510  26.115  0.00  0.00    +0.011 C 
ATOM     15  C   UNL     1      -3.216  -2.043  25.653  0.00  0.00    +0.058 C 
ATOM     16  C   UNL     1      -3.497  -2.253  24.765  0.00  0.00    +0.099 C 
ATOM     17  C   UNL     1      -3.408  -1.149  25.565  0.00  0.00    +0.041 A 
ATOM     18  C   UNL     1      -3.381  -0.443  25.991  0.00  0.00    +0.014 A 
ATOM     19  C   UNL     1      -3.633   0.260  25.640  0.00  0.00    +0.023 A 
ATOM     20  C   UNL     1      -3.910   0.257  24.863  0.00  0.00    +0.129 A 
ATOM     32  C   UNL     1      -3.937  -0.448  24.437  0.00  0.00    +0.276 A 
ATOM     33  O   UNL     1      -4.240  -0.200  23.712  0.00  0.00    -0.266 OA
ATOM     34  N   UNL     1      -3.685  -1.151  24.788  0.00  0.00    -0.298 N 
ATOM     35  C   UNL     1      -3.445  -1.576  25.246  0.00  0.00    +0.110 C 
ENDROOT
BRANCH   9   6
ATOM      3  C   UNL     1      -4.278   1.274  24.674  0.00  0.00    +0.139 A 
ATOM      4  C   UNL     1      -4.800   0.544  24.758  0.00  0.00    +0.037 A 
ATOM      5  C   UNL     1      -4.722  -0.329  24.428  0.00  0.00    +0.008 A 
ATOM      6  C   UNL     1      -4.085  -0.568  23.962  0.00  0.00    +0.054 A 
ATOM      7  C   UNL     1      -3.488  -0.032  23.771  0.00  0.00    +0.008 A 
ATOM      8  C   UNL     1      -3.529   0.745  24.046  0.00  0.00    +0.037 A 
BRANCH   3   2
ATOM      1  C   UNL     1      -4.807   2.521  25.131  0.00  0.00    +0.252 C 
ATOM      2  O   UNL     1      -4.170   2.070  24.864  0.00  0.00    -0.471 OA
ENDBRANCH   3   2
ENDBRANCH   9   6
BRANCH  20  21
ATOM     21  N   UNL     1      -4.161   0.961  24.513  0.00  0.00    -0.171 NA
ATOM     22  C   UNL     1      -3.630   1.583  24.410  0.00  0.00    +0.290 C 
ATOM     23  O   UNL     1      -3.882   2.287  24.059  0.00  0.00    -0.269 OA
BRANCH  22  24
ATOM     24  C   UNL     1      -2.847   1.502  24.656  0.00  0.00    +0.291 C 
BRANCH  24  25
ATOM     25  O   UNL     1      -2.299   2.097  24.491  0.00  0.00    -0.466 OA
BRANCH  25  26
ATOM     26  C   UNL     1      -1.537   2.055  24.806  0.00  0.00    +0.139 A 
ATOM     27  C   UNL     1      -0.943   1.656  24.395  0.00  0.00    +0.037 A 
ATOM     28  C   UNL     1      -0.181   1.614  24.709  0.00  0.00    +0.003 A 
ATOM     29  C   UNL     1      -0.014   1.970  25.434  0.00  0.00    +0.000 A 
ATOM     30  C   UNL     1      -0.608   2.369  25.845  0.00  0.00    +0.003 A 
ATOM     31  C   UNL     1      -1.370   2.411  25.530  0.00  0.00    +0.037 A 
ENDBRANCH  25  26
ENDBRANCH  24  25
ENDBRANCH  22  24
ENDBRANCH  20  21
TORSDOF 6
ENDMDL
MODEL 6
REMARK VINA RESULT:     -12.8      1.846      2.960
REMARK  Name = 
REMARK  6 active torsions:
REMARK  status: ('A' for Active; 'I' for Inactive)
REMARK    1  A    between atoms: O_2  and  C_3
REMARK    2  A    between atoms: C_6  and  C_9
REMARK    3  A    between atoms: C_20  and  N_21
REMARK    4  A    between atoms: C_22  and  C_24
REMARK    5  A    between atoms: C_24  and  O_25
REMARK    6  A    between atoms: O_25  and  C_26
REMARK                            x       y       z     vdW  Elec       q    Type
REMARK                         _______ _______ _______ _____ _____    ______ ____
ROOT
ATOM      9  C   UNL     1      -2.767   3.773  25.829  0.00  0.00    +0.249 C 
ATOM     10  O   UNL     1      -2.860   4.225  26.512  0.00  0.00    -0.270 OA
ATOM     11  N   UNL     1      -2.042   3.768  25.433  0.00  0.00    -0.276 N 
ATOM     12  C   UNL     1      -1.245   3.952  25.265  0.00  0.00    +0.096 C 
ATOM     13  C   UNL     1      -1.120   3.415  24.446  0.00  0.00    +0.043 C 
ATOM     14  C   UNL     1      -0.859   3.035  23.774  0.00  0.00    +0.011 C 
ATOM     15  C   UNL     1      -1.450   3.077  24.149  0.00  0.00    +0.058 C 
ATOM     16  C   UNL     1      -1.556   3.602  24.941  0.00  0.00    +0.099 C 
ATOM     17  C   UNL     1      -2.314   2.763  24.172  0.00  0.00    +0.041 A 
ATOM     18  C   UNL     1      -2.826   2.270  23.755  0.00  0.00    +0.014 A 
ATOM     19  C   UNL     1      -3.601   2.162  24.019  0.00  0.00    +0.023 A 
ATOM     20  C   UNL     1      -3.862   2.549  24.700  0.00  0.00    +0.129 A 
ATOM     32  C   UNL     1      -3.349   3.042  25.117  0.00  0.00    +0.276 A 
ATOM     33  O   UNL     1      -3.826   3.302  25.737  0.00  0.00    -0.266 OA
ATOM     34  N   UNL     1      -2.575   3.149  24.853  0.00  0.00    -0.298 N 
ATOM     35  C   UNL     1      -2.023   3.092  24.477  0.00  0.00    +0.110 C 
ENDROOT
BRANCH   9   6
ATOM      3  C   UNL     1      -4.940   2.335  24.779  0.00  0.00    +0.139 A 
ATOM      4  C   UNL     1      -4.617   3.159  24.608  0.00  0.00    +0.037 A 
ATOM      5  C   UNL     1      -3.892   3.638  24.959  0.00  0.00    +0.008 A 
ATOM      6  C   UNL     1      -3.398   3.325  25.540  0.00  0.00    +0.054 A 
ATOM      7  C   UNL     1      -3.533   2.567  25.833  0.00  0.00    +0.008 A 
ATOM      8  C   UNL     1      -4.164   2.119  25.545  0.00  0.00    +0.037 A 
BRANCH   3   2
ATOM      1  C   UNL     1      -6.257   2.005  24.333  0.00  0.00    +0.252 C 
ATOM      2  O   UNL     1      -5.514   1.769  24.602  0.00  0.00    -0.471 OA
ENDBRANCH   3   2
ENDBRANCH   9   6
BRANCH  20  21
ATOM     21  N   UNL     1      -4.636   2.441  24.964  0.00  0.00    -0.171 NA
ATOM     22  C   UNL     1      -4.907   1.684  25.148  0.00  0.00    +0.290 C 
ATOM     23  O   UNL     1      -5.682   1.577  25.412  0.00  0.00    -0.269 OA
BRANCH  22  24
ATOM     24  C   UNL     1      -4.404   1.035  25.070  0.00  0.00    +0.291 C 
BRANCH  24  25
ATOM     25  O   UNL     1      -4.655   0.287  25.316  0.00  0.00    -0.466 OA
BRANCH  25  26
ATOM     26  C   UNL     1      -4.188  -0.375  25.161  0.00  0.00    +0.139 A 
ATOM     27  C   UNL     1      -4.269  -0.779  24.447  0.00  0.00    +0.037 A 
ATOM     28  C   UNL     1      -3.802  -1.442  24.292  0.00  0.00    +0.003 A 
ATOM     29  C   UNL     1      -3.255  -1.699  24.852  0.00  0.00    +0.000 A 
ATOM     30  C   UNL     1      -3.174  -1.296  25.567  0.00  0.00    +0.003 A 
ATOM     31  C   UNL     1      -3.640  -0.633  25.721  0.00  0.00    +0.037 A 
ENDBRANCH  25  26
ENDBRANCH  24  25
ENDBRANCH  22  24
ENDBRANCH  20  21
TORSDOF 6
ENDMDL
MODEL 7
REMARK VINA RESULT:     -12.5      1.681      4.134
REMARK  Name = 
REMARK  6 active torsions:
REMARK  status: ('A' for Active; 'I' for Inactive)
REMARK    1  A    between atoms: O_2  and  C_3
REMARK    2  A    between atoms: C_6  and  C_9
REMARK    3  A    between atoms: C_20  and  N_21
REMARK    4  A    between atoms: C_22  and  C_24
REMARK    5  A    between atoms: C_24  and  O_25
REMARK    6  A    between atoms: O_25  and  C_26
REMARK                            x       y       z     vdW  Elec       q    Type
REMARK                         _______ _______ _______ _____ _____    ______ ____
ROOT
ATOM      9  C   UNL     1      -4.003  -0.493  24.683  0.00  0.00    +0.249 C 
ATOM     10  O   UNL     1      -4.772  -0.776  24.591  0.00  0.00    -0.270 OA
ATOM     11  N   UNL     1      -3.501  -0.838  25.240  0.00  0.00    -0.276 N 
ATOM     12  C   UNL     1      -3.245  -1.357  25.843  0.00  0.00    +0.096 C 
ATOM     13  C   UNL     1      -2.321  -1.027  25.964  0.00  0.00    +0.043 C 
ATOM     14  C   UNL     1      -1.551  -0.877  26.182  0.00  0.00    +0.011 C 
ATOM     15  C   UNL     1      -2.020  -0.622  25.726  0.00  0.00    +0.058 C 
ATOM     16  C   UNL     1      -2.910  -0.952  25.621  0.00  0.00    +0.099 C 
ATOM     17  C   UNL     1      -2.119   0.022  25.078  0.00  0.00    +0.041 A 
ATOM     18  C   UNL     1      -1.700   0.628  24.707  0.00  0.00    +0.014 A 
ATOM     19  C   UNL     1      -2.061   1.079  24.118  0.00  0.00    +0.023 A 
ATOM     20  C   UNL     1      -2.842   0.924  23.900  0.00  0.00    +0.129 A 
ATOM     32  C   UNL     1      -3.261   0.318  24.271  0.00  0.00    +0.276 A 
ATOM     33  O   UNL     1      -3.993   0.359  23.892  0.00  0.00    -0.266 OA
ATOM     34  N   UNL     1      -2.900  -0.133  24.860  0.00  0.00    -0.298 N 
ATOM     35  C   UNL     1      -2.434  -0.357  25.285  0.00  0.00    +0.110 C 
ENDROOT
BRANCH   9   6
ATOM      3  C   UNL     1      -3.048   1.573  23.038  0.00  0.00    +0.139 A 
ATOM      4  C   UNL     1      -2.978   0.676  22.989  0.00  0.00    +0.037 A 
ATOM      5  C   UNL     1      -3.297  -0.012  23.538  0.00  0.00    +0.008 A 
ATOM      6  C   UNL     1      -3.736   0.136  24.220  0.00  0.00    +0.054 A 
ATOM      7  C   UNL     1      -3.910   0.912  24.440  0.00  0.00    +0.008 A 
ATOM      8  C   UNL     1      -3.643   1.541  23.976  0.00  0.00    +0.037 A 
BRANCH   3   2
ATOM      1  C   UNL     1      -2.588   2.329  21.915  0.00  0.00    +0.252 C 
ATOM      2  O   UNL     1      -2.861   2.299  22.693  0.00  0.00    -0.471 OA
ENDBRANCH   3   2
ENDBRANCH   9   6
BRANCH  20  21
ATOM     21  N   UNL     1      -3.202   1.375  23.311  0.00  0.00    -0.171 NA
ATOM     22  C   UNL     1      -3.311   2.185  23.421  0.00  0.00    +0.290 C 
ATOM     23  O   UNL     1      -3.672   2.637  22.831  0.00  0.00    -0.269 OA
BRANCH  22  24
ATOM     24  C   UNL     1      -3.060   2.545  24.120  0.00  0.00    +0.291 C 
BRANCH  24  25
ATOM     25  O   UNL     1      -3.212   3.346  24.249  0.00  0.00    -0.466 OA
BRANCH  25  26
ATOM     26  C   UNL     1      -2.934   3.713  24.934  0.00  0.00    +0.139 A 
ATOM     27  C   UNL     1      -2.188   4.064  24.939  0.00  0.00    +0.037 A 
ATOM     28  C   UNL     1      -1.910   4.431  25.624  0.00  0.00    +0.003 A 
ATOM     29  C   UNL     1      -2.378   4.446  26.303  0.00  0.00    +0.000 A 
ATOM     30  C   UNL     1      -3.124   4.094  26.297  0.00  0.00    +0.003 A 
ATOM     31  C   UNL     1      -3.402   3.727  25.612  0.00  0.00    +0.037 A 
ENDBRANCH  25  26
ENDBRANCH  24  25
ENDBRANCH  22  24
ENDBRANCH  20  21
TORSDOF 6
ENDMDL
