MODEL 1
REMARK VINA RESULT:     -12.5      0.000      0.000
REMARK  Name = 
REMARK  7 active torsions:
REMARK  status: ('A' for Active; 'I' for Inactive)
REMARK    1  A    between atoms: C_2  and  N_3
REMARK    2  A    between atoms: C_2  and  C_29
REMARK    3  A    between atoms: C_4  and  C_6
REMARK    4  A    between atoms: C_13  and  N_15
REMARK    5  A    between atoms: N_15  and  S_16
REMARK    6  A    between atoms: S_16  and  C_19
REMARK    7  A    between atoms: C_21  and  C_25
REMARK                            x       y       z     vdW  Elec       q    Type
REMARK                         _______ _______ _______ _____ _____    ______ ____
ROOT
ATOM      6  C   UNL     1      -2.672   2.337  24.753  0.00  0.00    +0.200 C 
ATOM      7  O   UNL     1      -2.117   1.854  24.379  0.00  0.00    -0.216 OA
ATOM      8  C   UNL     1      -2.991   2.979  25.162  0.00  0.00    +0.075 C 
ATOM      9  C   UNL     1      -3.797   2.996  25.339  0.00  0.00    +0.187 C 
ATOM     10  O   UNL     1      -4.115   3.637  25.748  0.00  0.00    -0.220 OA
ATOM     11  C   UNL     1      -4.283   2.371  25.108  0.00  0.00    +0.200 C 
ATOM     12  O   UNL     1      -5.089   2.388  25.285  0.00  0.00    -0.219 OA
ATOM     13  C   UNL     1      -3.964   1.729  24.699  0.00  0.00    +0.133 C 
ATOM     14  C   UNL     1      -3.159   1.712  24.521  0.00  0.00    +0.062 C 
ENDROOT
BRANCH   6   4
ATOM      3  N   UNL     1      -1.370   2.511  25.315  0.00  0.00    -0.196 NA
ATOM      4  C   UNL     1      -1.993   2.794  24.854  0.00  0.00    +0.269 C 
ATOM      5  O   UNL     1      -1.937   3.534  24.495  0.00  0.00    -0.271 OA
BRANCH   3   2
ATOM      1  C   UNL     1      -0.682   3.754  25.168  0.00  0.00    +0.033 C 
ATOM      2  C   UNL     1      -0.691   2.967  25.417  0.00  0.00    +0.175 C 
BRANCH   2  29
ATOM     29  C   UNL     1      -0.020   2.639  25.767  0.00  0.00    +0.281 C 
ATOM     30  N   UNL     1       0.059   2.639  26.588  0.00  0.00    -0.086 NA
ATOM     31  O   UNL     1       0.572   2.309  25.296  0.00  0.00    -0.270 OA
ENDBRANCH   2  29
ENDBRANCH   3   2
ENDBRANCH   6   4
BRANCH  13  15
ATOM     15  N   UNL     1      -4.451   1.105  24.467  0.00  0.00    -0.076 NA
BRANCH  15  16
ATOM     16  S   UNL     1      -4.237   0.329  24.645  0.00  0.00    +0.077 S 
ATOM     17  O   UNL     1      -4.566   0.409  25.396  0.00  0.00    -0.152 OA
ATOM     18  O   UNL     1      -3.907   0.247  23.892  0.00  0.00    -0.152 OA
BRANCH  16  19
ATOM     19  C   UNL     1      -4.023  -0.449  24.822  0.00  0.00    +0.124 A 
ATOM     20  C   UNL     1      -4.142  -1.046  24.264  0.00  0.00    +0.024 A 
ATOM     21  C   UNL     1      -3.928  -1.823  24.441  0.00  0.00    +0.073 A 
ATOM     22  C   UNL     1      -3.595  -2.003  25.174  0.00  0.00    +0.004 A 
ATOM     23  C   UNL     1      -3.476  -1.406  25.730  0.00  0.00    +0.001 A 
ATOM     24  C   UNL     1      -3.690  -0.629  25.554  0.00  0.00    +0.020 A 
BRANCH  21  25
ATOM     25  C   UNL     1      -4.047  -2.420  23.884  0.00  0.00    +0.419 C 
ATOM     26  F   UNL     1      -4.167  -3.017  23.327  0.00  0.00    -0.166 F 
ATOM     27  F   UNL     1      -3.232  -2.539  23.836  0.00  0.00    -0.166 F 
ATOM     28  F   UNL     1      -4.862  -2.301  23.932  0.00  0.00    -0.166 F 
ENDBRANCH  21  25
ENDBRANCH  16  19
ENDBRANCH  15  16
ENDBRANCH  13  15
TORSDOF 7
ENDMDL
MODEL 2
REMARK VINA RESULT:     -12.3      3.019      4.947
REMARK  Name = 
REMARK  7 active torsions:
REMARK  status: ('A' for Active; 'I' for Inactive)
REMARK    1  A    between atoms: C_2  and  N_3
REMARK    2  A    between atoms: C_2  and  C_29
REMARK    3  A    between atoms: C_4  and  C_6
REMARK    4  A    between atoms: C_13  and  N_15
REMARK    5  A    between atoms: N_15  and  S_16
REMARK    6  A    between atoms: S_16  and  C_19
REMARK    7  A    between atoms: C_21  and  C_25
REMARK                            x       y       z     vdW  Elec       q    Type
REMARK                         _______ _______ _______ _____ _____    ______ ____
ROOT
ATOM      6  C   UNL     1      -4.216   1.175  24.638  0.00  0.00    +0.200 C 
ATOM      7  O   UNL     1      -3.545   1.017  24.185  0.00  0.00    -0.216 OA
ATOM      8  C   UNL     1      -4.911   1.050  25.064  0.00  0.00    +0.075 C 
ATOM      9  C   UNL     1      -5.305   1.688  25.410  0.00  0.00    +0.187 C 
ATOM     10  O   UNL     1      -5.999   1.562  25.836  0.00  0.00    -0.220 OA
ATOM     11  C   UNL     1      -5.003   2.452  25.328  0.00  0.00    +0.200 C 
ATOM     12  O   UNL     1      -5.396   3.089  25.673  0.00  0.00    -0.219 OA
ATOM     13  C   UNL     1      -4.308   2.577  24.902  0.00  0.00    +0.133 C 
ATOM     14  C   UNL     1      -3.915   1.940  24.557  0.00  0.00    +0.062 C 
ENDROOT
BRANCH   6   4
ATOM      3  N   UNL     1      -3.718  -0.138  24.901  0.00  0.00    -0.196 NA
ATOM      4  C   UNL     1      -4.284   0.357  24.562  0.00  0.00    +0.269 C 
ATOM      5  O   UNL     1      -4.920   0.033  24.148  0.00  0.00    -0.271 OA
BRANCH   3   2
ATOM      1  C   UNL     1      -4.277  -1.277  24.245  0.00  0.00    +0.033 C 
ATOM      2  C   UNL     1      -3.786  -0.956  24.826  0.00  0.00    +0.175 C 
BRANCH   2  29
ATOM     29  C   UNL     1      -3.365  -1.455  25.331  0.00  0.00    +0.281 C 
ATOM     30  N   UNL     1      -2.750  -1.917  25.035  0.00  0.00    -0.086 NA
ATOM     31  O   UNL     1      -3.560  -1.490  26.132  0.00  0.00    -0.270 OA
ENDBRANCH   2  29
ENDBRANCH   3   2
ENDBRANCH   6   4
BRANCH  13  15
ATOM     15  N   UNL     1      -4.007   3.340  24.820  0.00  0.00    -0.076 NA
BRANCH  15  16
ATOM     16  S   UNL     1      -3.221   3.496  25.016  0.00  0.00    +0.077 S 
ATOM     17  O   UNL     1      -3.431   3.556  25.811  0.00  0.00    -0.152 OA
ATOM     18  O   UNL     1      -3.010   3.436  24.220  0.00  0.00    -0.152 OA
BRANCH  16  19
ATOM     19  C   UNL     1      -2.434   3.652  25.212  0.00  0.00    +0.124 A 
ATOM     20  C   UNL     1      -2.078   4.354  24.962  0.00  0.00    +0.024 A 
ATOM     21  C   UNL     1      -1.292   4.510  25.158  0.00  0.00    +0.073 A 
ATOM     22  C   UNL     1      -0.862   3.965  25.603  0.00  0.00    +0.004 A 
ATOM     23  C   UNL     1      -1.218   3.264  25.854  0.00  0.00    +0.001 A 
ATOM     24  C   UNL     1      -2.004   3.108  25.658  0.00  0.00    +0.020 A 
BRANCH  21  25
ATOM     25  C   UNL     1      -0.937   5.211  24.907  0.00  0.00    +0.419 C 
ATOM     26  F   UNL     1      -0.582   5.912  24.656  0.00  0.00    -0.166 F 
ATOM     27  F   UNL     1      -0.455   4.783  24.391  0.00  0.00    -0.166 F 
ATOM     28  F   UNL     1      -1.418   5.638  25.423  0.00  0.00    -0.166 F 
ENDBRANCH  21  25
ENDBRANCH  16  19
ENDBRANCH  15  16
ENDBRANCH  13  15
TORSDOF 7
ENDMDL
MODEL 3
REMARK VINA RESULT:     -11.9      2.847      5.241
REMARK  Name = 
REMARK  7 active torsions:
REMARK  status: ('A' for Active; 'I' for Inactive)
REMARK    1  A    between atoms: C_2  and  N_3
REMARK    2  A    between atoms: C_2  and  C_29
REMARK    3  A    between atoms: C_4  and  C_6
REMARK    4  A    between atoms: C_13  and  N_15
REMARK    5  A    between atoms: N_15  and  S_16
REMARK    6  A    between atoms: S_16  and  C_19
REMARK    7  A    between atoms: C_21  and  C_25
REMARK                            x       y       z     vdW  Elec       q    Type
REMARK                         _______ _______ _______ _____ _____    ______ ____
ROOT
ATOM      6  C   UNL     1      -1.415   0.278  25.157  0.00  0.00    +0.200 C 
ATOM      7  O   UNL     1      -1.923   0.435  25.788  0.00  0.00    -0.216 OA
ATOM      8  C   UNL     1      -1.079  -0.106  24.509  0.00  0.00    +0.075 C 
ATOM      9  C   UNL     1      -0.423   0.220  24.129  0.00  0.00    +0.187 C 
ATOM     10  O   UNL     1      -0.088  -0.165  23.482  0.00  0.00    -0.220 OA
ATOM     11  C   UNL     1      -0.103   0.932  24.398  0.00  0.00    +0.200 C 
ATOM     12  O   UNL     1       0.553   1.258  24.019  0.00  0.00    -0.219 OA
ATOM     13  C   UNL     1      -0.438   1.316  25.046  0.00  0.00    +0.133 C 
ATOM     14  C   UNL     1      -1.094   0.990  25.426  0.00  0.00    +0.062 C 
ENDROOT
BRANCH   6   4
ATOM      3  N   UNL     1      -2.703  -0.283  24.895  0.00  0.00    -0.196 NA
ATOM      4  C   UNL     1      -1.911  -0.378  25.108  0.00  0.00    +0.269 C 
ATOM      5  O   UNL     1      -1.616  -1.131  25.270  0.00  0.00    -0.271 OA
BRANCH   3   2
ATOM      1  C   UNL     1      -3.014  -1.628  25.261  0.00  0.00    +0.033 C 
ATOM      2  C   UNL     1      -3.199  -0.939  24.846  0.00  0.00    +0.175 C 
BRANCH   2  29
ATOM     29  C   UNL     1      -3.881  -0.908  24.382  0.00  0.00    +0.281 C 
ATOM     30  N   UNL     1      -4.067  -1.534  23.879  0.00  0.00    -0.086 NA
ATOM     31  O   UNL     1      -4.376  -0.249  24.421  0.00  0.00    -0.270 OA
ENDBRANCH   2  29
ENDBRANCH   3   2
ENDBRANCH   6   4
BRANCH  13  15
ATOM     15  N   UNL     1      -0.118   2.027  25.315  0.00  0.00    -0.076 NA
BRANCH  15  16
ATOM     16  S   UNL     1      -0.581   2.710  25.323  0.00  0.00    +0.077 S 
ATOM     17  O   UNL     1      -0.542   2.746  24.500  0.00  0.00    -0.152 OA
ATOM     18  O   UNL     1      -0.619   2.674  26.147  0.00  0.00    -0.152 OA
BRANCH  16  19
ATOM     19  C   UNL     1      -1.044   3.394  25.332  0.00  0.00    +0.124 A 
ATOM     20  C   UNL     1      -1.819   3.363  25.613  0.00  0.00    +0.024 A 
ATOM     21  C   UNL     1      -2.281   4.046  25.622  0.00  0.00    +0.073 A 
ATOM     22  C   UNL     1      -1.969   4.759  25.351  0.00  0.00    +0.004 A 
ATOM     23  C   UNL     1      -1.194   4.790  25.071  0.00  0.00    +0.001 A 
ATOM     24  C   UNL     1      -0.731   4.107  25.061  0.00  0.00    +0.020 A 
BRANCH  21  25
ATOM     25  C   UNL     1      -3.057   4.014  25.902  0.00  0.00    +0.419 C 
ATOM     26  F   UNL     1      -3.832   3.983  26.183  0.00  0.00    -0.166 F 
ATOM     27  F   UNL     1      -3.310   3.728  25.171  0.00  0.00    -0.166 F 
ATOM     28  F   UNL     1      -2.804   4.301  26.633  0.00  0.00    -0.166 F 
ENDBRANCH  21  25
ENDBRANCH  16  19
ENDBRANCH  15  16
ENDBRANCH  13  15
TORSDOF 7
ENDMDL
MODEL 4
REMARK VINA RESULT:     -11.8      2.043      3.055
REMARK  Name = 
REMARK  7 active torsions:
REMARK  status: ('A' for Active; 'I' for Inactive)
REMARK    1  A    between atoms: C_2  and  N_3
REMARK    2  A    between atoms: C_2  and  C_29
REMARK    3  A    between atoms: C_4  and  C_6
REMARK    4  A    between atoms: C_13  and  N_15
REMARK    5  A    between atoms: N_15  and  S_16
REMARK    6  A    between atoms: S_16  and  C_19
REMARK    7  A    between atoms: C_21  and  C_25
REMARK                            x       y       z     vdW  Elec       q    Type
REMARK                         _______ _______ _______ _____ _____    ______ ____
ROOT
ATOM      6  C   UNL     1      -0.796   0.985  25.216  0.00  0.00    +0.200 C 
ATOM      7  O   UNL     1      -1.288   1.002  25.877  0.00  0.00    -0.216 OA
ATOM      8  C   UNL     1      -0.312   1.250  24.603  0.00  0.00    +0.075 C 
ATOM      9  C   UNL     1       0.026   0.708  24.079  0.00  0.00    +0.187 C 
ATOM     10  O   UNL     1       0.510   0.974  23.467  0.00  0.00    -0.220 OA
ATOM     11  C   UNL     1      -0.122  -0.099  24.169  0.00  0.00    +0.200 C 
ATOM     12  O   UNL     1       0.215  -0.640  23.646  0.00  0.00    -0.219 OA
ATOM     13  C   UNL     1      -0.606  -0.364  24.782  0.00  0.00    +0.133 C 
ATOM     14  C   UNL     1      -0.943   0.177  25.305  0.00  0.00    +0.062 C 
ENDROOT
BRANCH   6   4
ATOM      3  N   UNL     1      -1.511   2.222  25.207  0.00  0.00    -0.196 NA
ATOM      4  C   UNL     1      -0.819   1.797  25.356  0.00  0.00    +0.269 C 
ATOM      5  O   UNL     1      -0.151   2.185  25.644  0.00  0.00    -0.271 OA
BRANCH   3   2
ATOM      1  C   UNL     1      -0.857   3.428  25.605  0.00  0.00    +0.033 C 
ATOM      2  C   UNL     1      -1.534   3.034  25.347  0.00  0.00    +0.175 C 
BRANCH   2  29
ATOM     29  C   UNL     1      -2.235   3.454  25.230  0.00  0.00    +0.281 C 
ATOM     30  N   UNL     1      -2.595   3.841  25.862  0.00  0.00    -0.086 NA
ATOM     31  O   UNL     1      -2.576   3.485  24.479  0.00  0.00    -0.270 OA
ENDBRANCH   2  29
ENDBRANCH   3   2
ENDBRANCH   6   4
BRANCH  13  15
ATOM     15  N   UNL     1      -0.753  -1.170  24.871  0.00  0.00    -0.076 NA
BRANCH  15  16
ATOM     16  S   UNL     1      -1.519  -1.462  24.774  0.00  0.00    +0.077 S 
ATOM     17  O   UNL     1      -1.407  -1.484  23.958  0.00  0.00    -0.152 OA
ATOM     18  O   UNL     1      -1.630  -1.442  25.592  0.00  0.00    -0.152 OA
BRANCH  16  19
ATOM     19  C   UNL     1      -2.285  -1.755  24.678  0.00  0.00    +0.124 A 
ATOM     20  C   UNL     1      -2.904  -1.239  24.502  0.00  0.00    +0.024 A 
ATOM     21  C   UNL     1      -3.669  -1.531  24.406  0.00  0.00    +0.073 A 
ATOM     22  C   UNL     1      -3.815  -2.339  24.485  0.00  0.00    +0.004 A 
ATOM     23  C   UNL     1      -3.196  -2.855  24.661  0.00  0.00    +0.001 A 
ATOM     24  C   UNL     1      -2.431  -2.563  24.757  0.00  0.00    +0.020 A 
BRANCH  21  25
ATOM     25  C   UNL     1      -4.289  -1.015  24.230  0.00  0.00    +0.419 C 
ATOM     26  F   UNL     1      -4.907  -0.499  24.053  0.00  0.00    -0.166 F 
ATOM     27  F   UNL     1      -4.337  -0.802  25.026  0.00  0.00    -0.166 F 
ATOM     28  F   UNL     1      -4.239  -1.228  23.434  0.00  0.00    -0.166 F 
ENDBRANCH  21  25
ENDBRANCH  16  19
ENDBRANCH  15  16
ENDBRANCH  13  15
TORSDOF 7
ENDMDL
MODEL 5
REMARK VINA RESULT:     -11.6      1.381      2.726
REMARK  Name = 
REMARK  7 active torsions:
REMARK  status: ('A' for Active; 'I' for Inactive)
REMARK    1  A    between atoms: C_2  and  N_3
REMARK    2  A    between atoms: C_2  and  C_29
REMARK    3  A    between atoms: C_4  and  C_6
REMARK    4  A    between atoms: C_13  and  N_15
REMARK    5  A    between atoms: N_15  and  S_16
REMARK    6  A    between atoms: S_16  and  C_19
REMARK    7  A    between atoms: C_21  and  C_25
REMARK                            x       y       z     vdW  Elec       q    Type
REMARK                         _______ _______ _______ _____ _____    ______ ____
ROOT
ATOM      6  C   UNL     1      -3.006   2.209  24.719  0.00  0.00    +0.200 C 
ATOM      7  O   UNL     1      -3.673   1.938  24.318  0.00  0.00    -0.216 OA
ATOM      8  C   UNL     1      -2.504   2.713  25.137  0.00  0.00    +0.075 C 
ATOM      9  C   UNL     1      -1.755   2.452  25.369  0.00  0.00    +0.187 C 
ATOM     10  O   UNL     1      -1.254   2.956  25.786  0.00  0.00    -0.220 OA
ATOM     11  C   UNL     1      -1.510   1.686  25.182  0.00  0.00    +0.200 C 
ATOM     12  O   UNL     1      -0.763   1.425  25.414  0.00  0.00    -0.219 OA
ATOM     13  C   UNL     1      -2.012   1.182  24.765  0.00  0.00    +0.133 C 
ATOM     14  C   UNL     1      -2.759   1.443  24.533  0.00  0.00    +0.062 C 
ENDROOT
BRANCH   6   4
ATOM      3  N   UNL     1      -4.167   2.869  25.227  0.00  0.00    -0.196 NA
ATOM      4  C   UNL     1      -3.483   2.880  24.766  0.00  0.00    +0.269 C 
ATOM      5  O   UNL     1      -3.276   3.563  24.352  0.00  0.00    -0.271 OA
BRANCH   3   2
ATOM      1  C   UNL     1      -4.440   4.220  24.855  0.00  0.00    +0.033 C 
ATOM      2  C   UNL     1      -4.644   3.539  25.274  0.00  0.00    +0.175 C 
BRANCH   2  29
ATOM     29  C   UNL     1      -5.325   3.531  25.739  0.00  0.00    +0.281 C 
ATOM     30  N   UNL     1      -5.868   4.149  25.689  0.00  0.00    -0.086 NA
ATOM     31  O   UNL     1      -5.463   2.902  26.256  0.00  0.00    -0.270 OA
ENDBRANCH   2  29
ENDBRANCH   3   2
ENDBRANCH   6   4
BRANCH  13  15
ATOM     15  N   UNL     1      -1.766   0.418  24.578  0.00  0.00    -0.076 NA
BRANCH  15  16
ATOM     16  S   UNL     1      -2.243  -0.227  24.772  0.00  0.00    +0.077 S 
ATOM     17  O   UNL     1      -2.556  -0.225  24.009  0.00  0.00    -0.152 OA
ATOM     18  O   UNL     1      -1.930  -0.229  25.536  0.00  0.00    -0.152 OA
BRANCH  16  19
ATOM     19  C   UNL     1      -2.721  -0.872  24.967  0.00  0.00    +0.124 A 
ATOM     20  C   UNL     1      -3.152  -1.258  24.378  0.00  0.00    +0.024 A 
ATOM     21  C   UNL     1      -3.629  -1.902  24.573  0.00  0.00    +0.073 A 
ATOM     22  C   UNL     1      -3.674  -2.161  25.355  0.00  0.00    +0.004 A 
ATOM     23  C   UNL     1      -3.242  -1.776  25.942  0.00  0.00    +0.001 A 
ATOM     24  C   UNL     1      -2.766  -1.131  25.748  0.00  0.00    +0.020 A 
BRANCH  21  25
ATOM     25  C   UNL     1      -4.061  -2.288  23.985  0.00  0.00    +0.419 C 
ATOM     26  F   UNL     1      -4.491  -2.673  23.396  0.00  0.00    -0.166 F 
ATOM     27  F   UNL     1      -4.634  -1.695  24.017  0.00  0.00    -0.166 F 
ATOM     28  F   UNL     1      -3.487  -2.880  23.952  0.00  0.00    -0.166 F 
ENDBRANCH  21  25
ENDBRANCH  16  19
ENDBRANCH  15  16
ENDBRANCH  13  15
TORSDOF 7
ENDMDL
MODEL 6
REMARK VINA RESULT:     -11.5      2.391      3.816
REMARK  Name = 
REMARK  7 active torsions:
REMARK  status: ('A' for Active; 'I' for Inactive)
REMARK    1  A    between atoms: C_2  and  N_3
REMARK    2  A    between atoms: C_2  and  C_29
REMARK    3  A    between atoms: C_4  and  C_6
REMARK    4  A    between atoms: C_13  and  N_15
REMARK    5  A    between atoms: N_15  and  S_16
REMARK    6  A    between atoms: S_16  and  C_19
REMARK    7  A    between atoms: C_21  and  C_25
REMARK                            x       y       z     vdW  Elec       q    Type
REMARK                         _______ _______ _______ _____ _____    ______ ____
ROOT
ATOM      6  C   UNL     1      -0.997   1.547  24.376  0.00  0.00    +0.200 C 
ATOM      7  O   UNL     1      -1.505   1.217  23.817  0.00  0.00    -0.216 OA
ATOM      8  C   UNL     1      -0.358   1.626  24.892  0.00  0.00    +0.075 C 
ATOM      9  C   UNL     1      -0.271   2.314  25.340  0.00  0.00    +0.187 C 
ATOM     10  O   UNL     1       0.367   2.393  25.855  0.00  0.00    -0.220 OA
ATOM     11  C   UNL     1      -0.825   2.923  25.272  0.00  0.00    +0.200 C 
ATOM     12  O   UNL     1      -0.739   3.610  25.720  0.00  0.00    -0.219 OA
ATOM     13  C   UNL     1      -1.464   2.843  24.757  0.00  0.00    +0.133 C 
ATOM     14  C   UNL     1      -1.550   2.156  24.309  0.00  0.00    +0.062 C 
ENDROOT
BRANCH   6   4
ATOM      3  N   UNL     1      -0.953   0.128  24.541  0.00  0.00    -0.196 NA
ATOM      4  C   UNL     1      -0.620   0.824  24.250  0.00  0.00    +0.269 C 
ATOM      5  O   UNL     1       0.090   0.797  23.831  0.00  0.00    -0.271 OA
BRANCH   3   2
ATOM      1  C   UNL     1       0.039  -0.648  23.868  0.00  0.00    +0.033 C 
ATOM      2  C   UNL     1      -0.577  -0.594  24.415  0.00  0.00    +0.175 C 
BRANCH   2  29
ATOM     29  C   UNL     1      -0.815  -1.264  24.834  0.00  0.00    +0.281 C 
ATOM     30  N   UNL     1      -1.378  -1.774  24.513  0.00  0.00    -0.086 NA
ATOM     31  O   UNL     1      -0.490  -1.422  25.576  0.00  0.00    -0.270 OA
ENDBRANCH   2  29
ENDBRANCH   3   2
ENDBRANCH   6   4
BRANCH  13  15
ATOM     15  N   UNL     1      -2.017   3.451  24.689  0.00  0.00    -0.076 NA
BRANCH  15  16
ATOM     16  S   UNL     1      -2.805   3.316  24.890  0.00  0.00    +0.077 S 
ATOM     17  O   UNL     1      -3.008   3.305  24.091  0.00  0.00    -0.152 OA
ATOM     18  O   UNL     1      -2.602   3.326  25.691  0.00  0.00    -0.152 OA
BRANCH  16  19
ATOM     19  C   UNL     1      -3.594   3.180  25.093  0.00  0.00    +0.124 A 
ATOM     20  C   UNL     1      -3.953   2.464  24.894  0.00  0.00    +0.024 A 
ATOM     21  C   UNL     1      -4.742   2.329  25.096  0.00  0.00    +0.073 A 
ATOM     22  C   UNL     1      -5.170   2.908  25.497  0.00  0.00    +0.004 A 
ATOM     23  C   UNL     1      -4.810   3.623  25.696  0.00  0.00    +0.001 A 
ATOM     24  C   UNL     1      -4.022   3.759  25.494  0.00  0.00    +0.020 A 
BRANCH  21  25
ATOM     25  C   UNL     1      -5.101   1.613  24.897  0.00  0.00    +0.419 C 
ATOM     26  F   UNL     1      -5.460   0.898  24.697  0.00  0.00    -0.166 F 
ATOM     27  F   UNL     1      -4.666   1.231  25.485  0.00  0.00    -0.166 F 
ATOM     28  F   UNL     1      -5.535   1.995  24.309  0.00  0.00    -0.166 F 
ENDBRANCH  21  25
ENDBRANCH  16  19
ENDBRANCH  15  16
ENDBRANCH  13  15
TORSDOF 7
ENDMDL
