MODEL 1
REMARK VINA RESULT:      -9.2      0.000      0.000
REMARK  Name = 
REMARK  5 active torsions:
REMARK  status: ('A' for Active; 'I' for Inactive)
REMARK    1  A    between atoms: O_2  and  C_3
REMARK    2  A    between atoms: C_6  and  C_9
REMARK    3  A    between atoms: C_17  and  N_25
REMARK    4  A    between atoms: C_26  and  C_28
REMARK    5  A    between atoms: C_28  and  S_29
REMARK                            x       y       z     vdW  Elec       q    Type
REMARK                         _______ _______ _______ _____ _____    ______ ____
ROOT
ATOM      9  C   UNL     1      -2.831   2.085  24.672  0.00  0.00    +0.000 A 
ATOM     10  C   UNL     1      -2.426   2.754  24.933  0.00  0.00    +0.001 A 
ATOM     11  C   UNL     1      -1.607   2.799  24.849  0.00  0.00    +0.017 A 
ATOM     12  C   UNL     1      -1.193   2.176  24.503  0.00  0.00    +0.078 A 
ATOM     13  N   UNL     1      -0.383   2.332  24.472  0.00  0.00    -0.178 NA
ATOM     14  C   UNL     1       0.221   1.858  24.172  0.00  0.00    +0.265 C 
ATOM     15  O   UNL     1       0.982   2.173  24.221  0.00  0.00    -0.271 OA
ATOM     16  C   UNL     1       0.165   1.109  23.828  0.00  0.00    +0.174 C 
ATOM     17  C   UNL     1       0.817   0.689  23.547  0.00  0.00    +0.124 C 
ATOM     18  C   UNL     1       0.546  -0.029  23.246  0.00  0.00    +0.045 C 
ATOM     19  C   UNL     1      -0.273  -0.053  23.341  0.00  0.00    +0.096 C 
ATOM     20  N   UNL     1      -0.509   0.651  23.701  0.00  0.00    -0.268 N 
ATOM     21  C   UNL     1      -1.293   0.828  23.885  0.00  0.00    +0.251 C 
ATOM     22  O   UNL     1      -1.846   0.249  23.685  0.00  0.00    -0.270 OA
ATOM     23  C   UNL     1      -1.597   1.506  24.242  0.00  0.00    +0.069 A 
ATOM     24  C   UNL     1      -2.416   1.461  24.326  0.00  0.00    +0.006 A 
ENDROOT
BRANCH   9   6
ATOM      3  C   UNL     1      -5.290   1.947  24.924  0.00  0.00    +0.139 A 
ATOM      4  C   UNL     1      -4.949   2.596  24.546  0.00  0.00    +0.037 A 
ATOM      5  C   UNL     1      -4.130   2.642  24.462  0.00  0.00    +0.003 A 
ATOM      6  C   UNL     1      -3.651   2.039  24.756  0.00  0.00    +0.000 A 
ATOM      7  C   UNL     1      -3.991   1.390  25.135  0.00  0.00    +0.003 A 
ATOM      8  C   UNL     1      -4.810   1.344  25.219  0.00  0.00    +0.037 A 
BRANCH   3   2
ATOM      1  C   UNL     1      -6.447   1.894  25.761  0.00  0.00    +0.252 C 
ATOM      2  O   UNL     1      -6.109   1.901  25.008  0.00  0.00    -0.471 OA
ENDBRANCH   3   2
ENDBRANCH   9   6
BRANCH  17  25
ATOM     25  N   UNL     1       1.602   0.943  23.565  0.00  0.00    -0.204 NA
ATOM     26  C   UNL     1       2.164   0.578  23.083  0.00  0.00    +0.252 C 
ATOM     27  O   UNL     1       1.941  -0.040  22.583  0.00  0.00    -0.272 OA
BRANCH  26  28
ATOM     28  C   UNL     1       2.949   0.832  23.100  0.00  0.00    +0.144 C 
BRANCH  28  29
ATOM     29  S   UNL     1       3.517   0.447  22.641  0.00  0.00    -0.130 S 
ATOM     30  C   UNL     1       4.315   0.631  22.733  0.00  0.00    +0.070 C 
ENDBRANCH  28  29
ENDBRANCH  26  28
ENDBRANCH  17  25
TORSDOF 5
ENDMDL
MODEL 2
REMARK VINA RESULT:      -8.5      2.297      6.095
REMARK  Name = 
REMARK  5 active torsions:
REMARK  status: ('A' for Active; 'I' for Inactive)
REMARK    1  A    between atoms: O_2  and  C_3
REMARK    2  A    between atoms: C_6  and  C_9
REMARK    3  A    between atoms: C_17  and  N_25
REMARK    4  A    between atoms: C_26  and  C_28
REMARK    5  A    between atoms: C_28  and  S_29
REMARK                            x       y       z     vdW  Elec       q    Type
REMARK                         _______ _______ _______ _____ _____    ______ ____
ROOT
ATOM      9  C   UNL     1       0.138   0.237  23.641  0.00  0.00    +0.000 A 
ATOM     10  C   UNL     1      -0.073  -0.383  24.142  0.00  0.00    +0.001 A 
ATOM     11  C   UNL     1      -0.826  -0.404  24.478  0.00  0.00    +0.017 A 
ATOM     12  C   UNL     1      -1.368   0.195  24.313  0.00  0.00    +0.078 A 
ATOM     13  N   UNL     1      -2.084   0.069  24.703  0.00  0.00    -0.178 NA
ATOM     14  C   UNL     1      -2.767   0.532  24.688  0.00  0.00    +0.265 C 
ATOM     15  O   UNL     1      -3.398   0.255  25.141  0.00  0.00    -0.271 OA
ATOM     16  C   UNL     1      -2.902   1.236  24.279  0.00  0.00    +0.174 C 
ATOM     17  C   UNL     1      -3.614   1.650  24.310  0.00  0.00    +0.124 C 
ATOM     18  C   UNL     1      -3.541   2.320  23.835  0.00  0.00    +0.045 C 
ATOM     19  C   UNL     1      -2.783   2.321  23.510  0.00  0.00    +0.096 C 
ATOM     20  N   UNL     1      -2.387   1.650  23.785  0.00  0.00    -0.268 N 
ATOM     21  C   UNL     1      -1.611   1.463  23.577  0.00  0.00    +0.251 C 
ATOM     22  O   UNL     1      -1.240   1.994  23.067  0.00  0.00    -0.270 OA
ATOM     23  C   UNL     1      -1.158   0.815  23.812  0.00  0.00    +0.069 A 
ATOM     24  C   UNL     1      -0.405   0.836  23.476  0.00  0.00    +0.006 A 
ENDROOT
BRANCH   9   6
ATOM      3  C   UNL     1       2.397   0.301  22.631  0.00  0.00    +0.139 A 
ATOM      4  C   UNL     1       1.831  -0.229  22.346  0.00  0.00    +0.037 A 
ATOM      5  C   UNL     1       1.079  -0.250  22.683  0.00  0.00    +0.003 A 
ATOM      6  C   UNL     1       0.891   0.258  23.304  0.00  0.00    +0.000 A 
ATOM      7  C   UNL     1       1.455   0.788  23.589  0.00  0.00    +0.003 A 
ATOM      8  C   UNL     1       2.208   0.809  23.253  0.00  0.00    +0.037 A 
BRANCH   3   2
ATOM      1  C   UNL     1       3.762   0.719  22.678  0.00  0.00    +0.252 C 
ATOM      2  O   UNL     1       3.149   0.322  22.294  0.00  0.00    -0.471 OA
ENDBRANCH   3   2
ENDBRANCH   9   6
BRANCH  17  25
ATOM     25  N   UNL     1      -4.283   1.432  24.741  0.00  0.00    -0.204 NA
ATOM     26  C   UNL     1      -4.905   1.967  24.837  0.00  0.00    +0.252 C 
ATOM     27  O   UNL     1      -4.857   2.719  24.502  0.00  0.00    -0.272 OA
BRANCH  26  28
ATOM     28  C   UNL     1      -5.574   1.748  25.268  0.00  0.00    +0.144 C 
BRANCH  28  29
ATOM     29  S   UNL     1      -5.950   2.300  25.752  0.00  0.00    -0.130 S 
ATOM     30  C   UNL     1      -6.436   2.045  26.367  0.00  0.00    +0.070 C 
ENDBRANCH  28  29
ENDBRANCH  26  28
ENDBRANCH  17  25
TORSDOF 5
ENDMDL
MODEL 3
REMARK VINA RESULT:      -8.0      2.901      4.446
REMARK  Name = 
REMARK  5 active torsions:
REMARK  status: ('A' for Active; 'I' for Inactive)
REMARK    1  A    between atoms: O_2  and  C_3
REMARK    2  A    between atoms: C_6  and  C_9
REMARK    3  A    between atoms: C_17  and  N_25
REMARK    4  A    between atoms: C_26  and  C_28
REMARK    5  A    between atoms: C_28  and  S_29
REMARK                            x       y       z     vdW  Elec       q    Type
REMARK                         _______ _______ _______ _____ _____    ______ ____
ROOT
ATOM      9  C   UNL     1      -3.729  -0.418  24.646  0.00  0.00    +0.000 A 
ATOM     10  C   UNL     1      -4.412   0.041  24.695  0.00  0.00    +0.001 A 
ATOM     11  C   UNL     1      -4.354   0.856  24.811  0.00  0.00    +0.017 A 
ATOM     12  C   UNL     1      -3.612   1.211  24.877  0.00  0.00    +0.078 A 
ATOM     13  N   UNL     1      -3.677   2.026  24.990  0.00  0.00    -0.178 NA
ATOM     14  C   UNL     1      -3.075   2.582  25.081  0.00  0.00    +0.265 C 
ATOM     15  O   UNL     1      -3.321   3.362  25.185  0.00  0.00    -0.271 OA
ATOM     16  C   UNL     1      -2.259   2.461  25.083  0.00  0.00    +0.174 C 
ATOM     17  C   UNL     1      -1.710   3.069  25.180  0.00  0.00    +0.124 C 
ATOM     18  C   UNL     1      -0.955   2.738  25.150  0.00  0.00    +0.045 C 
ATOM     19  C   UNL     1      -1.037   1.925  25.035  0.00  0.00    +0.096 C 
ATOM     20  N   UNL     1      -1.844   1.754  24.993  0.00  0.00    -0.268 N 
ATOM     21  C   UNL     1      -2.142   0.994  24.880  0.00  0.00    +0.251 C 
ATOM     22  O   UNL     1      -1.578   0.395  24.808  0.00  0.00    -0.270 OA
ATOM     23  C   UNL     1      -2.929   0.752  24.828  0.00  0.00    +0.069 A 
ATOM     24  C   UNL     1      -2.987  -0.063  24.713  0.00  0.00    +0.006 A 
ENDROOT
BRANCH   9   6
ATOM      3  C   UNL     1      -3.902  -2.864  24.300  0.00  0.00    +0.139 A 
ATOM      4  C   UNL     1      -3.538  -2.567  24.980  0.00  0.00    +0.037 A 
ATOM      5  C   UNL     1      -3.481  -1.752  25.094  0.00  0.00    +0.003 A 
ATOM      6  C   UNL     1      -3.787  -1.234  24.531  0.00  0.00    +0.000 A 
ATOM      7  C   UNL     1      -4.150  -1.529  23.852  0.00  0.00    +0.003 A 
ATOM      8  C   UNL     1      -4.207  -2.344  23.737  0.00  0.00    +0.037 A 
BRANCH   3   2
ATOM      1  C   UNL     1      -3.425  -4.063  23.689  0.00  0.00    +0.252 C 
ATOM      2  O   UNL     1      -3.959  -3.678  24.186  0.00  0.00    -0.471 OA
ENDBRANCH   3   2
ENDBRANCH   9   6
BRANCH  17  25
ATOM     25  N   UNL     1      -1.885   3.868  25.288  0.00  0.00    -0.204 NA
ATOM     26  C   UNL     1      -1.294   4.436  25.195  0.00  0.00    +0.252 C 
ATOM     27  O   UNL     1      -0.527   4.205  24.995  0.00  0.00    -0.272 OA
BRANCH  26  28
ATOM     28  C   UNL     1      -1.469   5.235  25.303  0.00  0.00    +0.144 C 
BRANCH  28  29
ATOM     29  S   UNL     1      -1.194   5.794  24.762  0.00  0.00    -0.130 S 
ATOM     30  C   UNL     1      -1.631   6.479  24.619  0.00  0.00    +0.070 C 
ENDBRANCH  28  29
ENDBRANCH  26  28
ENDBRANCH  17  25
TORSDOF 5
ENDMDL
MODEL 4
REMARK VINA RESULT:      -7.5      1.968      6.277
REMARK  Name = 
REMARK  5 active torsions:
REMARK  status: ('A' for Active; 'I' for Inactive)
REMARK    1  A    between atoms: O_2  and  C_3
REMARK    2  A    between atoms: C_6  and  C_9
REMARK    3  A    between atoms: C_17  and  N_25
REMARK    4  A    between atoms: C_26  and  C_28
REMARK    5  A    between atoms: C_28  and  S_29
REMARK                            x       y       z     vdW  Elec       q    Type
REMARK                         _______ _______ _______ _____ _____    ______ ____
ROOT
ATOM      9  C   UNL     1       1.626   0.440  23.233  0.00  0.00    +0.000 A 
ATOM     10  C   UNL     1       1.130  -0.139  22.920  0.00  0.00    +0.001 A 
ATOM     11  C   UNL     1       0.316  -0.099  23.049  0.00  0.00    +0.017 A 
ATOM     12  C   UNL     1      -0.001   0.520  23.491  0.00  0.00    +0.078 A 
ATOM     13  N   UNL     1      -0.821   0.456  23.554  0.00  0.00    -0.178 NA
ATOM     14  C   UNL     1      -1.348   0.957  23.945  0.00  0.00    +0.265 C 
ATOM     15  O   UNL     1      -2.143   0.741  23.905  0.00  0.00    -0.271 OA
ATOM     16  C   UNL     1      -1.184   1.644  24.371  0.00  0.00    +0.174 C 
ATOM     17  C   UNL     1      -1.765   2.099  24.739  0.00  0.00    +0.124 C 
ATOM     18  C   UNL     1      -1.394   2.737  25.107  0.00  0.00    +0.045 C 
ATOM     19  C   UNL     1      -0.583   2.677  24.965  0.00  0.00    +0.096 C 
ATOM     20  N   UNL     1      -0.454   2.001  24.510  0.00  0.00    -0.268 N 
ATOM     21  C   UNL     1       0.293   1.759  24.258  0.00  0.00    +0.251 C 
ATOM     22  O   UNL     1       0.922   2.239  24.490  0.00  0.00    -0.270 OA
ATOM     23  C   UNL     1       0.495   1.100  23.805  0.00  0.00    +0.069 A 
ATOM     24  C   UNL     1       1.308   1.060  23.676  0.00  0.00    +0.006 A 
ENDROOT
BRANCH   9   6
ATOM      3  C   UNL     1       4.069   0.321  22.847  0.00  0.00    +0.139 A 
ATOM      4  C   UNL     1       3.663  -0.337  23.136  0.00  0.00    +0.037 A 
ATOM      5  C   UNL     1       2.849  -0.297  23.265  0.00  0.00    +0.003 A 
ATOM      6  C   UNL     1       2.441   0.400  23.104  0.00  0.00    +0.000 A 
ATOM      7  C   UNL     1       2.845   1.059  22.815  0.00  0.00    +0.003 A 
ATOM      8  C   UNL     1       3.659   1.018  22.687  0.00  0.00    +0.037 A 
BRANCH   3   2
ATOM      1  C   UNL     1       5.392   0.128  23.349  0.00  0.00    +0.252 C 
ATOM      2  O   UNL     1       4.882   0.281  22.719  0.00  0.00    -0.471 OA
ENDBRANCH   3   2
ENDBRANCH   9   6
BRANCH  17  25
ATOM     25  N   UNL     1      -2.575   1.943  24.740  0.00  0.00    -0.204 NA
ATOM     26  C   UNL     1      -3.106   2.519  25.001  0.00  0.00    +0.252 C 
ATOM     27  O   UNL     1      -2.826   3.250  25.261  0.00  0.00    -0.272 OA
BRANCH  26  28
ATOM     28  C   UNL     1      -3.916   2.362  25.002  0.00  0.00    +0.144 C 
BRANCH  28  29
ATOM     29  S   UNL     1      -4.446   2.937  25.266  0.00  0.00    -0.130 S 
ATOM     30  C   UNL     1      -5.252   2.767  25.307  0.00  0.00    +0.070 C 
ENDBRANCH  28  29
ENDBRANCH  26  28
ENDBRANCH  17  25
TORSDOF 5
ENDMDL
MODEL 5
REMARK VINA RESULT:      -7.1      3.110      4.739
REMARK  Name = 
REMARK  5 active torsions:
REMARK  status: ('A' for Active; 'I' for Inactive)
REMARK    1  A    between atoms: O_2  and  C_3
REMARK    2  A    between atoms: C_6  and  C_9
REMARK    3  A    between atoms: C_17  and  N_25
REMARK    4  A    between atoms: C_26  and  C_28
REMARK    5  A    between atoms: C_28  and  S_29
REMARK                            x       y       z     vdW  Elec       q    Type
REMARK                         _______ _______ _______ _____ _____    ______ ____
ROOT
ATOM      9  C   UNL     1      -1.487   2.863  25.181  0.00  0.00    +0.000 A 
ATOM     10  C   UNL     1      -0.881   2.396  25.489  0.00  0.00    +0.001 A 
ATOM     11  C   UNL     1      -0.972   1.578  25.532  0.00  0.00    +0.017 A 
ATOM     12  C   UNL     1      -1.668   1.226  25.267  0.00  0.00    +0.078 A 
ATOM     13  N   UNL     1      -1.646   0.406  25.359  0.00  0.00    -0.178 NA
ATOM     14  C   UNL     1      -2.224  -0.150  25.166  0.00  0.00    +0.265 C 
ATOM     15  O   UNL     1      -2.033  -0.936  25.327  0.00  0.00    -0.271 OA
ATOM     16  C   UNL     1      -2.968  -0.023  24.832  0.00  0.00    +0.174 C 
ATOM     17  C   UNL     1      -3.500  -0.631  24.664  0.00  0.00    +0.124 C 
ATOM     18  C   UNL     1      -4.178  -0.293  24.338  0.00  0.00    +0.045 C 
ATOM     19  C   UNL     1      -4.065   0.523  24.304  0.00  0.00    +0.096 C 
ATOM     20  N   UNL     1      -3.317   0.690  24.610  0.00  0.00    -0.268 N 
ATOM     21  C   UNL     1      -3.009   1.453  24.666  0.00  0.00    +0.251 C 
ATOM     22  O   UNL     1      -3.499   2.058  24.394  0.00  0.00    -0.270 OA
ATOM     23  C   UNL     1      -2.275   1.691  24.959  0.00  0.00    +0.069 A 
ATOM     24  C   UNL     1      -2.185   2.510  24.915  0.00  0.00    +0.006 A 
ENDROOT
BRANCH   9   6
ATOM      3  C   UNL     1      -1.218   5.320  25.050  0.00  0.00    +0.139 A 
ATOM      4  C   UNL     1      -1.851   4.995  25.469  0.00  0.00    +0.037 A 
ATOM      5  C   UNL     1      -1.940   4.176  25.513  0.00  0.00    +0.003 A 
ATOM      6  C   UNL     1      -1.397   3.682  25.137  0.00  0.00    +0.000 A 
ATOM      7  C   UNL     1      -0.765   4.006  24.718  0.00  0.00    +0.003 A 
ATOM      8  C   UNL     1      -0.676   4.825  24.675  0.00  0.00    +0.037 A 
BRANCH   3   2
ATOM      1  C   UNL     1      -1.792   6.621  24.915  0.00  0.00    +0.252 C 
ATOM      2  O   UNL     1      -1.129   6.139  25.007  0.00  0.00    -0.471 OA
ENDBRANCH   3   2
ENDBRANCH   9   6
BRANCH  17  25
ATOM     25  N   UNL     1      -3.375  -1.436  24.799  0.00  0.00    -0.204 NA
ATOM     26  C   UNL     1      -3.841  -1.995  24.411  0.00  0.00    +0.252 C 
ATOM     27  O   UNL     1      -4.432  -1.751  23.890  0.00  0.00    -0.272 OA
BRANCH  26  28
ATOM     28  C   UNL     1      -3.717  -2.800  24.546  0.00  0.00    +0.144 C 
BRANCH  28  29
ATOM     29  S   UNL     1      -3.913  -3.351  23.964  0.00  0.00    -0.130 S 
ATOM     30  C   UNL     1      -3.515  -4.072  23.927  0.00  0.00    +0.070 C 
ENDBRANCH  28  29
ENDBRANCH  26  28
ENDBRANCH  17  25
TORSDOF 5
ENDMDL
