MODEL 1
REMARK VINA RESULT:     -11.1      0.000      0.000
REMARK  Name = 
REMARK  6 active torsions:
REMARK  status: ('A' for Active; 'I' for Inactive)
REMARK    1  A    between atoms: C_2  and  C_4
REMARK    2  A    between atoms: C_4  and  C_5
REMARK    3  A    between atoms: C_5  and  N_6
REMARK    4  A    between atoms: C_7  and  C_9
REMARK    5  A    between atoms: C_11  and  N_12
REMARK    6  A    between atoms: N_15  and  C_16
REMARK                            x       y       z     vdW  Elec       q    Type
REMARK                         _______ _______ _______ _____ _____    ______ ____
ROOT
ATOM      9  C   UNL     1      -4.407   1.089  24.684  0.00  0.00    +0.033 C 
ATOM     10  C   UNL     1      -3.947   1.623  25.115  0.00  0.00    -0.002 C 
ATOM     11  C   UNL     1      -4.292   2.302  25.432  0.00  0.00    +0.152 C 
ATOM     23  C   UNL     1      -5.096   2.447  25.319  0.00  0.00    +0.206 C 
ATOM     24  O   UNL     1      -5.441   3.127  25.637  0.00  0.00    -0.218 OA
ATOM     25  C   UNL     1      -5.555   1.914  24.889  0.00  0.00    +0.189 C 
ATOM     26  O   UNL     1      -6.360   2.060  24.776  0.00  0.00    -0.220 OA
ATOM     27  C   UNL     1      -5.210   1.235  24.571  0.00  0.00    +0.066 C 
ENDROOT
BRANCH  11  12
ATOM     12  N   UNL     1      -3.833   2.835  25.863  0.00  0.00    -0.181 NA
ATOM     13  C   UNL     1      -3.169   3.181  25.516  0.00  0.00    +0.344 C 
ATOM     14  O   UNL     1      -2.965   2.994  24.739  0.00  0.00    -0.249 OA
ATOM     15  N   UNL     1      -2.710   3.714  25.946  0.00  0.00    -0.161 NA
BRANCH  15  16
ATOM     16  C   UNL     1      -2.046   4.060  25.599  0.00  0.00    +0.077 A 
ATOM     17  C   UNL     1      -1.362   3.613  25.481  0.00  0.00    +0.017 A 
ATOM     18  C   UNL     1      -0.698   3.960  25.134  0.00  0.00    +0.004 A 
ATOM     19  C   UNL     1      -0.718   4.751  24.905  0.00  0.00    +0.030 A 
ATOM     20  C   UNL     1      -1.401   5.198  25.023  0.00  0.00    +0.141 A 
ATOM     21  F   UNL     1      -1.421   5.990  24.794  0.00  0.00    -0.204 F 
ATOM     22  C   UNL     1      -2.066   4.852  25.371  0.00  0.00    +0.046 A 
ENDBRANCH  15  16
ENDBRANCH  11  12
BRANCH   9   7
ATOM      6  N   UNL     1      -4.044  -0.287  24.808  0.00  0.00    -0.201 NA
ATOM      7  C   UNL     1      -4.062   0.411  24.367  0.00  0.00    +0.261 C 
ATOM      8  O   UNL     1      -3.734   0.429  23.610  0.00  0.00    -0.269 OA
BRANCH   6   5
ATOM      5  C   UNL     1      -3.699  -0.966  24.490  0.00  0.00    +0.125 C 
BRANCH   5   4
ATOM      4  C   UNL     1      -3.644  -1.652  24.946  0.00  0.00    +0.112 C 
BRANCH   4   2
ATOM      1  N   UNL     1      -2.551  -2.525  24.656  0.00  0.00    -0.088 NA
ATOM      2  C   UNL     1      -3.356  -2.348  24.610  0.00  0.00    +0.263 C 
ATOM      3  O   UNL     1      -3.871  -2.867  24.228  0.00  0.00    -0.272 OA
ENDBRANCH   4   2
ENDBRANCH   5   4
ENDBRANCH   6   5
ENDBRANCH   9   7
TORSDOF 6
ENDMDL
MODEL 2
REMARK VINA RESULT:     -11.1      1.980      4.931
REMARK  Name = 
REMARK  6 active torsions:
REMARK  status: ('A' for Active; 'I' for Inactive)
REMARK    1  A    between atoms: C_2  and  C_4
REMARK    2  A    between atoms: C_4  and  C_5
REMARK    3  A    between atoms: C_5  and  N_6
REMARK    4  A    between atoms: C_7  and  C_9
REMARK    5  A    between atoms: C_11  and  N_12
REMARK    6  A    between atoms: N_15  and  C_16
REMARK                            x       y       z     vdW  Elec       q    Type
REMARK                         _______ _______ _______ _____ _____    ______ ____
ROOT
ATOM      9  C   UNL     1      -4.304   3.019  24.943  0.00  0.00    +0.033 C 
ATOM     10  C   UNL     1      -4.361   2.240  24.675  0.00  0.00    -0.002 C 
ATOM     11  C   UNL     1      -4.970   1.754  24.947  0.00  0.00    +0.152 C 
ATOM     23  C   UNL     1      -5.521   2.046  25.486  0.00  0.00    +0.206 C 
ATOM     24  O   UNL     1      -6.130   1.560  25.757  0.00  0.00    -0.218 OA
ATOM     25  C   UNL     1      -5.464   2.824  25.754  0.00  0.00    +0.189 C 
ATOM     26  O   UNL     1      -6.016   3.116  26.293  0.00  0.00    -0.220 OA
ATOM     27  C   UNL     1      -4.855   3.310  25.482  0.00  0.00    +0.066 C 
ENDROOT
BRANCH  11  12
ATOM     12  N   UNL     1      -5.026   0.975  24.679  0.00  0.00    -0.181 NA
ATOM     13  C   UNL     1      -4.440   0.429  24.874  0.00  0.00    +0.344 C 
ATOM     14  O   UNL     1      -3.798   0.660  25.336  0.00  0.00    -0.249 OA
ATOM     15  N   UNL     1      -4.498  -0.349  24.606  0.00  0.00    -0.161 NA
BRANCH  15  16
ATOM     16  C   UNL     1      -3.911  -0.897  24.801  0.00  0.00    +0.077 A 
ATOM     17  C   UNL     1      -3.848  -1.175  25.576  0.00  0.00    +0.017 A 
ATOM     18  C   UNL     1      -3.262  -1.722  25.770  0.00  0.00    +0.004 A 
ATOM     19  C   UNL     1      -2.740  -1.990  25.192  0.00  0.00    +0.030 A 
ATOM     20  C   UNL     1      -2.802  -1.712  24.418  0.00  0.00    +0.141 A 
ATOM     21  F   UNL     1      -2.280  -1.981  23.839  0.00  0.00    -0.204 F 
ATOM     22  C   UNL     1      -3.389  -1.165  24.223  0.00  0.00    +0.046 A 
ENDBRANCH  15  16
ENDBRANCH  11  12
BRANCH   9   7
ATOM      6  N   UNL     1      -3.050   3.669  25.160  0.00  0.00    -0.201 NA
ATOM      7  C   UNL     1      -3.695   3.504  24.671  0.00  0.00    +0.261 C 
ATOM      8  O   UNL     1      -3.730   3.825  23.912  0.00  0.00    -0.269 OA
BRANCH   6   5
ATOM      5  C   UNL     1      -2.441   4.154  24.888  0.00  0.00    +0.125 C 
BRANCH   5   4
ATOM      4  C   UNL     1      -1.808   4.339  25.385  0.00  0.00    +0.112 C 
BRANCH   4   2
ATOM      1  N   UNL     1      -0.497   4.362  24.816  0.00  0.00    -0.088 NA
ATOM      2  C   UNL     1      -1.164   4.763  25.091  0.00  0.00    +0.263 C 
ATOM      3  O   UNL     1      -1.187   5.588  25.073  0.00  0.00    -0.272 OA
ENDBRANCH   4   2
ENDBRANCH   5   4
ENDBRANCH   6   5
ENDBRANCH   9   7
TORSDOF 6
ENDMDL
MODEL 3
REMARK VINA RESULT:     -10.1      2.445      5.296
REMARK  Name = 
REMARK  6 active torsions:
REMARK  status: ('A' for Active; 'I' for Inactive)
REMARK    1  A    between atoms: C_2  and  C_4
REMARK    2  A    between atoms: C_4  and  C_5
REMARK    3  A    between atoms: C_5  and  N_6
REMARK    4  A    between atoms: C_7  and  C_9
REMARK    5  A    between atoms: C_11  and  N_12
REMARK    6  A    between atoms: N_15  and  C_16
REMARK                            x       y       z     vdW  Elec       q    Type
REMARK                         _______ _______ _______ _____ _____    ______ ____
ROOT
ATOM      9  C   UNL     1      -1.899   2.895  25.268  0.00  0.00    +0.033 C 
ATOM     10  C   UNL     1      -1.779   2.123  25.534  0.00  0.00    -0.002 C 
ATOM     11  C   UNL     1      -1.113   1.702  25.291  0.00  0.00    +0.152 C 
ATOM     23  C   UNL     1      -0.567   2.052  24.783  0.00  0.00    +0.206 C 
ATOM     24  O   UNL     1       0.100   1.631  24.539  0.00  0.00    -0.218 OA
ATOM     25  C   UNL     1      -0.686   2.824  24.517  0.00  0.00    +0.189 C 
ATOM     26  O   UNL     1      -0.139   3.175  24.008  0.00  0.00    -0.220 OA
ATOM     27  C   UNL     1      -1.353   3.246  24.760  0.00  0.00    +0.066 C 
ENDROOT
BRANCH  11  12
ATOM     12  N   UNL     1      -0.994   0.929  25.556  0.00  0.00    -0.181 NA
ATOM     13  C   UNL     1      -1.502   0.327  25.313  0.00  0.00    +0.344 C 
ATOM     14  O   UNL     1      -2.128   0.496  24.805  0.00  0.00    -0.249 OA
ATOM     15  N   UNL     1      -1.382  -0.444  25.579  0.00  0.00    -0.161 NA
BRANCH  15  16
ATOM     16  C   UNL     1      -1.891  -1.048  25.335  0.00  0.00    +0.077 A 
ATOM     17  C   UNL     1      -2.651  -1.100  25.653  0.00  0.00    +0.017 A 
ATOM     18  C   UNL     1      -3.159  -1.702  25.410  0.00  0.00    +0.004 A 
ATOM     19  C   UNL     1      -2.908  -2.252  24.850  0.00  0.00    +0.030 A 
ATOM     20  C   UNL     1      -2.148  -2.201  24.532  0.00  0.00    +0.141 A 
ATOM     21  F   UNL     1      -1.897  -2.752  23.972  0.00  0.00    -0.204 F 
ATOM     22  C   UNL     1      -1.640  -1.598  24.775  0.00  0.00    +0.046 A 
ENDBRANCH  15  16
ENDBRANCH  11  12
BRANCH   9   7
ATOM      6  N   UNL     1      -3.312   3.103  25.233  0.00  0.00    -0.201 NA
ATOM      7  C   UNL     1      -2.565   3.316  25.512  0.00  0.00    +0.261 C 
ATOM      8  O   UNL     1      -2.485   3.950  26.034  0.00  0.00    -0.269 OA
BRANCH   6   5
ATOM      5  C   UNL     1      -3.979   3.523  25.476  0.00  0.00    +0.125 C 
BRANCH   5   4
ATOM      4  C   UNL     1      -4.726   3.310  25.196  0.00  0.00    +0.112 C 
BRANCH   4   2
ATOM      1  N   UNL     1      -5.718   2.847  26.114  0.00  0.00    -0.088 NA
ATOM      2  C   UNL     1      -5.394   3.454  25.657  0.00  0.00    +0.263 C 
ATOM      3  O   UNL     1      -5.740   4.203  25.662  0.00  0.00    -0.272 OA
ENDBRANCH   4   2
ENDBRANCH   5   4
ENDBRANCH   6   5
ENDBRANCH   9   7
TORSDOF 6
ENDMDL
MODEL 4
REMARK VINA RESULT:     -10.1      2.465      3.490
REMARK  Name = 
REMARK  6 active torsions:
REMARK  status: ('A' for Active; 'I' for Inactive)
REMARK    1  A    between atoms: C_2  and  C_4
REMARK    2  A    between atoms: C_4  and  C_5
REMARK    3  A    between atoms: C_5  and  N_6
REMARK    4  A    between atoms: C_7  and  C_9
REMARK    5  A    between atoms: C_11  and  N_12
REMARK    6  A    between atoms: N_15  and  C_16
REMARK                            x       y       z     vdW  Elec       q    Type
REMARK                         _______ _______ _______ _____ _____    ______ ____
ROOT
ATOM      9  C   UNL     1      -0.789  -0.213  24.674  0.00  0.00    +0.033 C 
ATOM     10  C   UNL     1      -0.693   0.500  25.080  0.00  0.00    -0.002 C 
ATOM     11  C   UNL     1      -0.155   1.061  24.803  0.00  0.00    +0.152 C 
ATOM     23  C   UNL     1       0.285   0.910  24.123  0.00  0.00    +0.206 C 
ATOM     24  O   UNL     1       0.823   1.472  23.847  0.00  0.00    -0.218 OA
ATOM     25  C   UNL     1       0.189   0.198  23.718  0.00  0.00    +0.189 C 
ATOM     26  O   UNL     1       0.630   0.048  23.037  0.00  0.00    -0.220 OA
ATOM     27  C   UNL     1      -0.349  -0.364  23.994  0.00  0.00    +0.066 C 
ENDROOT
BRANCH  11  12
ATOM     12  N   UNL     1      -0.059   1.774  25.209  0.00  0.00    -0.181 NA
ATOM     13  C   UNL     1      -0.645   2.353  25.169  0.00  0.00    +0.344 C 
ATOM     14  O   UNL     1      -1.327   2.220  24.726  0.00  0.00    -0.249 OA
ATOM     15  N   UNL     1      -0.548   3.064  25.574  0.00  0.00    -0.161 NA
BRANCH  15  16
ATOM     16  C   UNL     1      -1.135   3.644  25.535  0.00  0.00    +0.077 A 
ATOM     17  C   UNL     1      -1.030   4.305  25.051  0.00  0.00    +0.017 A 
ATOM     18  C   UNL     1      -1.616   4.884  25.012  0.00  0.00    +0.004 A 
ATOM     19  C   UNL     1      -2.306   4.803  25.455  0.00  0.00    +0.030 A 
ATOM     20  C   UNL     1      -2.411   4.143  25.939  0.00  0.00    +0.141 A 
ATOM     21  F   UNL     1      -3.102   4.062  26.383  0.00  0.00    -0.204 F 
ATOM     22  C   UNL     1      -1.824   3.563  25.978  0.00  0.00    +0.046 A 
ENDBRANCH  15  16
ENDBRANCH  11  12
BRANCH   9   7
ATOM      6  N   UNL     1      -2.022  -0.922  24.529  0.00  0.00    -0.201 NA
ATOM      7  C   UNL     1      -1.327  -0.774  24.951  0.00  0.00    +0.261 C 
ATOM      8  O   UNL     1      -1.171  -1.187  25.648  0.00  0.00    -0.269 OA
BRANCH   6   5
ATOM      5  C   UNL     1      -2.559  -1.483  24.806  0.00  0.00    +0.125 C 
BRANCH   5   4
ATOM      4  C   UNL     1      -3.334  -1.487  24.521  0.00  0.00    +0.112 C 
BRANCH   4   2
ATOM      1  N   UNL     1      -4.249  -2.313  23.797  0.00  0.00    -0.088 NA
ATOM      2  C   UNL     1      -3.739  -2.201  24.437  0.00  0.00    +0.263 C 
ATOM      3  O   UNL     1      -3.633  -2.803  24.991  0.00  0.00    -0.272 OA
ENDBRANCH   4   2
ENDBRANCH   5   4
ENDBRANCH   6   5
ENDBRANCH   9   7
TORSDOF 6
ENDMDL
MODEL 5
REMARK VINA RESULT:      -9.9      2.299      3.737
REMARK  Name = 
REMARK  6 active torsions:
REMARK  status: ('A' for Active; 'I' for Inactive)
REMARK    1  A    between atoms: C_2  and  C_4
REMARK    2  A    between atoms: C_4  and  C_5
REMARK    3  A    between atoms: C_5  and  N_6
REMARK    4  A    between atoms: C_7  and  C_9
REMARK    5  A    between atoms: C_11  and  N_12
REMARK    6  A    between atoms: N_15  and  C_16
REMARK                            x       y       z     vdW  Elec       q    Type
REMARK                         _______ _______ _______ _____ _____    ______ ____
ROOT
ATOM      9  C   UNL     1      -0.708   1.233  24.773  0.00  0.00    +0.033 C 
ATOM     10  C   UNL     1      -1.340   1.719  24.560  0.00  0.00    -0.002 C 
ATOM     11  C   UNL     1      -1.376   2.495  24.838  0.00  0.00    +0.152 C 
ATOM     23  C   UNL     1      -0.781   2.784  25.329  0.00  0.00    +0.206 C 
ATOM     24  O   UNL     1      -0.817   3.561  25.608  0.00  0.00    -0.218 OA
ATOM     25  C   UNL     1      -0.149   2.300  25.542  0.00  0.00    +0.189 C 
ATOM     26  O   UNL     1       0.447   2.590  26.034  0.00  0.00    -0.220 OA
ATOM     27  C   UNL     1      -0.113   1.523  25.264  0.00  0.00    +0.066 C 
ENDROOT
BRANCH  11  12
ATOM     12  N   UNL     1      -2.009   2.980  24.625  0.00  0.00    -0.181 NA
ATOM     13  C   UNL     1      -2.771   2.800  24.883  0.00  0.00    +0.344 C 
ATOM     14  O   UNL     1      -2.902   2.136  25.353  0.00  0.00    -0.249 OA
ATOM     15  N   UNL     1      -3.403   3.286  24.670  0.00  0.00    -0.161 NA
BRANCH  15  16
ATOM     16  C   UNL     1      -4.167   3.106  24.928  0.00  0.00    +0.077 A 
ATOM     17  C   UNL     1      -4.488   3.506  25.575  0.00  0.00    +0.017 A 
ATOM     18  C   UNL     1      -5.251   3.325  25.832  0.00  0.00    +0.004 A 
ATOM     19  C   UNL     1      -5.692   2.747  25.444  0.00  0.00    +0.030 A 
ATOM     20  C   UNL     1      -5.371   2.348  24.798  0.00  0.00    +0.141 A 
ATOM     21  F   UNL     1      -5.812   1.769  24.409  0.00  0.00    -0.204 F 
ATOM     22  C   UNL     1      -4.607   2.528  24.540  0.00  0.00    +0.046 A 
ENDBRANCH  15  16
ENDBRANCH  11  12
BRANCH   9   7
ATOM      6  N   UNL     1      -1.109  -0.135  24.868  0.00  0.00    -0.201 NA
ATOM      7  C   UNL     1      -0.672   0.458  24.494  0.00  0.00    +0.261 C 
ATOM      8  O   UNL     1      -0.200   0.274  23.843  0.00  0.00    -0.269 OA
BRANCH   6   5
ATOM      5  C   UNL     1      -1.073  -0.910  24.589  0.00  0.00    +0.125 C 
BRANCH   5   4
ATOM      4  C   UNL     1      -1.433  -1.519  25.016  0.00  0.00    +0.112 C 
BRANCH   4   2
ATOM      1  N   UNL     1      -2.624  -2.218  24.650  0.00  0.00    -0.088 NA
ATOM      2  C   UNL     1      -1.803  -2.139  24.617  0.00  0.00    +0.263 C 
ATOM      3  O   UNL     1      -1.353  -2.679  24.186  0.00  0.00    -0.272 OA
ENDBRANCH   4   2
ENDBRANCH   5   4
ENDBRANCH   6   5
ENDBRANCH   9   7
TORSDOF 6
ENDMDL
MODEL 6
REMARK VINA RESULT:      -9.9      2.957      6.008
REMARK  Name = 
REMARK  6 active torsions:
REMARK  status: ('A' for Active; 'I' for Inactive)
REMARK    1  A    between atoms: C_2  and  C_4
REMARK    2  A    between atoms: C_4  and  C_5
REMARK    3  A    between atoms: C_5  and  N_6
REMARK    4  A    between atoms: C_7  and  C_9
REMARK    5  A    between atoms: C_11  and  N_12
REMARK    6  A    between atoms: N_15  and  C_16
REMARK                            x       y       z     vdW  Elec       q    Type
REMARK                         _______ _______ _______ _____ _____    ______ ____
ROOT
ATOM      9  C   UNL     1      -0.179   1.498  24.762  0.00  0.00    +0.033 C 
ATOM     10  C   UNL     1      -0.630   0.848  24.998  0.00  0.00    -0.002 C 
ATOM     11  C   UNL     1      -0.519   0.117  24.633  0.00  0.00    +0.152 C 
ATOM     23  C   UNL     1       0.041   0.034  24.035  0.00  0.00    +0.206 C 
ATOM     24  O   UNL     1       0.151  -0.698  23.670  0.00  0.00    -0.218 OA
ATOM     25  C   UNL     1       0.492   0.684  23.799  0.00  0.00    +0.189 C 
ATOM     26  O   UNL     1       1.053   0.601  23.199  0.00  0.00    -0.220 OA
ATOM     27  C   UNL     1       0.382   1.416  24.164  0.00  0.00    +0.066 C 
ENDROOT
BRANCH  11  12
ATOM     12  N   UNL     1      -0.970  -0.534  24.869  0.00  0.00    -0.181 NA
ATOM     13  C   UNL     1      -1.766  -0.582  24.655  0.00  0.00    +0.344 C 
ATOM     14  O   UNL     1      -2.110   0.018  24.207  0.00  0.00    -0.249 OA
ATOM     15  N   UNL     1      -2.216  -1.232  24.891  0.00  0.00    -0.161 NA
BRANCH  15  16
ATOM     16  C   UNL     1      -3.012  -1.281  24.677  0.00  0.00    +0.077 A 
ATOM     17  C   UNL     1      -3.548  -0.716  24.951  0.00  0.00    +0.017 A 
ATOM     18  C   UNL     1      -4.343  -0.766  24.737  0.00  0.00    +0.004 A 
ATOM     19  C   UNL     1      -4.602  -1.378  24.250  0.00  0.00    +0.030 A 
ATOM     20  C   UNL     1      -4.067  -1.942  23.976  0.00  0.00    +0.141 A 
ATOM     21  F   UNL     1      -4.326  -2.555  23.488  0.00  0.00    -0.204 F 
ATOM     22  C   UNL     1      -3.271  -1.893  24.190  0.00  0.00    +0.046 A 
ENDBRANCH  15  16
ENDBRANCH  11  12
BRANCH   9   7
ATOM      6  N   UNL     1      -0.863   2.750  24.841  0.00  0.00    -0.201 NA
ATOM      7  C   UNL     1      -0.289   2.230  25.127  0.00  0.00    +0.261 C 
ATOM      8  O   UNL     1       0.173   2.442  25.777  0.00  0.00    -0.269 OA
BRANCH   6   5
ATOM      5  C   UNL     1      -0.973   3.482  25.205  0.00  0.00    +0.125 C 
BRANCH   5   4
ATOM      4  C   UNL     1      -1.541   4.006  24.914  0.00  0.00    +0.112 C 
BRANCH   4   2
ATOM      1  N   UNL     1      -2.468   4.589  25.832  0.00  0.00    -0.088 NA
ATOM      2  C   UNL     1      -1.784   4.647  25.373  0.00  0.00    +0.263 C 
ATOM      3  O   UNL     1      -1.345   5.345  25.374  0.00  0.00    -0.272 OA
ENDBRANCH   4   2
ENDBRANCH   5   4
ENDBRANCH   6   5
ENDBRANCH   9   7
TORSDOF 6
ENDMDL
