MODEL 1
REMARK VINA RESULT:     -11.2      0.000      0.000
REMARK  Name = 
REMARK  5 active torsions:
REMARK  status: ('A' for Active; 'I' for Inactive)
REMARK    1  A    between atoms: C_3  and  C_4
REMARK    2  A    between atoms: C_4  and  N_5
REMARK    3  A    between atoms: N_8  and  C_9
REMARK    4  A    between atoms: C_17  and  N_18
REMARK    5  A    between atoms: N_18  and  C_19
REMARK                            x       y       z     vdW  Elec       q    Type
REMARK                         _______ _______ _______ _____ _____    ______ ____
ROOT
ATOM      1  O   UNL     1      -4.761   0.837  25.089  0.00  0.00    -0.219 OA
ATOM      2  C   UNL     1      -4.146   0.615  24.586  0.00  0.00    +0.199 C 
ATOM      3  C   UNL     1      -3.553   1.110  24.296  0.00  0.00    +0.169 C 
ATOM     15  O   UNL     1      -3.056   0.661  23.816  0.00  0.00    -0.350 OA
ATOM     16  C   UNL     1      -3.341  -0.114  23.808  0.00  0.00    +0.162 C 
ATOM     17  C   UNL     1      -4.014  -0.142  24.284  0.00  0.00    +0.135 C 
ENDROOT
BRANCH   3   4
ATOM      4  C   UNL     1      -3.472   1.915  24.460  0.00  0.00    +0.149 C 
BRANCH   4   5
ATOM      5  N   UNL     1      -2.839   2.181  24.919  0.00  0.00    -0.184 NA
ATOM      6  C   UNL     1      -2.543   2.943  24.810  0.00  0.00    +0.344 C 
ATOM      7  O   UNL     1      -2.879   3.440  24.243  0.00  0.00    -0.249 OA
ATOM      8  N   UNL     1      -1.910   3.209  25.269  0.00  0.00    -0.161 NA
BRANCH   8   9
ATOM      9  C   UNL     1      -1.615   3.971  25.161  0.00  0.00    +0.075 A 
ATOM     10  C   UNL     1      -2.048   4.623  25.420  0.00  0.00    +0.017 A 
ATOM     11  C   UNL     1      -1.751   5.386  25.311  0.00  0.00    +0.001 A 
ATOM     12  C   UNL     1      -1.022   5.496  24.943  0.00  0.00    +0.000 A 
ATOM     13  C   UNL     1      -0.589   4.844  24.683  0.00  0.00    +0.001 A 
ATOM     14  C   UNL     1      -0.884   4.081  24.791  0.00  0.00    +0.017 A 
ENDBRANCH   8   9
ENDBRANCH   4   5
ENDBRANCH   3   4
BRANCH  17  18
ATOM     18  N   UNL     1      -4.476  -0.809  24.432  0.00  0.00    -0.216 NA
BRANCH  18  19
ATOM     19  C   UNL     1      -4.123  -1.554  24.476  0.00  0.00    +0.073 C 
ATOM     20  C   UNL     1      -4.195  -2.083  23.849  0.00  0.00    +0.017 C 
ATOM     21  C   UNL     1      -3.841  -2.827  23.893  0.00  0.00    +0.001 C 
ATOM     22  C   UNL     1      -3.416  -3.042  24.565  0.00  0.00    +0.000 C 
ATOM     23  C   UNL     1      -3.343  -2.512  25.195  0.00  0.00    +0.001 C 
ATOM     24  C   UNL     1      -3.697  -1.768  25.150  0.00  0.00    +0.017 C 
ENDBRANCH  18  19
ENDBRANCH  17  18
TORSDOF 5
ENDMDL
MODEL 2
REMARK VINA RESULT:     -10.8      1.011      5.974
REMARK  Name = 
REMARK  5 active torsions:
REMARK  status: ('A' for Active; 'I' for Inactive)
REMARK    1  A    between atoms: C_3  and  C_4
REMARK    2  A    between atoms: C_4  and  N_5
REMARK    3  A    between atoms: N_8  and  C_9
REMARK    4  A    between atoms: C_17  and  N_18
REMARK    5  A    between atoms: N_18  and  C_19
REMARK                            x       y       z     vdW  Elec       q    Type
REMARK                         _______ _______ _______ _____ _____    ______ ____
ROOT
ATOM      1  O   UNL     1      -1.112   1.734  25.752  0.00  0.00    -0.219 OA
ATOM      2  C   UNL     1      -1.754   2.090  25.376  0.00  0.00    +0.199 C 
ATOM      3  C   UNL     1      -2.319   1.707  24.913  0.00  0.00    +0.169 C 
ATOM     15  O   UNL     1      -2.858   2.272  24.648  0.00  0.00    -0.350 OA
ATOM     16  C   UNL     1      -2.627   3.005  24.947  0.00  0.00    +0.162 C 
ATOM     17  C   UNL     1      -1.945   2.893  25.398  0.00  0.00    +0.135 C 
ENDROOT
BRANCH   3   4
ATOM      4  C   UNL     1      -2.340   0.900  24.744  0.00  0.00    +0.149 C 
BRANCH   4   5
ATOM      5  N   UNL     1      -3.029   0.467  24.884  0.00  0.00    -0.184 NA
ATOM      6  C   UNL     1      -3.065  -0.329  24.672  0.00  0.00    +0.344 C 
ATOM      7  O   UNL     1      -2.413  -0.694  24.322  0.00  0.00    -0.249 OA
ATOM      8  N   UNL     1      -3.755  -0.762  24.812  0.00  0.00    -0.161 NA
BRANCH   8   9
ATOM      9  C   UNL     1      -3.791  -1.558  24.601  0.00  0.00    +0.075 A 
ATOM     10  C   UNL     1      -3.445  -2.130  25.084  0.00  0.00    +0.017 A 
ATOM     11  C   UNL     1      -3.482  -2.927  24.872  0.00  0.00    +0.001 A 
ATOM     12  C   UNL     1      -3.864  -3.151  24.177  0.00  0.00    +0.000 A 
ATOM     13  C   UNL     1      -4.210  -2.579  23.693  0.00  0.00    +0.001 A 
ATOM     14  C   UNL     1      -4.174  -1.783  23.904  0.00  0.00    +0.017 A 
ENDBRANCH   8   9
ENDBRANCH   4   5
ENDBRANCH   3   4
BRANCH  17  18
ATOM     18  N   UNL     1      -1.526   3.480  25.799  0.00  0.00    -0.216 NA
BRANCH  18  19
ATOM     19  C   UNL     1      -1.375   4.203  25.431  0.00  0.00    +0.073 C 
ATOM     20  C   UNL     1      -1.908   4.826  25.512  0.00  0.00    +0.017 C 
ATOM     21  C   UNL     1      -1.757   5.550  25.144  0.00  0.00    +0.001 C 
ATOM     22  C   UNL     1      -1.072   5.649  24.695  0.00  0.00    +0.000 C 
ATOM     23  C   UNL     1      -0.538   5.024  24.613  0.00  0.00    +0.001 C 
ATOM     24  C   UNL     1      -0.689   4.301  24.981  0.00  0.00    +0.017 C 
ENDBRANCH  18  19
ENDBRANCH  17  18
TORSDOF 5
ENDMDL
MODEL 3
REMARK VINA RESULT:     -10.1      1.689      1.964
REMARK  Name = 
REMARK  5 active torsions:
REMARK  status: ('A' for Active; 'I' for Inactive)
REMARK    1  A    between atoms: C_3  and  C_4
REMARK    2  A    between atoms: C_4  and  N_5
REMARK    3  A    between atoms: N_8  and  C_9
REMARK    4  A    between atoms: C_17  and  N_18
REMARK    5  A    between atoms: N_18  and  C_19
REMARK                            x       y       z     vdW  Elec       q    Type
REMARK                         _______ _______ _______ _____ _____    ______ ____
ROOT
ATOM      1  O   UNL     1      -0.768  -0.367  23.858  0.00  0.00    -0.219 OA
ATOM      2  C   UNL     1      -1.160  -0.356  24.584  0.00  0.00    +0.199 C 
ATOM      3  C   UNL     1      -1.185   0.279  25.111  0.00  0.00    +0.169 C 
ATOM     15  O   UNL     1      -1.636   0.050  25.763  0.00  0.00    -0.350 OA
ATOM     16  C   UNL     1      -1.890  -0.725  25.639  0.00  0.00    +0.162 C 
ATOM     17  C   UNL     1      -1.596  -0.976  24.910  0.00  0.00    +0.135 C 
ENDROOT
BRANCH   3   4
ATOM      4  C   UNL     1      -0.823   1.012  25.005  0.00  0.00    +0.149 C 
BRANCH   4   5
ATOM      5  N   UNL     1      -0.966   1.624  25.541  0.00  0.00    -0.184 NA
ATOM      6  C   UNL     1      -1.049   2.398  25.269  0.00  0.00    +0.344 C 
ATOM      7  O   UNL     1      -0.989   2.561  24.462  0.00  0.00    -0.249 OA
ATOM      8  N   UNL     1      -1.192   3.010  25.804  0.00  0.00    -0.161 NA
BRANCH   8   9
ATOM      9  C   UNL     1      -1.274   3.784  25.532  0.00  0.00    +0.075 A 
ATOM     10  C   UNL     1      -2.010   4.157  25.564  0.00  0.00    +0.017 A 
ATOM     11  C   UNL     1      -2.092   4.931  25.291  0.00  0.00    +0.001 A 
ATOM     12  C   UNL     1      -1.439   5.333  24.987  0.00  0.00    +0.000 A 
ATOM     13  C   UNL     1      -0.704   4.961  24.956  0.00  0.00    +0.001 A 
ATOM     14  C   UNL     1      -0.621   4.186  25.228  0.00  0.00    +0.017 A 
ENDBRANCH   8   9
ENDBRANCH   4   5
ENDBRANCH   3   4
BRANCH  17  18
ATOM     18  N   UNL     1      -1.716  -1.716  24.567  0.00  0.00    -0.216 NA
BRANCH  18  19
ATOM     19  C   UNL     1      -2.475  -2.038  24.537  0.00  0.00    +0.073 C 
ATOM     20  C   UNL     1      -3.035  -1.728  24.018  0.00  0.00    +0.017 C 
ATOM     21  C   UNL     1      -3.795  -2.050  23.988  0.00  0.00    +0.001 C 
ATOM     22  C   UNL     1      -3.993  -2.683  24.478  0.00  0.00    +0.000 C 
ATOM     23  C   UNL     1      -3.433  -2.994  24.998  0.00  0.00    +0.001 C 
ATOM     24  C   UNL     1      -2.674  -2.672  25.028  0.00  0.00    +0.017 C 
ENDBRANCH  18  19
ENDBRANCH  17  18
TORSDOF 5
ENDMDL
