MODEL 1
REMARK VINA RESULT:     -13.0      0.000      0.000
REMARK  Name = 
REMARK  4 active torsions:
REMARK  status: ('A' for Active; 'I' for Inactive)
REMARK    1  A    between atoms: C_7  and  C_9
REMARK    2  A    between atoms: N_12  and  C_13
REMARK    3  A    between atoms: C_13  and  C_14
REMARK    4  A    between atoms: C_17  and  C_20
REMARK                            x       y       z     vdW  Elec       q    Type
REMARK                         _______ _______ _______ _____ _____    ______ ____
ROOT
ATOM      9  C   UNL     1      -4.630   1.045  24.980  0.00  0.00    +0.076 C 
ATOM     10  C   UNL     1      -5.247   1.305  25.461  0.00  0.00    +0.026 C 
ATOM     11  C   UNL     1      -5.277   2.128  25.419  0.00  0.00    +0.073 C 
ATOM     12  N   UNL     1      -4.677   2.378  24.911  0.00  0.00    -0.269 NA
ATOM     23  C   UNL     1      -4.277   1.709  24.640  0.00  0.00    +0.080 C 
ENDROOT
BRANCH   9   7
ATOM      1  C   UNL     1      -3.122  -2.997  25.110  0.00  0.00    +0.031 C 
ATOM      2  C   UNL     1      -3.492  -2.311  24.841  0.00  0.00    -0.020 A 
ATOM      3  C   UNL     1      -3.511  -1.639  25.318  0.00  0.00    +0.016 A 
ATOM      4  C   UNL     1      -3.882  -0.953  25.049  0.00  0.00    +0.100 A 
ATOM      5  C   UNL     1      -4.234  -0.939  24.303  0.00  0.00    +0.100 A 
ATOM      6  N   UNL     1      -4.557  -0.190  24.186  0.00  0.00    -0.229 NA
ATOM      7  C   UNL     1      -4.405   0.261  24.860  0.00  0.00    +0.140 A 
ATOM      8  N   UNL     1      -3.988  -0.211  25.393  0.00  0.00    -0.229 NA
ATOM     24  C   UNL     1      -4.215  -1.613  23.825  0.00  0.00    +0.020 A 
ATOM     25  C   UNL     1      -3.844  -2.298  24.095  0.00  0.00    -0.003 A 
ENDBRANCH   9   7
BRANCH  12  13
ATOM     13  C   UNL     1      -4.507   3.159  24.709  0.00  0.00    +0.099 C 
BRANCH  13  14
ATOM     14  C   UNL     1      -3.761   3.474  24.870  0.00  0.00    -0.006 A 
ATOM     15  C   UNL     1      -3.174   3.463  24.289  0.00  0.00    -0.003 A 
ATOM     16  C   UNL     1      -2.429   3.778  24.450  0.00  0.00    +0.006 A 
ATOM     17  C   UNL     1      -2.269   4.103  25.190  0.00  0.00    +0.080 A 
ATOM     18  C   UNL     1      -2.856   4.114  25.771  0.00  0.00    +0.006 A 
ATOM     19  C   UNL     1      -3.602   3.799  25.611  0.00  0.00    -0.003 A 
BRANCH  17  20
ATOM     20  C   UNL     1      -1.524   4.418  25.351  0.00  0.00    +0.388 C 
ATOM     21  O   UNL     1      -0.903   3.919  25.563  0.00  0.00    -0.241 OA
ATOM     22  O   UNL     1      -1.400   5.232  25.299  0.00  0.00    -0.241 OA
ENDBRANCH  17  20
ENDBRANCH  13  14
ENDBRANCH  12  13
TORSDOF 4
ENDMDL
MODEL 2
REMARK VINA RESULT:     -12.6      2.279      5.289
REMARK  Name = 
REMARK  4 active torsions:
REMARK  status: ('A' for Active; 'I' for Inactive)
REMARK    1  A    between atoms: C_7  and  C_9
REMARK    2  A    between atoms: N_12  and  C_13
REMARK    3  A    between atoms: C_13  and  C_14
REMARK    4  A    between atoms: C_17  and  C_20
REMARK                            x       y       z     vdW  Elec       q    Type
REMARK                         _______ _______ _______ _____ _____    ______ ____
ROOT
ATOM      9  C   UNL     1      -3.559   2.038  24.762  0.00  0.00    +0.076 C 
ATOM     10  C   UNL     1      -4.200   2.058  24.243  0.00  0.00    +0.026 C 
ATOM     11  C   UNL     1      -4.655   1.382  24.372  0.00  0.00    +0.073 C 
ATOM     12  N   UNL     1      -4.296   0.944  24.971  0.00  0.00    -0.269 NA
ATOM     23  C   UNL     1      -3.619   1.349  25.213  0.00  0.00    +0.080 C 
ENDROOT
BRANCH   9   7
ATOM      1  C   UNL     1      -1.075   5.555  25.067  0.00  0.00    +0.031 C 
ATOM      2  C   UNL     1      -1.305   4.765  25.015  0.00  0.00    -0.020 A 
ATOM      3  C   UNL     1      -2.104   4.570  24.965  0.00  0.00    +0.016 A 
ATOM      4  C   UNL     1      -2.335   3.780  24.913  0.00  0.00    +0.100 A 
ATOM      5  C   UNL     1      -1.765   3.183  24.911  0.00  0.00    +0.100 A 
ATOM      6  N   UNL     1      -2.154   2.459  24.855  0.00  0.00    -0.229 NA
ATOM      7  C   UNL     1      -2.965   2.607  24.821  0.00  0.00    +0.140 A 
ATOM      8  N   UNL     1      -3.076   3.423  24.858  0.00  0.00    -0.229 NA
ATOM     24  C   UNL     1      -0.964   3.378  24.961  0.00  0.00    +0.020 A 
ATOM     25  C   UNL     1      -0.735   4.168  25.013  0.00  0.00    -0.003 A 
ENDBRANCH   9   7
BRANCH  12  13
ATOM     13  C   UNL     1      -4.565   0.226  25.276  0.00  0.00    +0.099 C 
BRANCH  13  14
ATOM     14  C   UNL     1      -4.196  -0.479  25.059  0.00  0.00    -0.006 A 
ATOM     15  C   UNL     1      -4.340  -0.809  24.316  0.00  0.00    -0.003 A 
ATOM     16  C   UNL     1      -3.971  -1.514  24.101  0.00  0.00    +0.006 A 
ATOM     17  C   UNL     1      -3.459  -1.890  24.626  0.00  0.00    +0.080 A 
ATOM     18  C   UNL     1      -3.315  -1.561  25.369  0.00  0.00    +0.006 A 
ATOM     19  C   UNL     1      -3.684  -0.855  25.586  0.00  0.00    -0.003 A 
BRANCH  17  20
ATOM     20  C   UNL     1      -3.090  -2.595  24.410  0.00  0.00    +0.388 C 
ATOM     21  O   UNL     1      -2.273  -2.618  24.302  0.00  0.00    -0.241 OA
ATOM     22  O   UNL     1      -3.539  -3.280  24.301  0.00  0.00    -0.241 OA
ENDBRANCH  17  20
ENDBRANCH  13  14
ENDBRANCH  12  13
TORSDOF 4
ENDMDL
MODEL 3
REMARK VINA RESULT:     -12.2      2.924      5.842
REMARK  Name = 
REMARK  4 active torsions:
REMARK  status: ('A' for Active; 'I' for Inactive)
REMARK    1  A    between atoms: C_7  and  C_9
REMARK    2  A    between atoms: N_12  and  C_13
REMARK    3  A    between atoms: C_13  and  C_14
REMARK    4  A    between atoms: C_17  and  C_20
REMARK                            x       y       z     vdW  Elec       q    Type
REMARK                         _______ _______ _______ _____ _____    ______ ____
ROOT
ATOM      9  C   UNL     1      -1.056   1.224  25.104  0.00  0.00    +0.076 C 
ATOM     10  C   UNL     1      -0.515   0.848  24.608  0.00  0.00    +0.026 C 
ATOM     11  C   UNL     1      -0.555   0.037  24.753  0.00  0.00    +0.073 C 
ATOM     12  N   UNL     1      -1.123  -0.088  25.339  0.00  0.00    -0.269 NA
ATOM     23  C   UNL     1      -1.432   0.646  25.555  0.00  0.00    +0.080 C 
ENDROOT
BRANCH   9   7
ATOM      1  C   UNL     1      -1.046   5.538  24.945  0.00  0.00    +0.031 C 
ATOM      2  C   UNL     1      -1.291   4.764  25.087  0.00  0.00    -0.020 A 
ATOM      3  C   UNL     1      -0.803   4.132  24.880  0.00  0.00    +0.016 A 
ATOM      4  C   UNL     1      -1.047   3.357  25.023  0.00  0.00    +0.100 A 
ATOM      5  C   UNL     1      -1.780   3.214  25.373  0.00  0.00    +0.100 A 
ATOM      6  N   UNL     1      -1.873   2.398  25.446  0.00  0.00    -0.229 NA
ATOM      7  C   UNL     1      -1.197   2.036  25.141  0.00  0.00    +0.140 A 
ATOM      8  N   UNL     1      -0.687   2.630  24.880  0.00  0.00    -0.229 NA
ATOM     24  C   UNL     1      -2.269   3.846  25.580  0.00  0.00    +0.020 A 
ATOM     25  C   UNL     1      -2.024   4.620  25.437  0.00  0.00    -0.003 A 
ENDBRANCH   9   7
BRANCH  12  13
ATOM     13  C   UNL     1      -1.342  -0.818  25.653  0.00  0.00    +0.099 C 
BRANCH  13  14
ATOM     14  C   UNL     1      -1.957  -1.249  25.308  0.00  0.00    -0.006 A 
ATOM     15  C   UNL     1      -1.792  -1.804  24.720  0.00  0.00    -0.003 A 
ATOM     16  C   UNL     1      -2.407  -2.233  24.376  0.00  0.00    +0.006 A 
ATOM     17  C   UNL     1      -3.185  -2.109  24.620  0.00  0.00    +0.080 A 
ATOM     18  C   UNL     1      -3.349  -1.554  25.208  0.00  0.00    +0.006 A 
ATOM     19  C   UNL     1      -2.735  -1.124  25.553  0.00  0.00    -0.003 A 
BRANCH  17  20
ATOM     20  C   UNL     1      -3.798  -2.539  24.275  0.00  0.00    +0.388 C 
ATOM     21  O   UNL     1      -3.832  -3.357  24.369  0.00  0.00    -0.241 OA
ATOM     22  O   UNL     1      -4.379  -2.150  23.836  0.00  0.00    -0.241 OA
ENDBRANCH  17  20
ENDBRANCH  13  14
ENDBRANCH  12  13
TORSDOF 4
ENDMDL
MODEL 4
REMARK VINA RESULT:     -12.0      1.958      2.598
REMARK  Name = 
REMARK  4 active torsions:
REMARK  status: ('A' for Active; 'I' for Inactive)
REMARK    1  A    between atoms: C_7  and  C_9
REMARK    2  A    between atoms: N_12  and  C_13
REMARK    3  A    between atoms: C_13  and  C_14
REMARK    4  A    between atoms: C_17  and  C_20
REMARK                            x       y       z     vdW  Elec       q    Type
REMARK                         _______ _______ _______ _____ _____    ______ ____
ROOT
ATOM      9  C   UNL     1      -1.311   0.308  24.753  0.00  0.00    +0.076 C 
ATOM     10  C   UNL     1      -0.622   0.383  24.306  0.00  0.00    +0.026 C 
ATOM     11  C   UNL     1      -0.185   1.013  24.612  0.00  0.00    +0.073 C 
ATOM     12  N   UNL     1      -0.604   1.328  25.249  0.00  0.00    -0.269 NA
ATOM     23  C   UNL     1      -1.300   0.892  25.336  0.00  0.00    +0.080 C 
ENDROOT
BRANCH   9   7
ATOM      1  C   UNL     1      -3.848  -3.165  24.397  0.00  0.00    +0.031 C 
ATOM      2  C   UNL     1      -3.592  -2.382  24.379  0.00  0.00    -0.020 A 
ATOM      3  C   UNL     1      -2.819  -2.196  24.597  0.00  0.00    +0.016 A 
ATOM      4  C   UNL     1      -2.561  -1.412  24.579  0.00  0.00    +0.100 A 
ATOM      5  C   UNL     1      -3.078  -0.814  24.343  0.00  0.00    +0.100 A 
ATOM      6  N   UNL     1      -2.673  -0.097  24.379  0.00  0.00    -0.229 NA
ATOM      7  C   UNL     1      -1.905  -0.252  24.638  0.00  0.00    +0.140 A 
ATOM      8  N   UNL     1      -1.837  -1.064  24.761  0.00  0.00    -0.229 NA
ATOM     24  C   UNL     1      -3.853  -1.000  24.125  0.00  0.00    +0.020 A 
ATOM     25  C   UNL     1      -4.109  -1.784  24.143  0.00  0.00    -0.003 A 
ENDBRANCH   9   7
BRANCH  12  13
ATOM     13  C   UNL     1      -0.370   1.965  25.716  0.00  0.00    +0.099 C 
BRANCH  13  14
ATOM     14  C   UNL     1      -0.687   2.715  25.581  0.00  0.00    -0.006 A 
ATOM     15  C   UNL     1      -0.345   3.213  25.018  0.00  0.00    -0.003 A 
ATOM     16  C   UNL     1      -0.662   3.962  24.884  0.00  0.00    +0.006 A 
ATOM     17  C   UNL     1      -1.321   4.215  25.310  0.00  0.00    +0.080 A 
ATOM     18  C   UNL     1      -1.663   3.717  25.873  0.00  0.00    +0.006 A 
ATOM     19  C   UNL     1      -1.347   2.967  26.008  0.00  0.00    -0.003 A 
BRANCH  17  20
ATOM     20  C   UNL     1      -1.638   4.964  25.175  0.00  0.00    +0.388 C 
ATOM     21  O   UNL     1      -2.454   5.076  25.192  0.00  0.00    -0.241 OA
ATOM     22  O   UNL     1      -1.137   5.602  25.023  0.00  0.00    -0.241 OA
ENDBRANCH  17  20
ENDBRANCH  13  14
ENDBRANCH  12  13
TORSDOF 4
ENDMDL
MODEL 5
REMARK VINA RESULT:     -11.0      2.020      2.595
REMARK  Name = 
REMARK  4 active torsions:
REMARK  status: ('A' for Active; 'I' for Inactive)
REMARK    1  A    between atoms: C_7  and  C_9
REMARK    2  A    between atoms: N_12  and  C_13
REMARK    3  A    between atoms: C_13  and  C_14
REMARK    4  A    between atoms: C_17  and  C_20
REMARK                            x       y       z     vdW  Elec       q    Type
REMARK                         _______ _______ _______ _____ _____    ______ ____
ROOT
ATOM      9  C   UNL     1      -1.987   0.924  24.798  0.00  0.00    +0.076 C 
ATOM     10  C   UNL     1      -1.327   1.297  25.123  0.00  0.00    +0.026 C 
ATOM     11  C   UNL     1      -1.439   2.112  25.063  0.00  0.00    +0.073 C 
ATOM     12  N   UNL     1      -2.168   2.243  24.701  0.00  0.00    -0.269 NA
ATOM     23  C   UNL     1      -2.506   1.508  24.536  0.00  0.00    +0.080 C 
ENDROOT
BRANCH   9   7
ATOM      1  C   UNL     1      -3.412  -3.145  24.574  0.00  0.00    +0.031 C 
ATOM      2  C   UNL     1      -2.902  -2.497  24.593  0.00  0.00    -0.020 A 
ATOM      3  C   UNL     1      -3.206  -1.735  24.669  0.00  0.00    +0.016 A 
ATOM      4  C   UNL     1      -2.696  -1.086  24.688  0.00  0.00    +0.100 A 
ATOM      5  C   UNL     1      -1.881  -1.201  24.630  0.00  0.00    +0.100 A 
ATOM      6  N   UNL     1      -1.516  -0.463  24.664  0.00  0.00    -0.229 NA
ATOM      7  C   UNL     1      -2.105   0.109  24.743  0.00  0.00    +0.140 A 
ATOM      8  N   UNL     1      -2.834  -0.277  24.757  0.00  0.00    -0.229 NA
ATOM     24  C   UNL     1      -1.576  -1.965  24.554  0.00  0.00    +0.020 A 
ATOM     25  C   UNL     1      -2.087  -2.612  24.536  0.00  0.00    -0.003 A 
ENDBRANCH   9   7
BRANCH  12  13
ATOM     13  C   UNL     1      -2.501   2.978  24.532  0.00  0.00    +0.099 C 
BRANCH  13  14
ATOM     14  C   UNL     1      -3.251   3.168  24.818  0.00  0.00    -0.006 A 
ATOM     15  C   UNL     1      -3.915   3.061  24.340  0.00  0.00    -0.003 A 
ATOM     16  C   UNL     1      -4.664   3.251  24.628  0.00  0.00    +0.006 A 
ATOM     17  C   UNL     1      -4.751   3.548  25.392  0.00  0.00    +0.080 A 
ATOM     18  C   UNL     1      -4.087   3.656  25.870  0.00  0.00    +0.006 A 
ATOM     19  C   UNL     1      -3.336   3.466  25.583  0.00  0.00    -0.003 A 
BRANCH  17  20
ATOM     20  C   UNL     1      -5.500   3.738  25.678  0.00  0.00    +0.388 C 
ATOM     21  O   UNL     1      -5.790   4.506  25.600  0.00  0.00    -0.241 OA
ATOM     22  O   UNL     1      -5.961   3.159  26.044  0.00  0.00    -0.241 OA
ENDBRANCH  17  20
ENDBRANCH  13  14
ENDBRANCH  12  13
TORSDOF 4
ENDMDL
MODEL 6
REMARK VINA RESULT:      -9.6      2.868      4.508
REMARK  Name = 
REMARK  4 active torsions:
REMARK  status: ('A' for Active; 'I' for Inactive)
REMARK    1  A    between atoms: C_7  and  C_9
REMARK    2  A    between atoms: N_12  and  C_13
REMARK    3  A    between atoms: C_13  and  C_14
REMARK    4  A    between atoms: C_17  and  C_20
REMARK                            x       y       z     vdW  Elec       q    Type
REMARK                         _______ _______ _______ _____ _____    ______ ____
ROOT
ATOM      9  C   UNL     1      -3.225   0.331  24.904  0.00  0.00    +0.076 C 
ATOM     10  C   UNL     1      -3.314  -0.381  24.498  0.00  0.00    +0.026 C 
ATOM     11  C   UNL     1      -2.596  -0.786  24.532  0.00  0.00    +0.073 C 
ATOM     12  N   UNL     1      -2.063  -0.324  24.959  0.00  0.00    -0.269 NA
ATOM     23  C   UNL     1      -2.452   0.367  25.189  0.00  0.00    +0.080 C 
ENDROOT
BRANCH   9   7
ATOM      1  C   UNL     1      -5.633   3.874  25.436  0.00  0.00    +0.031 C 
ATOM      2  C   UNL     1      -5.420   3.083  25.344  0.00  0.00    -0.020 A 
ATOM      3  C   UNL     1      -4.626   2.877  25.259  0.00  0.00    +0.016 A 
ATOM      4  C   UNL     1      -4.412   2.086  25.167  0.00  0.00    +0.100 A 
ATOM      5  C   UNL     1      -4.992   1.500  25.161  0.00  0.00    +0.100 A 
ATOM      6  N   UNL     1      -4.619   0.772  25.062  0.00  0.00    -0.229 NA
ATOM      7  C   UNL     1      -3.807   0.907  25.006  0.00  0.00    +0.140 A 
ATOM      8  N   UNL     1      -3.680   1.719  25.071  0.00  0.00    -0.229 NA
ATOM     24  C   UNL     1      -5.788   1.706  25.247  0.00  0.00    +0.020 A 
ATOM     25  C   UNL     1      -6.001   2.497  25.339  0.00  0.00    -0.003 A 
ENDBRANCH   9   7
BRANCH  12  13
ATOM     13  C   UNL     1      -1.280  -0.517  25.128  0.00  0.00    +0.099 C 
BRANCH  13  14
ATOM     14  C   UNL     1      -0.688  -0.366  24.572  0.00  0.00    -0.006 A 
ATOM     15  C   UNL     1      -0.421   0.406  24.454  0.00  0.00    -0.003 A 
ATOM     16  C   UNL     1       0.170   0.557  23.899  0.00  0.00    +0.006 A 
ATOM     17  C   UNL     1       0.495  -0.063  23.462  0.00  0.00    +0.080 A 
ATOM     18  C   UNL     1       0.227  -0.835  23.580  0.00  0.00    +0.006 A 
ATOM     19  C   UNL     1      -0.364  -0.986  24.136  0.00  0.00    -0.003 A 
BRANCH  17  20
ATOM     20  C   UNL     1       1.085   0.089  22.907  0.00  0.00    +0.388 C 
ATOM     21  O   UNL     1       1.020  -0.212  22.142  0.00  0.00    -0.241 OA
ATOM     22  O   UNL     1       1.743   0.542  23.118  0.00  0.00    -0.241 OA
ENDBRANCH  17  20
ENDBRANCH  13  14
ENDBRANCH  12  13
TORSDOF 4
ENDMDL
