MODEL 1
REMARK VINA RESULT:      -9.5      0.000      0.000
REMARK  Name = 
REMARK  5 active torsions:
REMARK  status: ('A' for Active; 'I' for Inactive)
REMARK    1  A    between atoms: O_2  and  C_3
REMARK    2  A    between atoms: C_6  and  C_9
REMARK    3  A    between atoms: N_14  and  C_15
REMARK    4  A    between atoms: C_19  and  N_23
REMARK    5  A    between atoms: N_26  and  C_27
REMARK                            x       y       z     vdW  Elec       q    Type
REMARK                         _______ _______ _______ _____ _____    ______ ____
ROOT
ATOM     15  C   UNL     1      -0.394   0.705  23.884  0.00  0.00    +0.154 C 
ATOM     16  C   UNL     1      -0.829   0.006  23.830  0.00  0.00    +0.166 C 
ATOM     17  O   UNL     1      -1.627   0.207  23.770  0.00  0.00    -0.350 OA
ATOM     18  C   UNL     1      -1.685   1.029  23.788  0.00  0.00    +0.166 C 
ATOM     19  C   UNL     1      -2.213   1.662  23.763  0.00  0.00    +0.156 C 
ATOM     20  C   UNL     1      -1.778   2.361  23.817  0.00  0.00    +0.166 C 
ATOM     21  O   UNL     1      -0.981   2.160  23.877  0.00  0.00    -0.350 OA
ATOM     22  C   UNL     1      -0.923   1.337  23.859  0.00  0.00    +0.166 C 
ENDROOT
BRANCH  15  14
ATOM      9  C   UNL     1       2.219   0.150  22.866  0.00  0.00    +0.086 A 
ATOM     10  C   UNL     1       1.884  -0.240  22.220  0.00  0.00    +0.040 A 
ATOM     11  C   UNL     1       1.063  -0.296  22.152  0.00  0.00    +0.103 A 
ATOM     12  N   UNL     1       0.577   0.037  22.729  0.00  0.00    -0.211 NA
ATOM     13  C   UNL     1       0.913   0.427  23.375  0.00  0.00    +0.237 A 
ATOM     14  N   UNL     1       0.427   0.761  23.952  0.00  0.00    -0.200 NA
ATOM     33  N   UNL     1       1.732   0.483  23.443  0.00  0.00    -0.212 NA
BRANCH   9   6
ATOM      3  C   UNL     1       4.680   0.317  23.069  0.00  0.00    +0.139 A 
ATOM      4  C   UNL     1       4.246   0.952  22.769  0.00  0.00    +0.037 A 
ATOM      5  C   UNL     1       3.426   0.896  22.702  0.00  0.00    +0.005 A 
ATOM      6  C   UNL     1       3.038   0.206  22.933  0.00  0.00    +0.018 A 
ATOM      7  C   UNL     1       3.471  -0.429  23.233  0.00  0.00    +0.005 A 
ATOM      8  C   UNL     1       4.292  -0.373  23.301  0.00  0.00    +0.037 A 
BRANCH   3   2
ATOM      1  C   UNL     1       5.870   0.157  23.841  0.00  0.00    +0.252 C 
ATOM      2  O   UNL     1       5.499   0.373  23.137  0.00  0.00    -0.471 OA
ENDBRANCH   3   2
ENDBRANCH   9   6
ENDBRANCH  15  14
BRANCH  19  23
ATOM     23  N   UNL     1      -3.034   1.606  23.695  0.00  0.00    -0.184 NA
ATOM     24  C   UNL     1      -3.520   1.924  24.281  0.00  0.00    +0.339 C 
ATOM     25  O   UNL     1      -3.185   2.297  24.936  0.00  0.00    -0.249 OA
ATOM     26  N   UNL     1      -4.339   1.868  24.214  0.00  0.00    -0.189 NA
BRANCH  26  27
ATOM     27  C   UNL     1      -4.825   2.185  24.800  0.00  0.00    +0.097 C 
ATOM     28  C   UNL     1      -4.911   3.002  24.868  0.00  0.00    +0.022 C 
ATOM     29  C   UNL     1      -5.396   3.320  25.454  0.00  0.00    +0.002 C 
ATOM     30  C   UNL     1      -5.797   2.819  25.973  0.00  0.00    +0.000 C 
ATOM     31  C   UNL     1      -5.711   2.001  25.906  0.00  0.00    +0.002 C 
ATOM     32  C   UNL     1      -5.225   1.684  25.319  0.00  0.00    +0.022 C 
ENDBRANCH  26  27
ENDBRANCH  19  23
TORSDOF 5
ENDMDL
MODEL 2
REMARK VINA RESULT:      -9.4      1.160      7.404
REMARK  Name = 
REMARK  5 active torsions:
REMARK  status: ('A' for Active; 'I' for Inactive)
REMARK    1  A    between atoms: O_2  and  C_3
REMARK    2  A    between atoms: C_6  and  C_9
REMARK    3  A    between atoms: N_14  and  C_15
REMARK    4  A    between atoms: C_19  and  N_23
REMARK    5  A    between atoms: N_26  and  C_27
REMARK                            x       y       z     vdW  Elec       q    Type
REMARK                         _______ _______ _______ _____ _____    ______ ____
ROOT
ATOM     15  C   UNL     1      -1.009   0.653  24.452  0.00  0.00    +0.154 C 
ATOM     16  C   UNL     1      -1.015  -0.170  24.400  0.00  0.00    +0.166 C 
ATOM     17  O   UNL     1      -0.331  -0.405  24.003  0.00  0.00    -0.350 OA
ATOM     18  C   UNL     1       0.098   0.272  23.811  0.00  0.00    +0.166 C 
ATOM     19  C   UNL     1       0.785   0.547  23.447  0.00  0.00    +0.156 C 
ATOM     20  C   UNL     1       0.792   1.370  23.499  0.00  0.00    +0.166 C 
ATOM     21  O   UNL     1       0.107   1.604  23.896  0.00  0.00    -0.350 OA
ATOM     22  C   UNL     1      -0.322   0.926  24.088  0.00  0.00    +0.166 C 
ENDROOT
BRANCH  15  14
ATOM      9  C   UNL     1      -3.709   1.583  24.568  0.00  0.00    +0.086 A 
ATOM     10  C   UNL     1      -3.899   1.114  23.917  0.00  0.00    +0.040 A 
ATOM     11  C   UNL     1      -3.319   0.646  23.562  0.00  0.00    +0.103 A 
ATOM     12  N   UNL     1      -2.549   0.648  23.859  0.00  0.00    -0.211 NA
ATOM     13  C   UNL     1      -2.359   1.118  24.510  0.00  0.00    +0.237 A 
ATOM     14  N   UNL     1      -1.589   1.120  24.807  0.00  0.00    -0.200 NA
ATOM     33  N   UNL     1      -2.939   1.586  24.864  0.00  0.00    -0.212 NA
BRANCH   9   6
ATOM      3  C   UNL     1      -5.450   2.986  25.630  0.00  0.00    +0.139 A 
ATOM      4  C   UNL     1      -5.545   2.167  25.594  0.00  0.00    +0.037 A 
ATOM      5  C   UNL     1      -4.965   1.700  25.240  0.00  0.00    +0.005 A 
ATOM      6  C   UNL     1      -4.289   2.051  24.922  0.00  0.00    +0.018 A 
ATOM      7  C   UNL     1      -4.194   2.869  24.958  0.00  0.00    +0.005 A 
ATOM      8  C   UNL     1      -4.774   3.337  25.312  0.00  0.00    +0.037 A 
BRANCH   3   2
ATOM      1  C   UNL     1      -6.156   4.224  25.720  0.00  0.00    +0.252 C 
ATOM      2  O   UNL     1      -6.030   3.453  25.984  0.00  0.00    -0.471 OA
ENDBRANCH   3   2
ENDBRANCH   9   6
ENDBRANCH  15  14
BRANCH  19  23
ATOM     23  N   UNL     1       1.366   0.079  23.092  0.00  0.00    -0.184 NA
ATOM     24  C   UNL     1       2.164   0.260  23.198  0.00  0.00    +0.339 C 
ATOM     25  O   UNL     1       2.381   0.910  23.658  0.00  0.00    -0.249 OA
ATOM     26  N   UNL     1       2.743  -0.207  22.844  0.00  0.00    -0.189 NA
BRANCH  26  27
ATOM     27  C   UNL     1       3.541  -0.025  22.949  0.00  0.00    +0.097 C 
ATOM     28  C   UNL     1       3.867   0.636  22.580  0.00  0.00    +0.022 C 
ATOM     29  C   UNL     1       4.664   0.818  22.685  0.00  0.00    +0.002 C 
ATOM     30  C   UNL     1       5.137   0.337  23.161  0.00  0.00    +0.000 C 
ATOM     31  C   UNL     1       4.812  -0.325  23.531  0.00  0.00    +0.002 C 
ATOM     32  C   UNL     1       4.014  -0.506  23.425  0.00  0.00    +0.022 C 
ENDBRANCH  26  27
ENDBRANCH  19  23
TORSDOF 5
ENDMDL
MODEL 3
REMARK VINA RESULT:      -6.8     14.860     17.124
REMARK  Name = 
REMARK  5 active torsions:
REMARK  status: ('A' for Active; 'I' for Inactive)
REMARK    1  A    between atoms: O_2  and  C_3
REMARK    2  A    between atoms: C_6  and  C_9
REMARK    3  A    between atoms: N_14  and  C_15
REMARK    4  A    between atoms: C_19  and  N_23
REMARK    5  A    between atoms: N_26  and  C_27
REMARK                            x       y       z     vdW  Elec       q    Type
REMARK                         _______ _______ _______ _____ _____    ______ ____
ROOT
ATOM     15  C   UNL     1      -6.218 -10.572  15.021  0.00  0.00    +0.154 C 
ATOM     16  C   UNL     1      -5.471 -10.438  15.343  0.00  0.00    +0.166 C 
ATOM     17  O   UNL     1      -4.933 -10.375  14.722  0.00  0.00    -0.350 OA
ATOM     18  C   UNL     1      -5.347 -10.471  14.015  0.00  0.00    +0.166 C 
ATOM     19  C   UNL     1      -5.271 -10.493  13.194  0.00  0.00    +0.156 C 
ATOM     20  C   UNL     1      -6.018 -10.627  12.871  0.00  0.00    +0.166 C 
ATOM     21  O   UNL     1      -6.556 -10.689  13.493  0.00  0.00    -0.350 OA
ATOM     22  C   UNL     1      -6.142 -10.593  14.200  0.00  0.00    +0.166 C 
ENDROOT
BRANCH  15  14
ATOM      9  C   UNL     1      -7.872  -9.904  17.255  0.00  0.00    +0.086 A 
ATOM     10  C   UNL     1      -7.296  -9.378  17.523  0.00  0.00    +0.040 A 
ATOM     11  C   UNL     1      -6.595  -9.281  17.099  0.00  0.00    +0.103 A 
ATOM     12  N   UNL     1      -6.469  -9.711  16.406  0.00  0.00    -0.211 NA
ATOM     13  C   UNL     1      -7.045 -10.238  16.138  0.00  0.00    +0.237 A 
ATOM     14  N   UNL     1      -6.919 -10.668  15.445  0.00  0.00    -0.200 NA
ATOM     33  N   UNL     1      -7.746 -10.335  16.562  0.00  0.00    -0.212 NA
BRANCH   9   6
ATOM      3  C   UNL     1      -9.974 -10.194  18.529  0.00  0.00    +0.139 A 
ATOM      4  C   UNL     1      -9.940  -9.655  17.904  0.00  0.00    +0.037 A 
ATOM      5  C   UNL     1      -9.240  -9.559  17.480  0.00  0.00    +0.005 A 
ATOM      6  C   UNL     1      -8.572 -10.001  17.679  0.00  0.00    +0.018 A 
ATOM      7  C   UNL     1      -8.605 -10.539  18.303  0.00  0.00    +0.005 A 
ATOM      8  C   UNL     1      -9.306 -10.636  18.728  0.00  0.00    +0.037 A 
BRANCH   3   2
ATOM      1  C   UNL     1     -10.649 -10.414  19.768  0.00  0.00    +0.252 C 
ATOM      2  O   UNL     1     -10.674 -10.290  18.953  0.00  0.00    -0.471 OA
ENDBRANCH   3   2
ENDBRANCH   9   6
ENDBRANCH  15  14
BRANCH  19  23
ATOM     23  N   UNL     1      -4.570 -10.396  12.769  0.00  0.00    -0.184 NA
ATOM     24  C   UNL     1      -4.594 -10.141  11.985  0.00  0.00    +0.339 C 
ATOM     25  O   UNL     1      -5.319  -9.982  11.625  0.00  0.00    -0.249 OA
ATOM     26  N   UNL     1      -3.894 -10.044  11.561  0.00  0.00    -0.189 NA
BRANCH  26  27
ATOM     27  C   UNL     1      -3.917  -9.789  10.777  0.00  0.00    +0.097 C 
ATOM     28  C   UNL     1      -3.882  -8.984  10.603  0.00  0.00    +0.022 C 
ATOM     29  C   UNL     1      -3.906  -8.728   9.820  0.00  0.00    +0.002 C 
ATOM     30  C   UNL     1      -3.965  -9.279   9.208  0.00  0.00    +0.000 C 
ATOM     31  C   UNL     1      -4.001 -10.085   9.381  0.00  0.00    +0.002 C 
ATOM     32  C   UNL     1      -3.977 -10.340  10.166  0.00  0.00    +0.022 C 
ENDBRANCH  26  27
ENDBRANCH  19  23
TORSDOF 5
ENDMDL
MODEL 4
REMARK VINA RESULT:      -6.2     14.835     15.579
REMARK  Name = 
REMARK  5 active torsions:
REMARK  status: ('A' for Active; 'I' for Inactive)
REMARK    1  A    between atoms: O_2  and  C_3
REMARK    2  A    between atoms: C_6  and  C_9
REMARK    3  A    between atoms: N_14  and  C_15
REMARK    4  A    between atoms: C_19  and  N_23
REMARK    5  A    between atoms: N_26  and  C_27
REMARK                            x       y       z     vdW  Elec       q    Type
REMARK                         _______ _______ _______ _____ _____    ______ ____
ROOT
ATOM     15  C   UNL     1      -5.800 -10.353  14.301  0.00  0.00    +0.154 C 
ATOM     16  C   UNL     1      -6.370 -10.781  13.887  0.00  0.00    +0.166 C 
ATOM     17  O   UNL     1      -7.065 -10.775  14.332  0.00  0.00    -0.350 OA
ATOM     18  C   UNL     1      -6.924 -10.342  15.020  0.00  0.00    +0.166 C 
ATOM     19  C   UNL     1      -7.265 -10.070  15.720  0.00  0.00    +0.156 C 
ATOM     20  C   UNL     1      -6.694  -9.642  16.133  0.00  0.00    +0.166 C 
ATOM     21  O   UNL     1      -6.000  -9.649  15.688  0.00  0.00    -0.350 OA
ATOM     22  C   UNL     1      -6.141 -10.081  15.000  0.00  0.00    +0.166 C 
ENDROOT
BRANCH  15  14
ATOM      9  C   UNL     1      -3.834 -10.277  12.226  0.00  0.00    +0.086 A 
ATOM     10  C   UNL     1      -4.405 -10.507  11.677  0.00  0.00    +0.040 A 
ATOM     11  C   UNL     1      -5.182 -10.641  11.921  0.00  0.00    +0.103 A 
ATOM     12  N   UNL     1      -5.388 -10.545  12.714  0.00  0.00    -0.211 NA
ATOM     13  C   UNL     1      -4.816 -10.315  13.264  0.00  0.00    +0.237 A 
ATOM     14  N   UNL     1      -5.022 -10.219  14.057  0.00  0.00    -0.200 NA
ATOM     33  N   UNL     1      -4.040 -10.181  13.019  0.00  0.00    -0.212 NA
BRANCH   9   6
ATOM      3  C   UNL     1      -1.504  -9.877  11.494  0.00  0.00    +0.139 A 
ATOM      4  C   UNL     1      -2.131  -9.523  11.090  0.00  0.00    +0.037 A 
ATOM      5  C   UNL     1      -2.907  -9.656  11.334  0.00  0.00    +0.005 A 
ATOM      6  C   UNL     1      -3.058 -10.144  11.982  0.00  0.00    +0.018 A 
ATOM      7  C   UNL     1      -2.432 -10.498  12.387  0.00  0.00    +0.005 A 
ATOM      8  C   UNL     1      -1.655 -10.364  12.142  0.00  0.00    +0.037 A 
BRANCH   3   2
ATOM      1  C   UNL     1      -0.488  -8.983  11.037  0.00  0.00    +0.252 C 
ATOM      2  O   UNL     1      -0.728  -9.743  11.250  0.00  0.00    -0.471 OA
ENDBRANCH   3   2
ENDBRANCH   9   6
ENDBRANCH  15  14
BRANCH  19  23
ATOM     23  N   UNL     1      -8.042 -10.204  15.964  0.00  0.00    -0.184 NA
ATOM     24  C   UNL     1      -8.488  -9.586  16.279  0.00  0.00    +0.339 C 
ATOM     25  O   UNL     1      -8.157  -8.834  16.350  0.00  0.00    -0.249 OA
ATOM     26  N   UNL     1      -9.264  -9.719  16.523  0.00  0.00    -0.189 NA
BRANCH  26  27
ATOM     27  C   UNL     1      -9.711  -9.101  16.838  0.00  0.00    +0.097 C 
ATOM     28  C   UNL     1      -9.996  -9.149  17.610  0.00  0.00    +0.022 C 
ATOM     29  C   UNL     1     -10.441  -8.531  17.925  0.00  0.00    +0.002 C 
ATOM     30  C   UNL     1     -10.603  -7.864  17.467  0.00  0.00    +0.000 C 
ATOM     31  C   UNL     1     -10.317  -7.815  16.694  0.00  0.00    +0.002 C 
ATOM     32  C   UNL     1      -9.871  -8.434  16.380  0.00  0.00    +0.022 C 
ENDBRANCH  26  27
ENDBRANCH  19  23
TORSDOF 5
ENDMDL
MODEL 5
REMARK VINA RESULT:      -6.1     15.176     16.775
REMARK  Name = 
REMARK  5 active torsions:
REMARK  status: ('A' for Active; 'I' for Inactive)
REMARK    1  A    between atoms: O_2  and  C_3
REMARK    2  A    between atoms: C_6  and  C_9
REMARK    3  A    between atoms: N_14  and  C_15
REMARK    4  A    between atoms: C_19  and  N_23
REMARK    5  A    between atoms: N_26  and  C_27
REMARK                            x       y       z     vdW  Elec       q    Type
REMARK                         _______ _______ _______ _____ _____    ______ ____
ROOT
ATOM     15  C   UNL     1      -5.696 -10.250  13.643  0.00  0.00    +0.154 C 
ATOM     16  C   UNL     1      -4.992 -10.474  13.277  0.00  0.00    +0.166 C 
ATOM     17  O   UNL     1      -5.062 -10.314  12.471  0.00  0.00    -0.350 OA
ATOM     18  C   UNL     1      -5.809  -9.991  12.339  0.00  0.00    +0.166 C 
ATOM     19  C   UNL     1      -6.316  -9.693  11.760  0.00  0.00    +0.156 C 
ATOM     20  C   UNL     1      -7.020  -9.469  12.127  0.00  0.00    +0.166 C 
ATOM     21  O   UNL     1      -6.949  -9.630  12.933  0.00  0.00    -0.350 OA
ATOM     22  C   UNL     1      -6.201  -9.952  13.064  0.00  0.00    +0.166 C 
ENDROOT
BRANCH  15  14
ATOM      9  C   UNL     1      -4.805 -10.527  16.345  0.00  0.00    +0.086 A 
ATOM     10  C   UNL     1      -4.022 -10.538  16.086  0.00  0.00    +0.040 A 
ATOM     11  C   UNL     1      -3.853 -10.475  15.281  0.00  0.00    +0.103 A 
ATOM     12  N   UNL     1      -4.467 -10.400  14.735  0.00  0.00    -0.211 NA
ATOM     13  C   UNL     1      -5.251 -10.389  14.995  0.00  0.00    +0.237 A 
ATOM     14  N   UNL     1      -5.865 -10.314  14.449  0.00  0.00    -0.200 NA
ATOM     33  N   UNL     1      -5.419 -10.452  15.799  0.00  0.00    -0.212 NA
BRANCH   9   6
ATOM      3  C   UNL     1      -5.311 -10.718  18.761  0.00  0.00    +0.139 A 
ATOM      4  C   UNL     1      -4.532 -10.781  18.496  0.00  0.00    +0.037 A 
ATOM      5  C   UNL     1      -4.363 -10.718  17.691  0.00  0.00    +0.005 A 
ATOM      6  C   UNL     1      -4.973 -10.590  17.150  0.00  0.00    +0.018 A 
ATOM      7  C   UNL     1      -5.752 -10.527  17.414  0.00  0.00    +0.005 A 
ATOM      8  C   UNL     1      -5.921 -10.590  18.220  0.00  0.00    +0.037 A 
BRANCH   3   2
ATOM      1  C   UNL     1      -6.230 -10.585  19.846  0.00  0.00    +0.252 C 
ATOM      2  O   UNL     1      -5.480 -10.781  19.565  0.00  0.00    -0.471 OA
ENDBRANCH   3   2
ENDBRANCH   9   6
ENDBRANCH  15  14
BRANCH  19  23
ATOM     23  N   UNL     1      -6.147  -9.629  10.955  0.00  0.00    -0.184 NA
ATOM     24  C   UNL     1      -6.679  -9.252  10.450  0.00  0.00    +0.339 C 
ATOM     25  O   UNL     1      -7.381  -8.938  10.750  0.00  0.00    -0.249 OA
ATOM     26  N   UNL     1      -6.511  -9.188   9.645  0.00  0.00    -0.189 NA
BRANCH  26  27
ATOM     27  C   UNL     1      -7.043  -8.811   9.140  0.00  0.00    +0.097 C 
ATOM     28  C   UNL     1      -7.700  -9.219   8.853  0.00  0.00    +0.022 C 
ATOM     29  C   UNL     1      -8.232  -8.842   8.349  0.00  0.00    +0.002 C 
ATOM     30  C   UNL     1      -8.107  -8.056   8.131  0.00  0.00    +0.000 C 
ATOM     31  C   UNL     1      -7.450  -7.647   8.418  0.00  0.00    +0.002 C 
ATOM     32  C   UNL     1      -6.919  -8.025   8.923  0.00  0.00    +0.022 C 
ENDBRANCH  26  27
ENDBRANCH  19  23
TORSDOF 5
ENDMDL
MODEL 6
REMARK VINA RESULT:      -6.1     15.301     17.454
REMARK  Name = 
REMARK  5 active torsions:
REMARK  status: ('A' for Active; 'I' for Inactive)
REMARK    1  A    between atoms: O_2  and  C_3
REMARK    2  A    between atoms: C_6  and  C_9
REMARK    3  A    between atoms: N_14  and  C_15
REMARK    4  A    between atoms: C_19  and  N_23
REMARK    5  A    between atoms: N_26  and  C_27
REMARK                            x       y       z     vdW  Elec       q    Type
REMARK                         _______ _______ _______ _____ _____    ______ ____
ROOT
ATOM     15  C   UNL     1      -6.876 -10.615  14.032  0.00  0.00    +0.154 C 
ATOM     16  C   UNL     1      -7.236 -10.729  13.299  0.00  0.00    +0.166 C 
ATOM     17  O   UNL     1      -6.642 -10.776  12.728  0.00  0.00    -0.350 OA
ATOM     18  C   UNL     1      -5.916 -10.691  13.108  0.00  0.00    +0.166 C 
ATOM     19  C   UNL     1      -5.099 -10.668  12.991  0.00  0.00    +0.156 C 
ATOM     20  C   UNL     1      -4.739 -10.554  13.724  0.00  0.00    +0.166 C 
ATOM     21  O   UNL     1      -5.332 -10.506  14.294  0.00  0.00    -0.350 OA
ATOM     22  C   UNL     1      -6.060 -10.591  13.914  0.00  0.00    +0.166 C 
ENDROOT
BRANCH  15  14
ATOM      9  C   UNL     1      -9.047  -9.585  15.579  0.00  0.00    +0.086 A 
ATOM     10  C   UNL     1      -9.357  -9.225  14.904  0.00  0.00    +0.040 A 
ATOM     11  C   UNL     1      -8.969  -9.303  14.180  0.00  0.00    +0.103 A 
ATOM     12  N   UNL     1      -8.271  -9.740  14.130  0.00  0.00    -0.211 NA
ATOM     13  C   UNL     1      -7.962 -10.100  14.806  0.00  0.00    +0.237 A 
ATOM     14  N   UNL     1      -7.264 -10.537  14.756  0.00  0.00    -0.200 NA
ATOM     33  N   UNL     1      -8.349 -10.022  15.529  0.00  0.00    -0.212 NA
BRANCH   9   6
ATOM      3  C   UNL     1     -10.212  -9.352  17.750  0.00  0.00    +0.139 A 
ATOM      4  C   UNL     1      -9.778  -8.720  17.444  0.00  0.00    +0.037 A 
ATOM      5  C   UNL     1      -9.390  -8.798  16.721  0.00  0.00    +0.005 A 
ATOM      6  C   UNL     1      -9.435  -9.507  16.302  0.00  0.00    +0.018 A 
ATOM      7  C   UNL     1      -9.869 -10.139  16.607  0.00  0.00    +0.005 A 
ATOM      8  C   UNL     1     -10.257 -10.062  17.331  0.00  0.00    +0.037 A 
BRANCH   3   2
ATOM      1  C   UNL     1     -10.500  -9.847  19.059  0.00  0.00    +0.252 C 
ATOM      2  O   UNL     1     -10.600  -9.275  18.474  0.00  0.00    -0.471 OA
ENDBRANCH   3   2
ENDBRANCH   9   6
ENDBRANCH  15  14
BRANCH  19  23
ATOM     23  N   UNL     1      -4.711 -10.746  12.267  0.00  0.00    -0.184 NA
ATOM     24  C   UNL     1      -3.981 -10.379  12.148  0.00  0.00    +0.339 C 
ATOM     25  O   UNL     1      -3.640  -9.935  12.753  0.00  0.00    -0.249 OA
ATOM     26  N   UNL     1      -3.593 -10.457  11.425  0.00  0.00    -0.189 NA
BRANCH  26  27
ATOM     27  C   UNL     1      -2.864 -10.090  11.306  0.00  0.00    +0.097 C 
ATOM     28  C   UNL     1      -2.207 -10.327  11.744  0.00  0.00    +0.022 C 
ATOM     29  C   UNL     1      -1.478  -9.961  11.626  0.00  0.00    +0.002 C 
ATOM     30  C   UNL     1      -1.405  -9.357  11.068  0.00  0.00    +0.000 C 
ATOM     31  C   UNL     1      -2.062  -9.120  10.629  0.00  0.00    +0.002 C 
ATOM     32  C   UNL     1      -2.791  -9.487  10.748  0.00  0.00    +0.022 C 
ENDBRANCH  26  27
ENDBRANCH  19  23
TORSDOF 5
ENDMDL
MODEL 7
REMARK VINA RESULT:      -6.0     16.397     17.614
REMARK  Name = 
REMARK  5 active torsions:
REMARK  status: ('A' for Active; 'I' for Inactive)
REMARK    1  A    between atoms: O_2  and  C_3
REMARK    2  A    between atoms: C_6  and  C_9
REMARK    3  A    between atoms: N_14  and  C_15
REMARK    4  A    between atoms: C_19  and  N_23
REMARK    5  A    between atoms: N_26  and  C_27
REMARK                            x       y       z     vdW  Elec       q    Type
REMARK                         _______ _______ _______ _____ _____    ______ ____
ROOT
ATOM     15  C   UNL     1      -5.008  -9.379  10.022  0.00  0.00    +0.154 C 
ATOM     16  C   UNL     1      -5.378 -10.005   9.633  0.00  0.00    +0.166 C 
ATOM     17  O   UNL     1      -5.963  -9.690   9.144  0.00  0.00    -0.350 OA
ATOM     18  C   UNL     1      -5.955  -8.871   9.230  0.00  0.00    +0.166 C 
ATOM     19  C   UNL     1      -6.310  -8.169   8.982  0.00  0.00    +0.156 C 
ATOM     20  C   UNL     1      -5.941  -7.543   9.372  0.00  0.00    +0.166 C 
ATOM     21  O   UNL     1      -5.356  -7.858   9.861  0.00  0.00    -0.350 OA
ATOM     22  C   UNL     1      -5.364  -8.678   9.774  0.00  0.00    +0.166 C 
ENDROOT
BRANCH  15  14
ATOM      9  C   UNL     1      -3.983 -10.369  12.500  0.00  0.00    +0.086 A 
ATOM     10  C   UNL     1      -4.706 -10.736  12.653  0.00  0.00    +0.040 A 
ATOM     11  C   UNL     1      -5.324 -10.672  12.109  0.00  0.00    +0.103 A 
ATOM     12  N   UNL     1      -5.219 -10.241  11.414  0.00  0.00    -0.211 NA
ATOM     13  C   UNL     1      -4.495  -9.874  11.261  0.00  0.00    +0.237 A 
ATOM     14  N   UNL     1      -4.390  -9.443  10.566  0.00  0.00    -0.200 NA
ATOM     33  N   UNL     1      -3.878  -9.938  11.804  0.00  0.00    -0.212 NA
BRANCH   9   6
ATOM      3  C   UNL     1      -2.130 -10.562  14.130  0.00  0.00    +0.139 A 
ATOM      4  C   UNL     1      -2.897 -10.777  14.348  0.00  0.00    +0.037 A 
ATOM      5  C   UNL     1      -3.514 -10.713  13.805  0.00  0.00    +0.005 A 
ATOM      6  C   UNL     1      -3.366 -10.434  13.043  0.00  0.00    +0.018 A 
ATOM      7  C   UNL     1      -2.601 -10.219  12.824  0.00  0.00    +0.005 A 
ATOM      8  C   UNL     1      -1.982 -10.283  13.367  0.00  0.00    +0.037 A 
BRANCH   3   2
ATOM      1  C   UNL     1      -1.677 -10.778  15.467  0.00  0.00    +0.252 C 
ATOM      2  O   UNL     1      -1.513 -10.627  14.672  0.00  0.00    -0.471 OA
ENDBRANCH   3   2
ENDBRANCH   9   6
ENDBRANCH  15  14
BRANCH  19  23
ATOM     23  N   UNL     1      -6.928  -8.104   8.439  0.00  0.00    -0.184 NA
ATOM     24  C   UNL     1      -7.648  -7.774   8.670  0.00  0.00    +0.339 C 
ATOM     25  O   UNL     1      -7.750  -7.507   9.444  0.00  0.00    -0.249 OA
ATOM     26  N   UNL     1      -8.266  -7.709   8.127  0.00  0.00    -0.189 NA
BRANCH  26  27
ATOM     27  C   UNL     1      -8.985  -7.379   8.358  0.00  0.00    +0.097 C 
ATOM     28  C   UNL     1      -9.540  -7.837   8.761  0.00  0.00    +0.022 C 
ATOM     29  C   UNL     1     -10.259  -7.507   8.991  0.00  0.00    +0.002 C 
ATOM     30  C   UNL     1     -10.425  -6.716   8.819  0.00  0.00    +0.000 C 
ATOM     31  C   UNL     1      -9.870  -6.257   8.416  0.00  0.00    +0.002 C 
ATOM     32  C   UNL     1      -9.150  -6.589   8.186  0.00  0.00    +0.022 C 
ENDBRANCH  26  27
ENDBRANCH  19  23
TORSDOF 5
ENDMDL
MODEL 8
REMARK VINA RESULT:      -5.9     15.802     17.745
REMARK  Name = 
REMARK  5 active torsions:
REMARK  status: ('A' for Active; 'I' for Inactive)
REMARK    1  A    between atoms: O_2  and  C_3
REMARK    2  A    between atoms: C_6  and  C_9
REMARK    3  A    between atoms: N_14  and  C_15
REMARK    4  A    between atoms: C_19  and  N_23
REMARK    5  A    between atoms: N_26  and  C_27
REMARK                            x       y       z     vdW  Elec       q    Type
REMARK                         _______ _______ _______ _____ _____    ______ ____
ROOT
ATOM     15  C   UNL     1      -8.425  -9.846  13.817  0.00  0.00    +0.154 C 
ATOM     16  C   UNL     1      -8.978  -9.774  13.209  0.00  0.00    +0.166 C 
ATOM     17  O   UNL     1      -8.567  -9.650  12.505  0.00  0.00    -0.350 OA
ATOM     18  C   UNL     1      -7.761  -9.647  12.677  0.00  0.00    +0.166 C 
ATOM     19  C   UNL     1      -7.008  -9.568  12.348  0.00  0.00    +0.156 C 
ATOM     20  C   UNL     1      -6.455  -9.640  12.956  0.00  0.00    +0.166 C 
ATOM     21  O   UNL     1      -6.866  -9.764  13.660  0.00  0.00    -0.350 OA
ATOM     22  C   UNL     1      -7.673  -9.768  13.488  0.00  0.00    +0.166 C 
ENDROOT
BRANCH  15  14
ATOM      9  C   UNL     1     -10.040  -9.331  16.119  0.00  0.00    +0.086 A 
ATOM     10  C   UNL     1     -10.508  -8.816  15.675  0.00  0.00    +0.040 A 
ATOM     11  C   UNL     1     -10.338  -8.687  14.878  0.00  0.00    +0.103 A 
ATOM     12  N   UNL     1      -9.700  -9.073  14.524  0.00  0.00    -0.211 NA
ATOM     13  C   UNL     1      -9.233  -9.589  14.968  0.00  0.00    +0.237 A 
ATOM     14  N   UNL     1      -8.595  -9.975  14.614  0.00  0.00    -0.200 NA
ATOM     33  N   UNL     1      -9.402  -9.717  15.765  0.00  0.00    -0.212 NA
BRANCH   9   6
ATOM      3  C   UNL     1     -10.550  -9.716  18.510  0.00  0.00    +0.139 A 
ATOM      4  C   UNL     1     -10.390  -8.953  18.239  0.00  0.00    +0.037 A 
ATOM      5  C   UNL     1     -10.220  -8.825  17.443  0.00  0.00    +0.005 A 
ATOM      6  C   UNL     1     -10.210  -9.459  16.915  0.00  0.00    +0.018 A 
ATOM      7  C   UNL     1     -10.369 -10.222  17.185  0.00  0.00    +0.005 A 
ATOM      8  C   UNL     1     -10.539 -10.351  17.982  0.00  0.00    +0.037 A 
BRANCH   3   2
ATOM      1  C   UNL     1     -10.437 -10.521  19.684  0.00  0.00    +0.252 C 
ATOM      2  O   UNL     1     -10.720  -9.845  19.306  0.00  0.00    -0.471 OA
ENDBRANCH   3   2
ENDBRANCH   9   6
ENDBRANCH  15  14
BRANCH  19  23
ATOM     23  N   UNL     1      -6.839  -9.439  11.551  0.00  0.00    -0.184 NA
ATOM     24  C   UNL     1      -6.057  -9.459  11.287  0.00  0.00    +0.339 C 
ATOM     25  O   UNL     1      -5.445  -9.607  11.820  0.00  0.00    -0.249 OA
ATOM     26  N   UNL     1      -5.887  -9.330  10.490  0.00  0.00    -0.189 NA
BRANCH  26  27
ATOM     27  C   UNL     1      -5.106  -9.349  10.226  0.00  0.00    +0.097 C 
ATOM     28  C   UNL     1      -4.650  -8.663  10.236  0.00  0.00    +0.022 C 
ATOM     29  C   UNL     1      -3.869  -8.682   9.972  0.00  0.00    +0.002 C 
ATOM     30  C   UNL     1      -3.543  -9.389   9.698  0.00  0.00    +0.000 C 
ATOM     31  C   UNL     1      -4.000 -10.077   9.688  0.00  0.00    +0.002 C 
ATOM     32  C   UNL     1      -4.781 -10.056   9.952  0.00  0.00    +0.022 C 
ENDBRANCH  26  27
ENDBRANCH  19  23
TORSDOF 5
ENDMDL
