MODEL 1
REMARK VINA RESULT:     -11.5      0.000      0.000
REMARK  Name = 
REMARK  8 active torsions:
REMARK  status: ('A' for Active; 'I' for Inactive)
REMARK    1  A    between atoms: C_2  and  N_3
REMARK    2  A    between atoms: N_3  and  C_4
REMARK    3  A    between atoms: C_6  and  C_8
REMARK    4  A    between atoms: C_8  and  C_9
REMARK    5  A    between atoms: C_14  and  C_15
REMARK    6  A    between atoms: C_15  and  C_16
REMARK    7  A    between atoms: C_19  and  C_20
REMARK    8  A    between atoms: C_20  and  C_21
REMARK                            x       y       z     vdW  Elec       q    Type
REMARK                         _______ _______ _______ _____ _____    ______ ____
ROOT
ATOM      9  C   UNL     1      -3.945   2.939  25.156  0.00  0.00    +0.012 C 
ATOM     10  C   UNL     1      -4.398   3.518  25.531  0.00  0.00    +0.019 C 
ATOM     11  C   UNL     1      -5.209   3.407  25.633  0.00  0.00    +0.089 C 
ATOM     12  N   UNL     1      -5.567   2.715  25.359  0.00  0.00    -0.218 NA
ATOM     13  C   UNL     1      -5.114   2.136  24.985  0.00  0.00    +0.089 C 
ATOM     14  C   UNL     1      -4.303   2.249  24.883  0.00  0.00    +0.024 C 
ENDROOT
BRANCH   9   8
ATOM      8  C   UNL     1      -3.134   3.052  25.055  0.00  0.00    +0.085 C 
BRANCH   8   6
ATOM      3  N   UNL     1      -2.006   3.903  25.259  0.00  0.00    -0.280 N 
ATOM      6  C   UNL     1      -2.812   3.808  25.113  0.00  0.00    +0.226 C 
ATOM      7  O   UNL     1      -3.296   4.471  25.026  0.00  0.00    -0.275 OA
BRANCH   3   2
ATOM      1  C   UNL     1      -1.038   4.872  24.850  0.00  0.00    +0.023 C 
ATOM      2  C   UNL     1      -1.683   4.660  25.318  0.00  0.00    +0.093 C 
ENDBRANCH   3   2
BRANCH   3   4
ATOM      4  C   UNL     1      -1.522   3.241  25.347  0.00  0.00    +0.093 C 
ATOM      5  C   UNL     1      -0.890   3.259  25.878  0.00  0.00    +0.023 C 
ENDBRANCH   3   4
ENDBRANCH   8   6
ENDBRANCH   9   8
BRANCH  14  15
ATOM     15  C   UNL     1      -3.851   1.670  24.508  0.00  0.00    +0.051 C 
BRANCH  15  16
ATOM     16  C   UNL     1      -4.008   0.871  24.644  0.00  0.00    +0.100 A 
ATOM     17  N   UNL     1      -4.618   0.433  24.303  0.00  0.00    -0.082 NA
ATOM     18  O   UNL     1      -4.569  -0.338  24.593  0.00  0.00    -0.358 OA
ATOM     19  C   UNL     1      -3.929  -0.377  25.112  0.00  0.00    +0.154 A 
ATOM     27  C   UNL     1      -3.582   0.371  25.144  0.00  0.00    +0.054 A 
BRANCH  19  20
ATOM     20  C   UNL     1      -3.681  -1.045  25.527  0.00  0.00    +0.067 C 
BRANCH  20  21
ATOM     21  C   UNL     1      -3.278  -1.649  25.135  0.00  0.00    +0.008 C 
ATOM     22  C   UNL     1      -2.455  -1.623  25.076  0.00  0.00    +0.000 C 
ATOM     23  C   UNL     1      -2.051  -2.226  24.684  0.00  0.00    +0.000 C 
ATOM     24  C   UNL     1      -2.470  -2.855  24.352  0.00  0.00    +0.000 C 
ATOM     25  C   UNL     1      -3.292  -2.880  24.411  0.00  0.00    +0.000 C 
ATOM     26  C   UNL     1      -3.696  -2.277  24.803  0.00  0.00    +0.000 C 
ENDBRANCH  20  21
ENDBRANCH  19  20
ENDBRANCH  15  16
ENDBRANCH  14  15
TORSDOF 8
ENDMDL
MODEL 2
REMARK VINA RESULT:     -11.1      2.052      2.939
REMARK  Name = 
REMARK  8 active torsions:
REMARK  status: ('A' for Active; 'I' for Inactive)
REMARK    1  A    between atoms: C_2  and  N_3
REMARK    2  A    between atoms: N_3  and  C_4
REMARK    3  A    between atoms: C_6  and  C_8
REMARK    4  A    between atoms: C_8  and  C_9
REMARK    5  A    between atoms: C_14  and  C_15
REMARK    6  A    between atoms: C_15  and  C_16
REMARK    7  A    between atoms: C_19  and  C_20
REMARK    8  A    between atoms: C_20  and  C_21
REMARK                            x       y       z     vdW  Elec       q    Type
REMARK                         _______ _______ _______ _____ _____    ______ ____
ROOT
ATOM      9  C   UNL     1      -0.779   1.656  24.670  0.00  0.00    +0.012 C 
ATOM     10  C   UNL     1      -0.389   1.848  23.969  0.00  0.00    +0.019 C 
ATOM     11  C   UNL     1      -0.018   1.258  23.528  0.00  0.00    +0.089 C 
ATOM     12  N   UNL     1      -0.037   0.475  23.789  0.00  0.00    -0.218 NA
ATOM     13  C   UNL     1      -0.428   0.283  24.490  0.00  0.00    +0.089 C 
ATOM     14  C   UNL     1      -0.799   0.875  24.930  0.00  0.00    +0.024 C 
ENDROOT
BRANCH   9   8
ATOM      8  C   UNL     1      -1.150   2.248  25.110  0.00  0.00    +0.085 C 
BRANCH   8   6
ATOM      3  N   UNL     1      -1.307   3.656  25.291  0.00  0.00    -0.280 N 
ATOM      6  C   UNL     1      -0.824   3.005  25.142  0.00  0.00    +0.226 C 
ATOM      7  O   UNL     1      -0.014   3.110  25.025  0.00  0.00    -0.275 OA
BRANCH   3   2
ATOM      1  C   UNL     1      -1.360   5.042  24.946  0.00  0.00    +0.023 C 
ATOM      2  C   UNL     1      -0.982   4.413  25.323  0.00  0.00    +0.093 C 
ENDBRANCH   3   2
BRANCH   3   4
ATOM      4  C   UNL     1      -2.117   3.550  25.407  0.00  0.00    +0.093 C 
ATOM      5  C   UNL     1      -2.514   3.996  25.979  0.00  0.00    +0.023 C 
ENDBRANCH   3   4
ENDBRANCH   8   6
ENDBRANCH   9   8
BRANCH  14  15
ATOM     15  C   UNL     1      -1.189   0.683  25.631  0.00  0.00    +0.051 C 
BRANCH  15  16
ATOM     16  C   UNL     1      -1.592  -0.035  25.697  0.00  0.00    +0.100 A 
ATOM     17  N   UNL     1      -1.247  -0.775  25.814  0.00  0.00    -0.082 NA
ATOM     18  O   UNL     1      -1.851  -1.335  25.846  0.00  0.00    -0.358 OA
ATOM     19  C   UNL     1      -2.570  -0.941  25.749  0.00  0.00    +0.154 A 
ATOM     27  C   UNL     1      -2.409  -0.137  25.657  0.00  0.00    +0.054 A 
BRANCH  19  20
ATOM     20  C   UNL     1      -3.317  -1.290  25.746  0.00  0.00    +0.067 C 
BRANCH  20  21
ATOM     21  C   UNL     1      -3.590  -1.677  25.070  0.00  0.00    +0.008 C 
ATOM     22  C   UNL     1      -3.441  -2.483  24.969  0.00  0.00    +0.000 C 
ATOM     23  C   UNL     1      -3.713  -2.870  24.294  0.00  0.00    +0.000 C 
ATOM     24  C   UNL     1      -4.134  -2.453  23.719  0.00  0.00    +0.000 C 
ATOM     25  C   UNL     1      -4.282  -1.648  23.821  0.00  0.00    +0.000 C 
ATOM     26  C   UNL     1      -4.010  -1.261  24.496  0.00  0.00    +0.000 C 
ENDBRANCH  20  21
ENDBRANCH  19  20
ENDBRANCH  15  16
ENDBRANCH  14  15
TORSDOF 8
ENDMDL
MODEL 3
REMARK VINA RESULT:     -10.6      1.377      5.179
REMARK  Name = 
REMARK  8 active torsions:
REMARK  status: ('A' for Active; 'I' for Inactive)
REMARK    1  A    between atoms: C_2  and  N_3
REMARK    2  A    between atoms: N_3  and  C_4
REMARK    3  A    between atoms: C_6  and  C_8
REMARK    4  A    between atoms: C_8  and  C_9
REMARK    5  A    between atoms: C_14  and  C_15
REMARK    6  A    between atoms: C_15  and  C_16
REMARK    7  A    between atoms: C_19  and  C_20
REMARK    8  A    between atoms: C_20  and  C_21
REMARK                            x       y       z     vdW  Elec       q    Type
REMARK                         _______ _______ _______ _____ _____    ______ ____
ROOT
ATOM      9  C   UNL     1      -3.723   0.191  24.513  0.00  0.00    +0.012 C 
ATOM     10  C   UNL     1      -4.467   0.182  24.869  0.00  0.00    +0.019 C 
ATOM     11  C   UNL     1      -4.924   0.868  24.886  0.00  0.00    +0.089 C 
ATOM     12  N   UNL     1      -4.637   1.564  24.547  0.00  0.00    -0.218 NA
ATOM     13  C   UNL     1      -3.893   1.572  24.190  0.00  0.00    +0.089 C 
ATOM     14  C   UNL     1      -3.436   0.885  24.174  0.00  0.00    +0.024 C 
ENDROOT
BRANCH   9   8
ATOM      8  C   UNL     1      -3.266  -0.496  24.496  0.00  0.00    +0.085 C 
BRANCH   8   6
ATOM      3  N   UNL     1      -3.204  -1.923  24.474  0.00  0.00    -0.280 N 
ATOM      6  C   UNL     1      -3.620  -1.224  24.341  0.00  0.00    +0.226 C 
ATOM      7  O   UNL     1      -4.392  -1.254  24.051  0.00  0.00    -0.275 OA
BRANCH   3   2
ATOM      1  C   UNL     1      -3.574  -3.236  24.900  0.00  0.00    +0.023 C 
ATOM      2  C   UNL     1      -3.558  -2.652  24.318  0.00  0.00    +0.093 C 
ENDBRANCH   3   2
BRANCH   3   4
ATOM      4  C   UNL     1      -2.431  -1.894  24.763  0.00  0.00    +0.093 C 
ATOM      5  C   UNL     1      -1.871  -2.439  24.499  0.00  0.00    +0.023 C 
ENDBRANCH   3   4
ENDBRANCH   8   6
ENDBRANCH   9   8
BRANCH  14  15
ATOM     15  C   UNL     1      -2.692   0.894  23.817  0.00  0.00    +0.051 C 
BRANCH  15  16
ATOM     16  C   UNL     1      -2.225   1.573  23.854  0.00  0.00    +0.100 A 
ATOM     17  N   UNL     1      -2.091   2.103  23.236  0.00  0.00    -0.082 NA
ATOM     18  O   UNL     1      -1.593   2.698  23.515  0.00  0.00    -0.358 OA
ATOM     19  C   UNL     1      -1.419   2.537  24.305  0.00  0.00    +0.154 A 
ATOM     27  C   UNL     1      -1.810   1.841  24.514  0.00  0.00    +0.054 A 
BRANCH  19  20
ATOM     20  C   UNL     1      -0.939   2.991  24.799  0.00  0.00    +0.067 C 
BRANCH  20  21
ATOM     21  C   UNL     1      -1.123   3.782  24.942  0.00  0.00    +0.008 C 
ATOM     22  C   UNL     1      -0.675   4.379  24.591  0.00  0.00    +0.000 C 
ATOM     23  C   UNL     1      -0.859   5.170  24.733  0.00  0.00    +0.000 C 
ATOM     24  C   UNL     1      -1.491   5.365  25.226  0.00  0.00    +0.000 C 
ATOM     25  C   UNL     1      -1.939   4.767  25.577  0.00  0.00    +0.000 C 
ATOM     26  C   UNL     1      -1.755   3.976  25.434  0.00  0.00    +0.000 C 
ENDBRANCH  20  21
ENDBRANCH  19  20
ENDBRANCH  15  16
ENDBRANCH  14  15
TORSDOF 8
ENDMDL
MODEL 4
REMARK VINA RESULT:     -10.3      1.524      2.720
REMARK  Name = 
REMARK  8 active torsions:
REMARK  status: ('A' for Active; 'I' for Inactive)
REMARK    1  A    between atoms: C_2  and  N_3
REMARK    2  A    between atoms: N_3  and  C_4
REMARK    3  A    between atoms: C_6  and  C_8
REMARK    4  A    between atoms: C_8  and  C_9
REMARK    5  A    between atoms: C_14  and  C_15
REMARK    6  A    between atoms: C_15  and  C_16
REMARK    7  A    between atoms: C_19  and  C_20
REMARK    8  A    between atoms: C_20  and  C_21
REMARK                            x       y       z     vdW  Elec       q    Type
REMARK                         _______ _______ _______ _____ _____    ______ ____
ROOT
ATOM      9  C   UNL     1      -1.531   2.495  25.229  0.00  0.00    +0.012 C 
ATOM     10  C   UNL     1      -1.155   3.008  25.753  0.00  0.00    +0.019 C 
ATOM     11  C   UNL     1      -0.460   2.775  26.132  0.00  0.00    +0.089 C 
ATOM     12  N   UNL     1      -0.142   2.027  25.986  0.00  0.00    -0.218 NA
ATOM     13  C   UNL     1      -0.519   1.514  25.462  0.00  0.00    +0.089 C 
ATOM     14  C   UNL     1      -1.214   1.748  25.083  0.00  0.00    +0.024 C 
ENDROOT
BRANCH   9   8
ATOM      8  C   UNL     1      -2.226   2.729  24.850  0.00  0.00    +0.085 C 
BRANCH   8   6
ATOM      3  N   UNL     1      -3.451   3.463  24.858  0.00  0.00    -0.280 N 
ATOM      6  C   UNL     1      -2.741   3.256  25.221  0.00  0.00    +0.226 C 
ATOM      7  O   UNL     1      -2.545   3.575  25.956  0.00  0.00    -0.275 OA
BRANCH   3   2
ATOM      1  C   UNL     1      -4.712   3.736  25.474  0.00  0.00    +0.023 C 
ATOM      2  C   UNL     1      -3.967   3.990  25.229  0.00  0.00    +0.093 C 
ENDBRANCH   3   2
BRANCH   3   4
ATOM      4  C   UNL     1      -3.647   3.144  24.123  0.00  0.00    +0.093 C 
ATOM      5  C   UNL     1      -4.046   3.604  23.566  0.00  0.00    +0.023 C 
ENDBRANCH   3   4
ENDBRANCH   8   6
ENDBRANCH   9   8
BRANCH  14  15
ATOM     15  C   UNL     1      -1.591   1.235  24.559  0.00  0.00    +0.051 C 
BRANCH  15  16
ATOM     16  C   UNL     1      -1.696   0.441  24.761  0.00  0.00    +0.100 A 
ATOM     17  N   UNL     1      -1.125  -0.151  24.710  0.00  0.00    -0.082 NA
ATOM     18  O   UNL     1      -1.466  -0.856  24.968  0.00  0.00    -0.358 OA
ATOM     19  C   UNL     1      -2.249  -0.700  25.178  0.00  0.00    +0.154 A 
ATOM     27  C   UNL     1      -2.390   0.103  25.050  0.00  0.00    +0.054 A 
BRANCH  19  20
ATOM     20  C   UNL     1      -2.793  -1.249  25.465  0.00  0.00    +0.067 C 
BRANCH  20  21
ATOM     21  C   UNL     1      -3.251  -1.690  24.941  0.00  0.00    +0.008 C 
ATOM     22  C   UNL     1      -3.081  -2.488  24.816  0.00  0.00    +0.000 C 
ATOM     23  C   UNL     1      -3.538  -2.930  24.292  0.00  0.00    +0.000 C 
ATOM     24  C   UNL     1      -4.167  -2.575  23.891  0.00  0.00    +0.000 C 
ATOM     25  C   UNL     1      -4.336  -1.778  24.016  0.00  0.00    +0.000 C 
ATOM     26  C   UNL     1      -3.879  -1.336  24.541  0.00  0.00    +0.000 C 
ENDBRANCH  20  21
ENDBRANCH  19  20
ENDBRANCH  15  16
ENDBRANCH  14  15
TORSDOF 8
ENDMDL
MODEL 5
REMARK VINA RESULT:     -10.2      1.844      5.127
REMARK  Name = 
REMARK  8 active torsions:
REMARK  status: ('A' for Active; 'I' for Inactive)
REMARK    1  A    between atoms: C_2  and  N_3
REMARK    2  A    between atoms: N_3  and  C_4
REMARK    3  A    between atoms: C_6  and  C_8
REMARK    4  A    between atoms: C_8  and  C_9
REMARK    5  A    between atoms: C_14  and  C_15
REMARK    6  A    between atoms: C_15  and  C_16
REMARK    7  A    between atoms: C_19  and  C_20
REMARK    8  A    between atoms: C_20  and  C_21
REMARK                            x       y       z     vdW  Elec       q    Type
REMARK                         _______ _______ _______ _____ _____    ______ ____
ROOT
ATOM      9  C   UNL     1      -1.832  -0.087  24.848  0.00  0.00    +0.012 C 
ATOM     10  C   UNL     1      -1.456  -0.354  25.533  0.00  0.00    +0.019 C 
ATOM     11  C   UNL     1      -0.894   0.120  25.906  0.00  0.00    +0.089 C 
ATOM     12  N   UNL     1      -0.707   0.861  25.595  0.00  0.00    -0.218 NA
ATOM     13  C   UNL     1      -1.083   1.128  24.911  0.00  0.00    +0.089 C 
ATOM     14  C   UNL     1      -1.646   0.654  24.538  0.00  0.00    +0.024 C 
ENDROOT
BRANCH   9   8
ATOM      8  C   UNL     1      -2.395  -0.562  24.475  0.00  0.00    +0.085 C 
BRANCH   8   6
ATOM      3  N   UNL     1      -2.994  -1.858  24.438  0.00  0.00    -0.280 N 
ATOM      6  C   UNL     1      -2.322  -1.383  24.498  0.00  0.00    +0.226 C 
ATOM      7  O   UNL     1      -1.578  -1.729  24.580  0.00  0.00    -0.275 OA
BRANCH   3   2
ATOM      1  C   UNL     1      -3.426  -3.125  24.937  0.00  0.00    +0.023 C 
ATOM      2  C   UNL     1      -2.922  -2.679  24.461  0.00  0.00    +0.093 C 
ENDBRANCH   3   2
BRANCH   3   4
ATOM      4  C   UNL     1      -3.738  -1.511  24.356  0.00  0.00    +0.093 C 
ATOM      5  C   UNL     1      -4.288  -1.834  23.831  0.00  0.00    +0.023 C 
ENDBRANCH   3   4
ENDBRANCH   8   6
ENDBRANCH   9   8
BRANCH  14  15
ATOM     15  C   UNL     1      -2.021   0.920  23.854  0.00  0.00    +0.051 C 
BRANCH  15  16
ATOM     16  C   UNL     1      -2.400   1.654  23.850  0.00  0.00    +0.100 A 
ATOM     17  N   UNL     1      -2.029   2.390  23.859  0.00  0.00    -0.082 NA
ATOM     18  O   UNL     1      -2.616   2.971  23.852  0.00  0.00    -0.358 OA
ATOM     19  C   UNL     1      -3.349   2.593  23.838  0.00  0.00    +0.154 A 
ATOM     27  C   UNL     1      -3.215   1.779  23.837  0.00  0.00    +0.054 A 
BRANCH  19  20
ATOM     20  C   UNL     1      -4.085   2.964  23.827  0.00  0.00    +0.067 C 
BRANCH  20  21
ATOM     21  C   UNL     1      -4.557   2.968  24.504  0.00  0.00    +0.008 C 
ATOM     22  C   UNL     1      -5.125   2.379  24.613  0.00  0.00    +0.000 C 
ATOM     23  C   UNL     1      -5.597   2.382  25.289  0.00  0.00    +0.000 C 
ATOM     24  C   UNL     1      -5.501   2.974  25.857  0.00  0.00    +0.000 C 
ATOM     25  C   UNL     1      -4.933   3.562  25.747  0.00  0.00    +0.000 C 
ATOM     26  C   UNL     1      -4.461   3.559  25.071  0.00  0.00    +0.000 C 
ENDBRANCH  20  21
ENDBRANCH  19  20
ENDBRANCH  15  16
ENDBRANCH  14  15
TORSDOF 8
ENDMDL
