MODEL 1
REMARK VINA RESULT:      -9.0      0.000      0.000
REMARK  Name = 
REMARK  4 active torsions:
REMARK  status: ('A' for Active; 'I' for Inactive)
REMARK    1  A    between atoms: C_2  and  C_3
REMARK    2  A    between atoms: C_3  and  N_4
REMARK    3  A    between atoms: N_12  and  C_13
REMARK    4  A    between atoms: C_13  and  C_14
REMARK                            x       y       z     vdW  Elec       q    Type
REMARK                         _______ _______ _______ _____ _____    ______ ____
ROOT
ATOM      4  N   UNL     1      -3.276   2.817  24.895  0.00  0.00    -0.213 N 
ATOM      5  C   UNL     1      -3.963   3.122  25.235  0.00  0.00    +0.250 C 
ATOM      6  O   UNL     1      -3.958   3.876  25.568  0.00  0.00    -0.273 OA
ATOM      7  C   UNL     1      -4.655   2.673  25.242  0.00  0.00    +0.168 C 
ATOM      8  N   UNL     1      -5.410   2.826  25.535  0.00  0.00    -0.209 NA
ATOM      9  C   UNL     1      -5.882   2.167  25.383  0.00  0.00    +0.091 C 
ATOM     10  C   UNL     1      -5.418   1.606  24.996  0.00  0.00    +0.041 C 
ATOM     11  C   UNL     1      -4.660   1.918  24.908  0.00  0.00    +0.103 C 
ATOM     12  N   UNL     1      -3.973   1.613  24.568  0.00  0.00    -0.259 N 
ATOM     19  C   UNL     1      -3.281   2.062  24.562  0.00  0.00    +0.313 C 
ATOM     20  O   UNL     1      -2.595   1.757  24.221  0.00  0.00    -0.252 OA
ENDROOT
BRANCH   4   3
ATOM      3  C   UNL     1      -2.585   3.266  24.888  0.00  0.00    +0.102 C 
BRANCH   3   2
ATOM      1  C   UNL     1      -1.391   3.708  25.539  0.00  0.00    +0.002 C 
ATOM      2  C   UNL     1      -2.109   3.301  25.561  0.00  0.00    +0.022 C 
ENDBRANCH   3   2
ENDBRANCH   4   3
BRANCH  12  13
ATOM     13  C   UNL     1      -3.978   0.858  24.234  0.00  0.00    +0.128 C 
BRANCH  13  14
ATOM     14  C   UNL     1      -3.680   0.218  24.660  0.00  0.00    +0.027 A 
ATOM     15  C   UNL     1      -4.056  -0.164  25.288  0.00  0.00    +0.004 A 
ATOM     16  C   UNL     1      -3.563  -0.771  25.548  0.00  0.00    +0.007 A 
ATOM     17  C   UNL     1      -2.883  -0.766  25.082  0.00  0.00    +0.035 A 
ATOM     18  S   UNL     1      -2.955  -0.155  24.533  0.00  0.00    -0.089 S 
ENDBRANCH  13  14
ENDBRANCH  12  13
TORSDOF 4
ENDMDL
MODEL 2
REMARK VINA RESULT:      -8.9      1.495      2.796
REMARK  Name = 
REMARK  4 active torsions:
REMARK  status: ('A' for Active; 'I' for Inactive)
REMARK    1  A    between atoms: C_2  and  C_3
REMARK    2  A    between atoms: C_3  and  N_4
REMARK    3  A    between atoms: N_12  and  C_13
REMARK    4  A    between atoms: C_13  and  C_14
REMARK                            x       y       z     vdW  Elec       q    Type
REMARK                         _______ _______ _______ _____ _____    ______ ____
ROOT
ATOM      4  N   UNL     1      -3.911   1.230  24.716  0.00  0.00    -0.213 N 
ATOM      5  C   UNL     1      -3.154   1.495  24.523  0.00  0.00    +0.250 C 
ATOM      6  O   UNL     1      -3.046   2.260  24.234  0.00  0.00    -0.273 OA
ATOM      7  C   UNL     1      -2.504   0.995  24.618  0.00  0.00    +0.168 C 
ATOM      8  N   UNL     1      -1.700   1.102  24.476  0.00  0.00    -0.209 NA
ATOM      9  C   UNL     1      -1.310   0.403  24.676  0.00  0.00    +0.091 C 
ATOM     10  C   UNL     1      -1.874  -0.136  24.943  0.00  0.00    +0.041 C 
ATOM     11  C   UNL     1      -2.612   0.230  24.907  0.00  0.00    +0.103 C 
ATOM     12  N   UNL     1      -3.370  -0.035  25.100  0.00  0.00    -0.259 N 
ATOM     19  C   UNL     1      -4.019   0.465  25.004  0.00  0.00    +0.313 C 
ATOM     20  O   UNL     1      -4.775   0.200  25.198  0.00  0.00    -0.252 OA
ENDROOT
BRANCH   4   3
ATOM      3  C   UNL     1      -4.559   1.730  24.620  0.00  0.00    +0.102 C 
BRANCH   3   2
ATOM      1  C   UNL     1      -5.495   2.661  25.171  0.00  0.00    +0.002 C 
ATOM      2  C   UNL     1      -4.814   2.200  25.249  0.00  0.00    +0.022 C 
ENDBRANCH   3   2
ENDBRANCH   4   3
BRANCH  12  13
ATOM     13  C   UNL     1      -3.478  -0.801  25.389  0.00  0.00    +0.128 C 
BRANCH  13  14
ATOM     14  C   UNL     1      -3.647  -1.417  24.868  0.00  0.00    +0.027 A 
ATOM     15  C   UNL     1      -4.153  -1.378  24.218  0.00  0.00    +0.004 A 
ATOM     16  C   UNL     1      -4.158  -2.118  23.854  0.00  0.00    +0.007 A 
ATOM     17  C   UNL     1      -3.655  -2.615  24.279  0.00  0.00    +0.035 A 
ATOM     18  S   UNL     1      -3.340  -2.182  24.906  0.00  0.00    -0.089 S 
ENDBRANCH  13  14
ENDBRANCH  12  13
TORSDOF 4
ENDMDL
MODEL 3
REMARK VINA RESULT:      -8.8      1.745      3.510
REMARK  Name = 
REMARK  4 active torsions:
REMARK  status: ('A' for Active; 'I' for Inactive)
REMARK    1  A    between atoms: C_2  and  C_3
REMARK    2  A    between atoms: C_3  and  N_4
REMARK    3  A    between atoms: N_12  and  C_13
REMARK    4  A    between atoms: C_13  and  C_14
REMARK                            x       y       z     vdW  Elec       q    Type
REMARK                         _______ _______ _______ _____ _____    ______ ____
ROOT
ATOM      4  N   UNL     1      -3.282   0.205  24.798  0.00  0.00    -0.213 N 
ATOM      5  C   UNL     1      -2.593   0.406  24.393  0.00  0.00    +0.250 C 
ATOM      6  O   UNL     1      -1.924  -0.074  24.454  0.00  0.00    -0.273 OA
ATOM      7  C   UNL     1      -2.570   1.086  23.926  0.00  0.00    +0.168 C 
ATOM      8  N   UNL     1      -1.974   1.421  23.467  0.00  0.00    -0.209 NA
ATOM      9  C   UNL     1      -2.273   2.108  23.121  0.00  0.00    +0.091 C 
ATOM     10  C   UNL     1      -3.055   2.197  23.367  0.00  0.00    +0.041 C 
ATOM     11  C   UNL     1      -3.239   1.565  23.865  0.00  0.00    +0.103 C 
ATOM     12  N   UNL     1      -3.930   1.364  24.270  0.00  0.00    -0.259 N 
ATOM     19  C   UNL     1      -3.951   0.684  24.736  0.00  0.00    +0.313 C 
ATOM     20  O   UNL     1      -4.641   0.484  25.141  0.00  0.00    -0.252 OA
ENDROOT
BRANCH   4   3
ATOM      3  C   UNL     1      -3.304  -0.474  25.264  0.00  0.00    +0.102 C 
BRANCH   3   2
ATOM      1  C   UNL     1      -3.510  -1.884  25.388  0.00  0.00    +0.002 C 
ATOM      2  C   UNL     1      -3.526  -1.196  24.931  0.00  0.00    +0.022 C 
ENDBRANCH   3   2
ENDBRANCH   4   3
BRANCH  12  13
ATOM     13  C   UNL     1      -4.598   1.844  24.208  0.00  0.00    +0.128 C 
BRANCH  13  14
ATOM     14  C   UNL     1      -4.794   2.358  24.822  0.00  0.00    +0.027 A 
ATOM     15  C   UNL     1      -4.361   3.021  25.056  0.00  0.00    +0.004 A 
ATOM     16  C   UNL     1      -4.757   3.373  25.689  0.00  0.00    +0.007 A 
ATOM     17  C   UNL     1      -5.435   2.929  25.845  0.00  0.00    +0.035 A 
ATOM     18  S   UNL     1      -5.458   2.302  25.309  0.00  0.00    -0.089 S 
ENDBRANCH  13  14
ENDBRANCH  12  13
TORSDOF 4
ENDMDL
MODEL 4
REMARK VINA RESULT:      -8.8      1.150      2.841
REMARK  Name = 
REMARK  4 active torsions:
REMARK  status: ('A' for Active; 'I' for Inactive)
REMARK    1  A    between atoms: C_2  and  C_3
REMARK    2  A    between atoms: C_3  and  N_4
REMARK    3  A    between atoms: N_12  and  C_13
REMARK    4  A    between atoms: C_13  and  C_14
REMARK                            x       y       z     vdW  Elec       q    Type
REMARK                         _______ _______ _______ _____ _____    ______ ____
ROOT
ATOM      4  N   UNL     1      -4.189   1.253  24.663  0.00  0.00    -0.213 N 
ATOM      5  C   UNL     1      -4.845   1.568  25.050  0.00  0.00    +0.250 C 
ATOM      6  O   UNL     1      -5.460   1.074  25.290  0.00  0.00    -0.273 OA
ATOM      7  C   UNL     1      -4.887   2.379  25.198  0.00  0.00    +0.168 C 
ATOM      8  N   UNL     1      -5.459   2.845  25.565  0.00  0.00    -0.209 NA
ATOM      9  C   UNL     1      -5.199   3.627  25.553  0.00  0.00    +0.091 C 
ATOM     10  C   UNL     1      -4.464   3.645  25.178  0.00  0.00    +0.041 C 
ATOM     11  C   UNL     1      -4.272   2.874  24.958  0.00  0.00    +0.103 C 
ATOM     12  N   UNL     1      -3.615   2.558  24.570  0.00  0.00    -0.259 N 
ATOM     19  C   UNL     1      -3.574   1.748  24.423  0.00  0.00    +0.313 C 
ATOM     20  O   UNL     1      -2.917   1.433  24.036  0.00  0.00    -0.252 OA
ENDROOT
BRANCH   4   3
ATOM      3  C   UNL     1      -4.147   0.443  24.515  0.00  0.00    +0.102 C 
BRANCH   3   2
ATOM      1  C   UNL     1      -3.830  -0.880  24.955  0.00  0.00    +0.002 C 
ATOM      2  C   UNL     1      -3.913  -0.074  25.114  0.00  0.00    +0.022 C 
ENDBRANCH   3   2
ENDBRANCH   4   3
BRANCH  12  13
ATOM     13  C   UNL     1      -3.000   3.053  24.331  0.00  0.00    +0.128 C 
BRANCH  13  14
ATOM     14  C   UNL     1      -2.305   3.090  24.772  0.00  0.00    +0.027 A 
ATOM     15  C   UNL     1      -2.232   3.393  25.537  0.00  0.00    +0.004 A 
ATOM     16  C   UNL     1      -1.442   3.321  25.764  0.00  0.00    +0.007 A 
ATOM     17  C   UNL     1      -1.027   2.974  25.142  0.00  0.00    +0.035 A 
ATOM     18  S   UNL     1      -1.560   2.832  24.529  0.00  0.00    -0.089 S 
ENDBRANCH  13  14
ENDBRANCH  12  13
TORSDOF 4
ENDMDL
MODEL 5
REMARK VINA RESULT:      -8.7      1.352      2.660
REMARK  Name = 
REMARK  4 active torsions:
REMARK  status: ('A' for Active; 'I' for Inactive)
REMARK    1  A    between atoms: C_2  and  C_3
REMARK    2  A    between atoms: C_3  and  N_4
REMARK    3  A    between atoms: N_12  and  C_13
REMARK    4  A    between atoms: C_13  and  C_14
REMARK                            x       y       z     vdW  Elec       q    Type
REMARK                         _______ _______ _______ _____ _____    ______ ____
ROOT
ATOM      4  N   UNL     1      -2.207   3.263  25.207  0.00  0.00    -0.213 N 
ATOM      5  C   UNL     1      -1.769   2.569  25.286  0.00  0.00    +0.250 C 
ATOM      6  O   UNL     1      -1.006   2.597  25.598  0.00  0.00    -0.273 OA
ATOM      7  C   UNL     1      -2.092   1.847  25.051  0.00  0.00    +0.168 C 
ATOM      8  N   UNL     1      -1.794   1.079  25.062  0.00  0.00    -0.209 NA
ATOM      9  C   UNL     1      -2.371   0.576  24.756  0.00  0.00    +0.091 C 
ATOM     10  C   UNL     1      -3.027   1.034  24.556  0.00  0.00    +0.041 C 
ATOM     11  C   UNL     1      -2.855   1.819  24.738  0.00  0.00    +0.103 C 
ATOM     12  N   UNL     1      -3.294   2.514  24.660  0.00  0.00    -0.259 N 
ATOM     19  C   UNL     1      -2.970   3.235  24.894  0.00  0.00    +0.313 C 
ATOM     20  O   UNL     1      -3.410   3.929  24.816  0.00  0.00    -0.252 OA
ENDROOT
BRANCH   4   3
ATOM      3  C   UNL     1      -1.884   3.984  25.442  0.00  0.00    +0.102 C 
BRANCH   3   2
ATOM      1  C   UNL     1      -1.206   5.196  25.104  0.00  0.00    +0.002 C 
ATOM      2  C   UNL     1      -1.438   4.428  24.909  0.00  0.00    +0.022 C 
ENDBRANCH   3   2
ENDBRANCH   4   3
BRANCH  12  13
ATOM     13  C   UNL     1      -4.057   2.486  24.347  0.00  0.00    +0.128 C 
BRANCH  13  14
ATOM     14  C   UNL     1      -4.708   2.439  24.851  0.00  0.00    +0.027 A 
ATOM     15  C   UNL     1      -4.934   3.007  25.405  0.00  0.00    +0.004 A 
ATOM     16  C   UNL     1      -5.613   2.734  25.786  0.00  0.00    +0.007 A 
ATOM     17  C   UNL     1      -5.807   1.998  25.468  0.00  0.00    +0.035 A 
ATOM     18  S   UNL     1      -5.247   1.816  24.890  0.00  0.00    -0.089 S 
ENDBRANCH  13  14
ENDBRANCH  12  13
TORSDOF 4
ENDMDL
