MODEL 1
REMARK VINA RESULT:     -12.3      0.000      0.000
REMARK  Name = 
REMARK  4 active torsions:
REMARK  status: ('A' for Active; 'I' for Inactive)
REMARK    1  A    between atoms: C_3  and  C_4
REMARK    2  A    between atoms: C_4  and  N_5
REMARK    3  A    between atoms: C_9  and  C_10
REMARK    4  A    between atoms: C_12  and  C_15
REMARK                            x       y       z     vdW  Elec       q    Type
REMARK                         _______ _______ _______ _____ _____    ______ ____
ROOT
ATOM      5  N   UNL     1      -4.322   1.111  24.978  0.00  0.00    -0.260 NA
ATOM      6  C   UNL     1      -5.061   0.838  25.225  0.00  0.00    +0.073 C 
ATOM      7  C   UNL     1      -5.592   1.468  25.185  0.00  0.00    +0.019 C 
ATOM      8  C   UNL     1      -5.183   2.130  24.913  0.00  0.00    +0.027 C 
ATOM      9  C   UNL     1      -4.398   1.909  24.785  0.00  0.00    +0.138 C 
ENDROOT
BRANCH   9  10
ATOM     10  C   UNL     1      -3.795   2.401  24.512  0.00  0.00    +0.251 A 
ATOM     11  N   UNL     1      -3.258   2.817  24.981  0.00  0.00    -0.189 NA
ATOM     12  C   UNL     1      -2.753   3.236  24.480  0.00  0.00    +0.208 A 
ATOM     13  N   UNL     1      -2.978   3.079  23.702  0.00  0.00    -0.056 NA
ATOM     14  O   UNL     1      -3.622   2.563  23.722  0.00  0.00    -0.336 OA
BRANCH  12  15
ATOM     15  C   UNL     1      -2.133   3.726  24.717  0.00  0.00    +0.093 A 
ATOM     16  C   UNL     1      -1.352   3.496  24.585  0.00  0.00    +0.176 A 
ATOM     17  N   UNL     1      -1.191   2.776  24.216  0.00  0.00    -0.107 NA
ATOM     18  N   UNL     1      -0.732   3.987  24.823  0.00  0.00    -0.206 NA
ATOM     19  C   UNL     1      -0.894   4.706  25.191  0.00  0.00    +0.200 A 
ATOM     20  N   UNL     1      -1.676   4.936  25.323  0.00  0.00    -0.222 NA
ATOM     21  C   UNL     1      -2.295   4.446  25.086  0.00  0.00    +0.107 A 
ENDBRANCH  12  15
ENDBRANCH   9  10
BRANCH   5   4
ATOM      4  C   UNL     1      -3.631   0.663  24.932  0.00  0.00    +0.137 C 
BRANCH   4   3
ATOM      1  C   UNL     1      -2.655  -0.619  25.721  0.00  0.00    +0.132 C 
ATOM      2  N   UNL     1      -3.223  -0.735  25.135  0.00  0.00    -0.312 N 
ATOM      3  C   UNL     1      -3.672  -0.145  24.772  0.00  0.00    +0.137 A 
ATOM     22  N   UNL     1      -4.169  -0.506  24.221  0.00  0.00    -0.230 NA
ATOM     23  C   UNL     1      -4.028  -1.318  24.244  0.00  0.00    +0.098 A 
ATOM     24  C   UNL     1      -3.443  -1.459  24.809  0.00  0.00    +0.079 A 
ATOM     25  C   UNL     1      -3.187  -2.230  24.952  0.00  0.00    +0.019 A 
ATOM     26  C   UNL     1      -3.514  -2.859  24.532  0.00  0.00    +0.002 A 
ATOM     27  C   UNL     1      -4.099  -2.718  23.967  0.00  0.00    +0.002 A 
ATOM     28  C   UNL     1      -4.356  -1.947  23.823  0.00  0.00    +0.021 A 
ENDBRANCH   4   3
ENDBRANCH   5   4
TORSDOF 4
ENDMDL
MODEL 2
REMARK VINA RESULT:     -11.8      1.029      5.010
REMARK  Name = 
REMARK  4 active torsions:
REMARK  status: ('A' for Active; 'I' for Inactive)
REMARK    1  A    between atoms: C_3  and  C_4
REMARK    2  A    between atoms: C_4  and  N_5
REMARK    3  A    between atoms: C_9  and  C_10
REMARK    4  A    between atoms: C_12  and  C_15
REMARK                            x       y       z     vdW  Elec       q    Type
REMARK                         _______ _______ _______ _____ _____    ______ ____
ROOT
ATOM      5  N   UNL     1      -3.920   1.968  24.600  0.00  0.00    -0.260 NA
ATOM      6  C   UNL     1      -4.357   2.650  24.440  0.00  0.00    +0.073 C 
ATOM      7  C   UNL     1      -5.157   2.463  24.519  0.00  0.00    +0.019 C 
ATOM      8  C   UNL     1      -5.214   1.667  24.728  0.00  0.00    +0.027 C 
ATOM      9  C   UNL     1      -4.449   1.362  24.777  0.00  0.00    +0.138 C 
ENDROOT
BRANCH   9  10
ATOM     10  C   UNL     1      -4.249   0.585  24.971  0.00  0.00    +0.251 A 
ATOM     11  N   UNL     1      -4.125  -0.032  24.436  0.00  0.00    -0.189 NA
ATOM     12  C   UNL     1      -3.937  -0.709  24.868  0.00  0.00    +0.208 A 
ATOM     13  N   UNL     1      -3.945  -0.512  25.669  0.00  0.00    -0.056 NA
ATOM     14  O   UNL     1      -4.138   0.288  25.732  0.00  0.00    -0.336 OA
BRANCH  12  15
ATOM     15  C   UNL     1      -3.771  -1.454  24.553  0.00  0.00    +0.093 A 
ATOM     16  C   UNL     1      -3.050  -1.819  24.716  0.00  0.00    +0.176 A 
ATOM     17  N   UNL     1      -2.495  -1.440  25.194  0.00  0.00    -0.107 NA
ATOM     18  N   UNL     1      -2.884  -2.564  24.400  0.00  0.00    -0.206 NA
ATOM     19  C   UNL     1      -3.439  -2.941  23.922  0.00  0.00    +0.200 A 
ATOM     20  N   UNL     1      -4.161  -2.576  23.759  0.00  0.00    -0.222 NA
ATOM     21  C   UNL     1      -4.327  -1.832  24.075  0.00  0.00    +0.107 A 
ENDBRANCH  12  15
ENDBRANCH   9  10
BRANCH   5   4
ATOM      4  C   UNL     1      -3.097   1.906  24.584  0.00  0.00    +0.137 C 
BRANCH   4   3
ATOM      1  C   UNL     1      -1.412   2.132  24.010  0.00  0.00    +0.132 C 
ATOM      2  N   UNL     1      -1.855   2.679  24.439  0.00  0.00    -0.312 N 
ATOM      3  C   UNL     1      -2.630   2.576  24.703  0.00  0.00    +0.137 A 
ATOM     22  N   UNL     1      -2.856   3.259  25.106  0.00  0.00    -0.230 NA
ATOM     23  C   UNL     1      -2.221   3.785  25.091  0.00  0.00    +0.098 A 
ATOM     24  C   UNL     1      -1.603   3.427  24.679  0.00  0.00    +0.079 A 
ATOM     25  C   UNL     1      -0.889   3.828  24.575  0.00  0.00    +0.019 A 
ATOM     26  C   UNL     1      -0.794   4.587  24.884  0.00  0.00    +0.002 A 
ATOM     27  C   UNL     1      -1.412   4.945  25.296  0.00  0.00    +0.002 A 
ATOM     28  C   UNL     1      -2.125   4.544  25.400  0.00  0.00    +0.021 A 
ENDBRANCH   4   3
ENDBRANCH   5   4
TORSDOF 4
ENDMDL
MODEL 3
REMARK VINA RESULT:     -11.7      1.658      2.652
REMARK  Name = 
REMARK  4 active torsions:
REMARK  status: ('A' for Active; 'I' for Inactive)
REMARK    1  A    between atoms: C_3  and  C_4
REMARK    2  A    between atoms: C_4  and  N_5
REMARK    3  A    between atoms: C_9  and  C_10
REMARK    4  A    between atoms: C_12  and  C_15
REMARK                            x       y       z     vdW  Elec       q    Type
REMARK                         _______ _______ _______ _____ _____    ______ ____
ROOT
ATOM      5  N   UNL     1      -1.132   0.373  24.465  0.00  0.00    -0.260 NA
ATOM      6  C   UNL     1      -0.772  -0.219  24.016  0.00  0.00    +0.073 C 
ATOM      7  C   UNL     1       0.010   0.005  23.879  0.00  0.00    +0.019 C 
ATOM      8  C   UNL     1       0.134   0.736  24.243  0.00  0.00    +0.027 C 
ATOM      9  C   UNL     1      -0.573   0.962  24.605  0.00  0.00    +0.138 C 
ENDROOT
BRANCH   9  10
ATOM     10  C   UNL     1      -0.698   1.657  25.032  0.00  0.00    +0.251 A 
ATOM     11  N   UNL     1      -0.900   2.391  24.715  0.00  0.00    -0.189 NA
ATOM     12  C   UNL     1      -0.970   2.927  25.339  0.00  0.00    +0.208 A 
ATOM     13  N   UNL     1      -0.810   2.524  26.040  0.00  0.00    -0.056 NA
ATOM     14  O   UNL     1      -0.642   1.740  25.851  0.00  0.00    -0.336 OA
BRANCH  12  15
ATOM     15  C   UNL     1      -1.165   3.727  25.271  0.00  0.00    +0.093 A 
ATOM     16  C   UNL     1      -1.903   3.994  25.522  0.00  0.00    +0.176 A 
ATOM     17  N   UNL     1      -2.447   3.463  25.840  0.00  0.00    -0.107 NA
ATOM     18  N   UNL     1      -2.097   4.794  25.453  0.00  0.00    -0.206 NA
ATOM     19  C   UNL     1      -1.553   5.324  25.135  0.00  0.00    +0.200 A 
ATOM     20  N   UNL     1      -0.813   5.057  24.883  0.00  0.00    -0.222 NA
ATOM     21  C   UNL     1      -0.619   4.257  24.951  0.00  0.00    +0.107 A 
ENDBRANCH  12  15
ENDBRANCH   9  10
BRANCH   5   4
ATOM      4  C   UNL     1      -1.915   0.373  24.726  0.00  0.00    +0.137 C 
BRANCH   4   3
ATOM      1  C   UNL     1      -3.572   0.358  24.037  0.00  0.00    +0.132 C 
ATOM      2  N   UNL     1      -3.150  -0.300  24.298  0.00  0.00    -0.312 N 
ATOM      3  C   UNL     1      -2.388  -0.294  24.616  0.00  0.00    +0.137 A 
ATOM     22  N   UNL     1      -2.182  -1.070  24.802  0.00  0.00    -0.230 NA
ATOM     23  C   UNL     1      -2.817  -1.557  24.601  0.00  0.00    +0.098 A 
ATOM     24  C   UNL     1      -3.415  -1.081  24.290  0.00  0.00    +0.079 A 
ATOM     25  C   UNL     1      -4.123  -1.421  24.038  0.00  0.00    +0.019 A 
ATOM     26  C   UNL     1      -4.234  -2.236  24.098  0.00  0.00    +0.002 A 
ATOM     27  C   UNL     1      -3.636  -2.712  24.409  0.00  0.00    +0.002 A 
ATOM     28  C   UNL     1      -2.927  -2.373  24.661  0.00  0.00    +0.021 A 
ENDBRANCH   4   3
ENDBRANCH   5   4
TORSDOF 4
ENDMDL
MODEL 4
REMARK VINA RESULT:     -11.0      1.669      5.566
REMARK  Name = 
REMARK  4 active torsions:
REMARK  status: ('A' for Active; 'I' for Inactive)
REMARK    1  A    between atoms: C_3  and  C_4
REMARK    2  A    between atoms: C_4  and  N_5
REMARK    3  A    between atoms: C_9  and  C_10
REMARK    4  A    between atoms: C_12  and  C_15
REMARK                            x       y       z     vdW  Elec       q    Type
REMARK                         _______ _______ _______ _____ _____    ______ ____
ROOT
ATOM      5  N   UNL     1      -0.862   1.273  24.670  0.00  0.00    -0.260 NA
ATOM      6  C   UNL     1      -0.191   1.613  24.330  0.00  0.00    +0.073 C 
ATOM      7  C   UNL     1       0.251   1.009  23.982  0.00  0.00    +0.019 C 
ATOM      8  C   UNL     1      -0.145   0.297  24.108  0.00  0.00    +0.027 C 
ATOM      9  C   UNL     1      -0.833   0.460  24.533  0.00  0.00    +0.138 C 
ENDROOT
BRANCH   9  10
ATOM     10  C   UNL     1      -1.394  -0.093  24.779  0.00  0.00    +0.251 A 
ATOM     11  N   UNL     1      -1.962  -0.453  24.300  0.00  0.00    -0.189 NA
ATOM     12  C   UNL     1      -2.405  -0.965  24.772  0.00  0.00    +0.208 A 
ATOM     13  N   UNL     1      -2.110  -0.923  25.541  0.00  0.00    -0.056 NA
ATOM     14  O   UNL     1      -1.486  -0.383  25.545  0.00  0.00    -0.336 OA
BRANCH  12  15
ATOM     15  C   UNL     1      -3.032  -1.438  24.517  0.00  0.00    +0.093 A 
ATOM     16  C   UNL     1      -2.929  -2.251  24.435  0.00  0.00    +0.176 A 
ATOM     17  N   UNL     1      -2.199  -2.594  24.608  0.00  0.00    -0.107 NA
ATOM     18  N   UNL     1      -3.557  -2.723  24.181  0.00  0.00    -0.206 NA
ATOM     19  C   UNL     1      -4.286  -2.380  24.009  0.00  0.00    +0.200 A 
ATOM     20  N   UNL     1      -4.390  -1.565  24.091  0.00  0.00    -0.222 NA
ATOM     21  C   UNL     1      -3.762  -1.094  24.345  0.00  0.00    +0.107 A 
ENDBRANCH  12  15
ENDBRANCH   9  10
BRANCH   5   4
ATOM      4  C   UNL     1      -1.456   1.676  25.076  0.00  0.00    +0.137 C 
BRANCH   4   3
ATOM      1  C   UNL     1      -2.907   2.714  25.277  0.00  0.00    +0.132 C 
ATOM      2  N   UNL     1      -2.133   2.978  25.175  0.00  0.00    -0.312 N 
ATOM      3  C   UNL     1      -1.465   2.501  25.082  0.00  0.00    +0.137 A 
ATOM     22  N   UNL     1      -0.810   2.994  24.997  0.00  0.00    -0.230 NA
ATOM     23  C   UNL     1      -1.071   3.775  25.037  0.00  0.00    +0.098 A 
ATOM     24  C   UNL     1      -1.889   3.765  25.146  0.00  0.00    +0.079 A 
ATOM     25  C   UNL     1      -2.305   4.475  25.206  0.00  0.00    +0.019 A 
ATOM     26  C   UNL     1      -1.905   5.194  25.157  0.00  0.00    +0.002 A 
ATOM     27  C   UNL     1      -1.087   5.204  25.047  0.00  0.00    +0.002 A 
ATOM     28  C   UNL     1      -0.670   4.495  24.987  0.00  0.00    +0.021 A 
ENDBRANCH   4   3
ENDBRANCH   5   4
TORSDOF 4
ENDMDL
MODEL 5
REMARK VINA RESULT:     -10.4      2.037      3.944
REMARK  Name = 
REMARK  4 active torsions:
REMARK  status: ('A' for Active; 'I' for Inactive)
REMARK    1  A    between atoms: C_3  and  C_4
REMARK    2  A    between atoms: C_4  and  N_5
REMARK    3  A    between atoms: C_9  and  C_10
REMARK    4  A    between atoms: C_12  and  C_15
REMARK                            x       y       z     vdW  Elec       q    Type
REMARK                         _______ _______ _______ _____ _____    ______ ____
ROOT
ATOM      5  N   UNL     1      -3.543  -0.106  24.387  0.00  0.00    -0.260 NA
ATOM      6  C   UNL     1      -4.242  -0.541  24.334  0.00  0.00    +0.073 C 
ATOM      7  C   UNL     1      -4.060  -1.334  24.473  0.00  0.00    +0.019 C 
ATOM      8  C   UNL     1      -3.249  -1.390  24.612  0.00  0.00    +0.027 C 
ATOM      9  C   UNL     1      -2.930  -0.631  24.559  0.00  0.00    +0.138 C 
ENDROOT
BRANCH   9  10
ATOM     10  C   UNL     1      -2.136  -0.431  24.659  0.00  0.00    +0.251 A 
ATOM     11  N   UNL     1      -1.595  -0.269  24.057  0.00  0.00    -0.189 NA
ATOM     12  C   UNL     1      -0.868  -0.096  24.406  0.00  0.00    +0.208 A 
ATOM     13  N   UNL     1      -0.959  -0.151  25.224  0.00  0.00    -0.056 NA
ATOM     14  O   UNL     1      -1.742  -0.358  25.380  0.00  0.00    -0.336 OA
BRANCH  12  15
ATOM     15  C   UNL     1      -0.173   0.098  24.006  0.00  0.00    +0.093 A 
ATOM     16  C   UNL     1       0.154   0.851  24.088  0.00  0.00    +0.176 A 
ATOM     17  N   UNL     1      -0.214   1.410  24.569  0.00  0.00    -0.107 NA
ATOM     18  N   UNL     1       0.850   1.044  23.687  0.00  0.00    -0.206 NA
ATOM     19  C   UNL     1       1.217   0.484  23.206  0.00  0.00    +0.200 A 
ATOM     20  N   UNL     1       0.890  -0.269  23.124  0.00  0.00    -0.222 NA
ATOM     21  C   UNL     1       0.195  -0.462  23.525  0.00  0.00    +0.107 A 
ENDBRANCH  12  15
ENDBRANCH   9  10
BRANCH   5   4
ATOM      4  C   UNL     1      -3.471   0.709  24.286  0.00  0.00    +0.137 C 
BRANCH   4   3
ATOM      1  C   UNL     1      -3.573   2.481  24.021  0.00  0.00    +0.132 C 
ATOM      2  N   UNL     1      -4.079   2.032  24.492  0.00  0.00    -0.312 N 
ATOM      3  C   UNL     1      -4.032   1.217  24.614  0.00  0.00    +0.137 A 
ATOM     22  N   UNL     1      -4.645   1.000  25.122  0.00  0.00    -0.230 NA
ATOM     23  C   UNL     1      -5.070   1.679  25.314  0.00  0.00    +0.098 A 
ATOM     24  C   UNL     1      -4.721   2.317  24.925  0.00  0.00    +0.079 A 
ATOM     25  C   UNL     1      -5.032   3.076  25.015  0.00  0.00    +0.019 A 
ATOM     26  C   UNL     1      -5.693   3.197  25.493  0.00  0.00    +0.002 A 
ATOM     27  C   UNL     1      -6.042   2.559  25.882  0.00  0.00    +0.002 A 
ATOM     28  C   UNL     1      -5.732   1.800  25.793  0.00  0.00    +0.021 A 
ENDBRANCH   4   3
ENDBRANCH   5   4
TORSDOF 4
ENDMDL
MODEL 6
REMARK VINA RESULT:     -10.4      2.151      4.103
REMARK  Name = 
REMARK  4 active torsions:
REMARK  status: ('A' for Active; 'I' for Inactive)
REMARK    1  A    between atoms: C_3  and  C_4
REMARK    2  A    between atoms: C_4  and  N_5
REMARK    3  A    between atoms: C_9  and  C_10
REMARK    4  A    between atoms: C_12  and  C_15
REMARK                            x       y       z     vdW  Elec       q    Type
REMARK                         _______ _______ _______ _____ _____    ______ ____
ROOT
ATOM      5  N   UNL     1      -2.214   3.139  24.871  0.00  0.00    -0.260 NA
ATOM      6  C   UNL     1      -2.429   3.926  24.995  0.00  0.00    +0.073 C 
ATOM      7  C   UNL     1      -1.769   4.327  25.285  0.00  0.00    +0.019 C 
ATOM      8  C   UNL     1      -1.147   3.788  25.341  0.00  0.00    +0.027 C 
ATOM      9  C   UNL     1      -1.423   3.054  25.085  0.00  0.00    +0.138 C 
ENDROOT
BRANCH   9  10
ATOM     10  C   UNL     1      -0.983   2.357  25.049  0.00  0.00    +0.251 A 
ATOM     11  N   UNL     1      -0.647   2.029  24.370  0.00  0.00    -0.189 NA
ATOM     12  C   UNL     1      -0.259   1.334  24.588  0.00  0.00    +0.208 A 
ATOM     13  N   UNL     1      -0.354   1.232  25.401  0.00  0.00    -0.056 NA
ATOM     14  O   UNL     1      -0.802   1.864  25.686  0.00  0.00    -0.336 OA
BRANCH  12  15
ATOM     15  C   UNL     1       0.153   0.830  24.080  0.00  0.00    +0.093 A 
ATOM     16  C   UNL     1      -0.093   0.049  23.986  0.00  0.00    +0.176 A 
ATOM     17  N   UNL     1      -0.750  -0.229  24.398  0.00  0.00    -0.107 NA
ATOM     18  N   UNL     1       0.320  -0.455  23.477  0.00  0.00    -0.206 NA
ATOM     19  C   UNL     1       0.977  -0.176  23.065  0.00  0.00    +0.200 A 
ATOM     20  N   UNL     1       1.223   0.607  23.160  0.00  0.00    -0.222 NA
ATOM     21  C   UNL     1       0.811   1.110  23.668  0.00  0.00    +0.107 A 
ENDBRANCH  12  15
ENDBRANCH   9  10
BRANCH   5   4
ATOM      4  C   UNL     1      -2.706   2.542  24.583  0.00  0.00    +0.137 C 
BRANCH   4   3
ATOM      1  C   UNL     1      -3.926   1.352  24.020  0.00  0.00    +0.132 C 
ATOM      2  N   UNL     1      -4.059   1.965  24.555  0.00  0.00    -0.312 N 
ATOM      3  C   UNL     1      -3.498   2.513  24.814  0.00  0.00    +0.137 A 
ATOM     22  N   UNL     1      -3.868   3.025  25.344  0.00  0.00    -0.230 NA
ATOM     23  C   UNL     1      -4.656   2.794  25.413  0.00  0.00    +0.098 A 
ATOM     24  C   UNL     1      -4.774   2.139  24.925  0.00  0.00    +0.079 A 
ATOM     25  C   UNL     1      -5.519   1.787  24.882  0.00  0.00    +0.019 A 
ATOM     26  C   UNL     1      -6.145   2.088  25.325  0.00  0.00    +0.002 A 
ATOM     27  C   UNL     1      -6.027   2.743  25.813  0.00  0.00    +0.002 A 
ATOM     28  C   UNL     1      -5.283   3.097  25.857  0.00  0.00    +0.021 A 
ENDBRANCH   4   3
ENDBRANCH   5   4
TORSDOF 4
ENDMDL
MODEL 7
REMARK VINA RESULT:     -10.2      2.056      3.472
REMARK  Name = 
REMARK  4 active torsions:
REMARK  status: ('A' for Active; 'I' for Inactive)
REMARK    1  A    between atoms: C_3  and  C_4
REMARK    2  A    between atoms: C_4  and  N_5
REMARK    3  A    between atoms: C_9  and  C_10
REMARK    4  A    between atoms: C_12  and  C_15
REMARK                            x       y       z     vdW  Elec       q    Type
REMARK                         _______ _______ _______ _____ _____    ______ ____
ROOT
ATOM      5  N   UNL     1      -1.093   2.307  25.045  0.00  0.00    -0.260 NA
ATOM      6  C   UNL     1      -0.382   2.388  25.457  0.00  0.00    +0.073 C 
ATOM      7  C   UNL     1      -0.450   3.041  25.956  0.00  0.00    +0.019 C 
ATOM      8  C   UNL     1      -1.203   3.364  25.854  0.00  0.00    +0.027 C 
ATOM      9  C   UNL     1      -1.599   2.910  25.291  0.00  0.00    +0.138 C 
ENDROOT
BRANCH   9  10
ATOM     10  C   UNL     1      -2.369   3.036  25.021  0.00  0.00    +0.251 A 
ATOM     11  N   UNL     1      -3.063   2.857  25.430  0.00  0.00    -0.189 NA
ATOM     12  C   UNL     1      -3.702   3.074  24.956  0.00  0.00    +0.208 A 
ATOM     13  N   UNL     1      -3.403   3.387  24.253  0.00  0.00    -0.056 NA
ATOM     14  O   UNL     1      -2.580   3.363  24.294  0.00  0.00    -0.336 OA
BRANCH  12  15
ATOM     15  C   UNL     1      -4.500   2.992  25.151  0.00  0.00    +0.093 A 
ATOM     16  C   UNL     1      -4.927   2.344  24.874  0.00  0.00    +0.176 A 
ATOM     17  N   UNL     1      -4.559   1.778  24.403  0.00  0.00    -0.107 NA
ATOM     18  N   UNL     1      -5.726   2.263  25.070  0.00  0.00    -0.206 NA
ATOM     19  C   UNL     1      -6.094   2.830  25.542  0.00  0.00    +0.200 A 
ATOM     20  N   UNL     1      -5.665   3.479  25.819  0.00  0.00    -0.222 NA
ATOM     21  C   UNL     1      -4.868   3.560  25.623  0.00  0.00    +0.107 A 
ENDBRANCH  12  15
ENDBRANCH   9  10
BRANCH   5   4
ATOM      4  C   UNL     1      -1.266   1.724  24.487  0.00  0.00    +0.137 C 
BRANCH   4   3
ATOM      1  C   UNL     1      -0.412   0.594  23.384  0.00  0.00    +0.132 C 
ATOM      2  N   UNL     1      -0.694   0.415  24.138  0.00  0.00    -0.312 N 
ATOM      3  C   UNL     1      -1.087   0.935  24.646  0.00  0.00    +0.137 A 
ATOM     22  N   UNL     1      -1.268   0.526  25.338  0.00  0.00    -0.230 NA
ATOM     23  C   UNL     1      -0.988  -0.246  25.259  0.00  0.00    +0.098 A 
ATOM     24  C   UNL     1      -0.634  -0.314  24.518  0.00  0.00    +0.079 A 
ATOM     25  C   UNL     1      -0.301  -1.033  24.285  0.00  0.00    +0.019 A 
ATOM     26  C   UNL     1      -0.324  -1.682  24.792  0.00  0.00    +0.002 A 
ATOM     27  C   UNL     1      -0.678  -1.614  25.534  0.00  0.00    +0.002 A 
ATOM     28  C   UNL     1      -1.011  -0.896  25.768  0.00  0.00    +0.021 A 
ENDBRANCH   4   3
ENDBRANCH   5   4
TORSDOF 4
ENDMDL
