MODEL 1
REMARK VINA RESULT:     -11.1      0.000      0.000
REMARK  Name = 
REMARK  6 active torsions:
REMARK  status: ('A' for Active; 'I' for Inactive)
REMARK    1  A    between atoms: C_2  and  C_4
REMARK    2  A    between atoms: C_7  and  N_8
REMARK    3  A    between atoms: N_11  and  C_12
REMARK    4  A    between atoms: C_16  and  O_20
REMARK    5  A    between atoms: O_20  and  C_21
REMARK    6  A    between atoms: N_23  and  C_24
REMARK                            x       y       z     vdW  Elec       q    Type
REMARK                         _______ _______ _______ _____ _____    ______ ____
ROOT
ATOM     12  C   UNL     1       0.224   0.038  23.328  0.00  0.00    +0.156 C 
ATOM     13  C   UNL     1       0.112  -0.559  23.886  0.00  0.00    +0.166 C 
ATOM     14  O   UNL     1      -0.563  -0.375  24.324  0.00  0.00    -0.348 OA
ATOM     15  C   UNL     1      -0.866   0.336  24.036  0.00  0.00    +0.186 C 
ATOM     16  C   UNL     1      -1.471   0.890  24.129  0.00  0.00    +0.229 C 
ATOM     17  C   UNL     1      -1.359   1.487  23.571  0.00  0.00    +0.188 C 
ATOM     18  O   UNL     1      -0.684   1.302  23.133  0.00  0.00    -0.348 OA
ATOM     19  C   UNL     1      -0.380   0.591  23.421  0.00  0.00    +0.168 C 
ENDROOT
BRANCH  12  11
ATOM      8  N   UNL     1       2.231   0.122  22.471  0.00  0.00    -0.161 NA
ATOM      9  C   UNL     1       1.620   0.086  23.025  0.00  0.00    +0.344 C 
ATOM     10  O   UNL     1       1.796   0.062  23.831  0.00  0.00    -0.249 OA
ATOM     11  N   UNL     1       0.835   0.074  22.774  0.00  0.00    -0.184 NA
BRANCH   8   7
ATOM      4  C   UNL     1       4.587   0.159  23.225  0.00  0.00    -0.022 A 
ATOM      5  C   UNL     1       4.234   0.849  22.945  0.00  0.00    -0.003 A 
ATOM      6  C   UNL     1       3.447   0.837  22.694  0.00  0.00    +0.016 A 
ATOM      7  C   UNL     1       3.016   0.134  22.722  0.00  0.00    +0.075 A 
ATOM     34  C   UNL     1       3.371  -0.556  23.002  0.00  0.00    +0.016 A 
ATOM     35  C   UNL     1       4.156  -0.544  23.254  0.00  0.00    -0.003 A 
BRANCH   4   2
ATOM      1  C   UNL     1       5.574   0.549  24.182  0.00  0.00    +0.005 C 
ATOM      2  C   UNL     1       5.374   0.171  23.476  0.00  0.00    +0.022 C 
ATOM      3  C   UNL     1       5.957  -0.194  23.023  0.00  0.00    +0.005 C 
ENDBRANCH   4   2
ENDBRANCH   8   7
ENDBRANCH  12  11
BRANCH  16  20
ATOM     20  O   UNL     1      -2.082   0.853  24.684  0.00  0.00    -0.432 OA
BRANCH  20  21
ATOM     21  C   UNL     1      -2.481   1.539  24.904  0.00  0.00    +0.425 C 
ATOM     22  O   UNL     1      -2.061   2.182  25.208  0.00  0.00    -0.224 OA
ATOM     23  N   UNL     1      -3.300   1.586  24.820  0.00  0.00    -0.142 NA
BRANCH  23  24
ATOM     24  C   UNL     1      -3.699   2.273  25.040  0.00  0.00    +0.077 A 
ATOM     25  C   UNL     1      -3.280   2.972  25.165  0.00  0.00    +0.017 A 
ATOM     26  C   UNL     1      -3.680   3.660  25.386  0.00  0.00    +0.001 A 
ATOM     27  C   UNL     1      -4.498   3.648  25.481  0.00  0.00    +0.000 A 
ATOM     28  C   UNL     1      -4.918   2.950  25.357  0.00  0.00    +0.001 A 
ATOM     29  C   UNL     1      -5.738   2.937  25.452  0.00  0.00    +0.000 A 
ATOM     30  C   UNL     1      -6.157   2.239  25.327  0.00  0.00    +0.000 A 
ATOM     31  C   UNL     1      -5.758   1.551  25.106  0.00  0.00    +0.000 A 
ATOM     32  C   UNL     1      -4.939   1.562  25.011  0.00  0.00    +0.001 A 
ATOM     33  C   UNL     1      -4.518   2.261  25.136  0.00  0.00    +0.015 A 
ENDBRANCH  23  24
ENDBRANCH  20  21
ENDBRANCH  16  20
TORSDOF 6
ENDMDL
MODEL 2
REMARK VINA RESULT:      -9.2      1.750      2.474
REMARK  Name = 
REMARK  6 active torsions:
REMARK  status: ('A' for Active; 'I' for Inactive)
REMARK    1  A    between atoms: C_2  and  C_4
REMARK    2  A    between atoms: C_7  and  N_8
REMARK    3  A    between atoms: N_11  and  C_12
REMARK    4  A    between atoms: C_16  and  O_20
REMARK    5  A    between atoms: O_20  and  C_21
REMARK    6  A    between atoms: N_23  and  C_24
REMARK                            x       y       z     vdW  Elec       q    Type
REMARK                         _______ _______ _______ _____ _____    ______ ____
ROOT
ATOM     12  C   UNL     1       0.571   0.137  23.367  0.00  0.00    +0.156 C 
ATOM     13  C   UNL     1       0.453  -0.534  23.832  0.00  0.00    +0.166 C 
ATOM     14  O   UNL     1      -0.215  -0.407  24.299  0.00  0.00    -0.348 OA
ATOM     15  C   UNL     1      -0.510   0.343  24.122  0.00  0.00    +0.186 C 
ATOM     16  C   UNL     1      -1.105   0.886  24.301  0.00  0.00    +0.229 C 
ATOM     17  C   UNL     1      -0.987   1.557  23.836  0.00  0.00    +0.188 C 
ATOM     18  O   UNL     1      -0.319   1.429  23.370  0.00  0.00    -0.348 OA
ATOM     19  C   UNL     1      -0.024   0.679  23.546  0.00  0.00    +0.168 C 
ENDROOT
BRANCH  12  11
ATOM      8  N   UNL     1       2.573   0.306  22.512  0.00  0.00    -0.161 NA
ATOM      9  C   UNL     1       1.965   0.197  23.060  0.00  0.00    +0.344 C 
ATOM     10  O   UNL     1       2.146   0.040  23.849  0.00  0.00    -0.249 OA
ATOM     11  N   UNL     1       1.178   0.246  22.819  0.00  0.00    -0.184 NA
BRANCH   8   7
ATOM      4  C   UNL     1       4.935   0.161  23.234  0.00  0.00    -0.022 A 
ATOM      5  C   UNL     1       4.617   0.888  23.008  0.00  0.00    -0.003 A 
ATOM      6  C   UNL     1       3.829   0.936  22.767  0.00  0.00    +0.016 A 
ATOM      7  C   UNL     1       3.360   0.258  22.752  0.00  0.00    +0.075 A 
ATOM     34  C   UNL     1       3.678  -0.469  22.978  0.00  0.00    +0.016 A 
ATOM     35  C   UNL     1       4.465  -0.518  23.219  0.00  0.00    -0.003 A 
BRANCH   4   2
ATOM      1  C   UNL     1       6.286  -0.227  22.976  0.00  0.00    +0.005 C 
ATOM      2  C   UNL     1       5.723   0.112  23.475  0.00  0.00    +0.022 C 
ATOM      3  C   UNL     1       5.947   0.403  24.212  0.00  0.00    +0.005 C 
ENDBRANCH   4   2
ENDBRANCH   8   7
ENDBRANCH  12  11
BRANCH  16  20
ATOM     20  O   UNL     1      -1.712   0.776  24.850  0.00  0.00    -0.432 OA
BRANCH  20  21
ATOM     21  C   UNL     1      -2.452   0.512  24.599  0.00  0.00    +0.425 C 
ATOM     22  O   UNL     1      -2.900   0.971  24.079  0.00  0.00    -0.224 OA
ATOM     23  N   UNL     1      -2.745  -0.211  24.867  0.00  0.00    -0.142 NA
BRANCH  23  24
ATOM     24  C   UNL     1      -3.485  -0.475  24.616  0.00  0.00    +0.077 A 
ATOM     25  C   UNL     1      -4.103   0.061  24.518  0.00  0.00    +0.017 A 
ATOM     26  C   UNL     1      -4.844  -0.203  24.267  0.00  0.00    +0.001 A 
ATOM     27  C   UNL     1      -4.965  -1.004  24.114  0.00  0.00    +0.000 A 
ATOM     28  C   UNL     1      -4.347  -1.541  24.211  0.00  0.00    +0.001 A 
ATOM     29  C   UNL     1      -4.468  -2.343  24.058  0.00  0.00    +0.000 A 
ATOM     30  C   UNL     1      -3.850  -2.879  24.155  0.00  0.00    +0.000 A 
ATOM     31  C   UNL     1      -3.109  -2.615  24.407  0.00  0.00    +0.000 A 
ATOM     32  C   UNL     1      -2.988  -1.814  24.560  0.00  0.00    +0.001 A 
ATOM     33  C   UNL     1      -3.606  -1.276  24.462  0.00  0.00    +0.015 A 
ENDBRANCH  23  24
ENDBRANCH  20  21
ENDBRANCH  16  20
TORSDOF 6
ENDMDL
MODEL 3
REMARK VINA RESULT:      -7.3     17.233     18.819
REMARK  Name = 
REMARK  6 active torsions:
REMARK  status: ('A' for Active; 'I' for Inactive)
REMARK    1  A    between atoms: C_2  and  C_4
REMARK    2  A    between atoms: C_7  and  N_8
REMARK    3  A    between atoms: N_11  and  C_12
REMARK    4  A    between atoms: C_16  and  O_20
REMARK    5  A    between atoms: O_20  and  C_21
REMARK    6  A    between atoms: N_23  and  C_24
REMARK                            x       y       z     vdW  Elec       q    Type
REMARK                         _______ _______ _______ _____ _____    ______ ____
ROOT
ATOM     12  C   UNL     1      16.309  -6.417  27.556  0.00  0.00    +0.156 C 
ATOM     13  C   UNL     1      15.873  -6.708  26.920  0.00  0.00    +0.166 C 
ATOM     14  O   UNL     1      16.021  -6.225  26.267  0.00  0.00    -0.348 OA
ATOM     15  C   UNL     1      16.549  -5.637  26.500  0.00  0.00    +0.186 C 
ATOM     16  C   UNL     1      16.968  -4.974  26.241  0.00  0.00    +0.229 C 
ATOM     17  C   UNL     1      17.405  -4.683  26.878  0.00  0.00    +0.188 C 
ATOM     18  O   UNL     1      17.256  -5.166  27.530  0.00  0.00    -0.348 OA
ATOM     19  C   UNL     1      16.727  -5.755  27.297  0.00  0.00    +0.168 C 
ENDROOT
BRANCH  12  11
ATOM      8  N   UNL     1      15.634  -7.204  29.477  0.00  0.00    -0.161 NA
ATOM      9  C   UNL     1      15.619  -6.887  28.715  0.00  0.00    +0.344 C 
ATOM     10  O   UNL     1      14.897  -6.726  28.351  0.00  0.00    -0.249 OA
ATOM     11  N   UNL     1      16.325  -6.733  28.318  0.00  0.00    -0.184 NA
BRANCH   8   7
ATOM      4  C   UNL     1      13.516  -7.667  30.670  0.00  0.00    -0.022 A 
ATOM      5  C   UNL     1      13.935  -6.974  30.828  0.00  0.00    -0.003 A 
ATOM      6  C   UNL     1      14.642  -6.820  30.430  0.00  0.00    +0.016 A 
ATOM      7  C   UNL     1      14.929  -7.358  29.875  0.00  0.00    +0.075 A 
ATOM     34  C   UNL     1      14.509  -8.051  29.717  0.00  0.00    +0.016 A 
ATOM     35  C   UNL     1      13.803  -8.206  30.115  0.00  0.00    -0.003 A 
BRANCH   4   2
ATOM      1  C   UNL     1      12.759  -8.464  31.583  0.00  0.00    +0.005 C 
ATOM      2  C   UNL     1      12.809  -7.822  31.068  0.00  0.00    +0.022 C 
ATOM      3  C   UNL     1      12.155  -7.334  30.951  0.00  0.00    +0.005 C 
ENDBRANCH   4   2
ENDBRANCH   8   7
ENDBRANCH  12  11
BRANCH  16  20
ATOM     20  O   UNL     1      16.952  -4.658  25.479  0.00  0.00    -0.432 OA
BRANCH  20  21
ATOM     21  C   UNL     1      17.010  -3.844  25.369  0.00  0.00    +0.425 C 
ATOM     22  O   UNL     1      17.238  -3.358  25.996  0.00  0.00    -0.224 OA
ATOM     23  N   UNL     1      16.841  -3.513  24.632  0.00  0.00    -0.142 NA
BRANCH  23  24
ATOM     24  C   UNL     1      16.899  -2.698  24.522  0.00  0.00    +0.077 A 
ATOM     25  C   UNL     1      16.798  -2.187  25.161  0.00  0.00    +0.017 A 
ATOM     26  C   UNL     1      16.856  -1.371  25.051  0.00  0.00    +0.001 A 
ATOM     27  C   UNL     1      17.016  -1.067  24.302  0.00  0.00    +0.000 A 
ATOM     28  C   UNL     1      17.118  -1.577  23.662  0.00  0.00    +0.001 A 
ATOM     29  C   UNL     1      17.278  -1.273  22.912  0.00  0.00    +0.000 A 
ATOM     30  C   UNL     1      17.380  -1.784  22.273  0.00  0.00    +0.000 A 
ATOM     31  C   UNL     1      17.322  -2.600  22.383  0.00  0.00    +0.000 A 
ATOM     32  C   UNL     1      17.161  -2.904  23.132  0.00  0.00    +0.001 A 
ATOM     33  C   UNL     1      17.059  -2.394  23.773  0.00  0.00    +0.015 A 
ENDBRANCH  23  24
ENDBRANCH  20  21
ENDBRANCH  16  20
TORSDOF 6
ENDMDL
