MODEL 1
REMARK VINA RESULT:     -11.4      0.000      0.000
REMARK  Name = 
REMARK  7 active torsions:
REMARK  status: ('A' for Active; 'I' for Inactive)
REMARK    1  A    between atoms: S_2  and  C_5
REMARK    2  A    between atoms: C_8  and  C_9
REMARK    3  A    between atoms: C_9  and  N_10
REMARK    4  A    between atoms: C_13  and  C_15
REMARK    5  A    between atoms: C_18  and  C_19
REMARK    6  A    between atoms: C_19  and  O_20
REMARK    7  A    between atoms: O_20  and  C_21
REMARK                            x       y       z     vdW  Elec       q    Type
REMARK                         _______ _______ _______ _____ _____    ______ ____
ROOT
ATOM     10  N   UNL     1      -1.291   3.282  25.081  0.00  0.00    -0.268 NA
ATOM     11  C   UNL     1      -0.594   3.270  25.522  0.00  0.00    +0.073 C 
ATOM     12  C   UNL     1      -0.250   2.525  25.436  0.00  0.00    +0.028 C 
ATOM     13  C   UNL     1      -0.735   2.076  24.941  0.00  0.00    +0.096 C 
ATOM     14  C   UNL     1      -1.378   2.544  24.722  0.00  0.00    +0.082 C 
ENDROOT
BRANCH  13  15
ATOM     15  C   UNL     1      -0.600   1.297  24.707  0.00  0.00    +0.227 A 
ATOM     16  N   UNL     1       0.086   1.010  24.349  0.00  0.00    -0.112 NA
ATOM     17  N   UNL     1      -0.017   0.204  24.210  0.00  0.00    -0.108 NA
ATOM     18  C   UNL     1      -0.767  -0.008  24.482  0.00  0.00    +0.270 A 
ATOM     28  O   UNL     1      -1.127   0.668  24.789  0.00  0.00    -0.420 OA
BRANCH  18  19
ATOM     19  C   UNL     1      -1.098  -0.763  24.451  0.00  0.00    +0.291 C 
BRANCH  19  20
ATOM     20  O   UNL     1      -1.609  -1.014  25.049  0.00  0.00    -0.465 OA
BRANCH  20  21
ATOM     21  C   UNL     1      -2.177  -1.589  24.889  0.00  0.00    +0.139 A 
ATOM     22  C   UNL     1      -2.972  -1.441  25.054  0.00  0.00    +0.039 A 
ATOM     23  C   UNL     1      -3.541  -2.016  24.895  0.00  0.00    +0.033 A 
ATOM     24  C   UNL     1      -3.316  -2.741  24.571  0.00  0.00    +0.140 A 
ATOM     25  F   UNL     1      -3.885  -3.316  24.412  0.00  0.00    -0.204 F 
ATOM     26  C   UNL     1      -2.521  -2.889  24.406  0.00  0.00    +0.033 A 
ATOM     27  C   UNL     1      -1.952  -2.314  24.565  0.00  0.00    +0.039 A 
ENDBRANCH  20  21
ENDBRANCH  19  20
ENDBRANCH  18  19
ENDBRANCH  13  15
BRANCH  10   9
ATOM      9  C   UNL     1      -1.809   3.920  25.011  0.00  0.00    +0.099 C 
BRANCH   9   8
ATOM      5  C   UNL     1      -4.229   3.596  25.416  0.00  0.00    +0.106 A 
ATOM      6  C   UNL     1      -3.725   3.768  26.046  0.00  0.00    +0.018 A 
ATOM      7  C   UNL     1      -2.919   3.876  25.911  0.00  0.00    -0.002 A 
ATOM      8  C   UNL     1      -2.615   3.812  25.146  0.00  0.00    -0.006 A 
ATOM     29  C   UNL     1      -3.120   3.640  24.516  0.00  0.00    -0.002 A 
ATOM     30  C   UNL     1      -3.927   3.532  24.651  0.00  0.00    +0.018 A 
BRANCH   5   2
ATOM      1  C   UNL     1      -5.842   3.380  25.685  0.00  0.00    +0.182 C 
ATOM      2  S   UNL     1      -5.036   3.488  25.551  0.00  0.00    +0.010 S 
ATOM      3  O   UNL     1      -4.902   2.690  25.713  0.00  0.00    -0.169 OA
ATOM      4  O   UNL     1      -5.170   4.285  25.388  0.00  0.00    -0.169 OA
ENDBRANCH   5   2
ENDBRANCH   9   8
ENDBRANCH  10   9
TORSDOF 7
ENDMDL
MODEL 2
REMARK VINA RESULT:     -11.0      2.099      3.583
REMARK  Name = 
REMARK  7 active torsions:
REMARK  status: ('A' for Active; 'I' for Inactive)
REMARK    1  A    between atoms: S_2  and  C_5
REMARK    2  A    between atoms: C_8  and  C_9
REMARK    3  A    between atoms: C_9  and  N_10
REMARK    4  A    between atoms: C_13  and  C_15
REMARK    5  A    between atoms: C_18  and  C_19
REMARK    6  A    between atoms: C_19  and  O_20
REMARK    7  A    between atoms: O_20  and  C_21
REMARK                            x       y       z     vdW  Elec       q    Type
REMARK                         _______ _______ _______ _____ _____    ______ ____
ROOT
ATOM     10  N   UNL     1      -3.226   3.789  25.548  0.00  0.00    -0.268 NA
ATOM     11  C   UNL     1      -3.931   4.217  25.537  0.00  0.00    +0.073 C 
ATOM     12  C   UNL     1      -4.548   3.688  25.395  0.00  0.00    +0.028 C 
ATOM     13  C   UNL     1      -4.225   2.933  25.318  0.00  0.00    +0.096 C 
ATOM     14  C   UNL     1      -3.407   2.995  25.413  0.00  0.00    +0.082 C 
ENDROOT
BRANCH  13  15
ATOM     15  C   UNL     1      -4.645   2.239  25.172  0.00  0.00    +0.227 A 
ATOM     16  N   UNL     1      -5.465   2.172  25.109  0.00  0.00    -0.112 NA
ATOM     17  N   UNL     1      -5.645   1.381  24.962  0.00  0.00    -0.108 NA
ATOM     18  C   UNL     1      -4.937   0.958  24.934  0.00  0.00    +0.270 A 
ATOM     28  O   UNL     1      -4.319   1.489  25.064  0.00  0.00    -0.420 OA
BRANCH  18  19
ATOM     19  C   UNL     1      -4.861   0.148  24.799  0.00  0.00    +0.291 C 
BRANCH  19  20
ATOM     20  O   UNL     1      -4.148  -0.159  24.520  0.00  0.00    -0.465 OA
BRANCH  20  21
ATOM     21  C   UNL     1      -4.030  -0.975  24.501  0.00  0.00    +0.139 A 
ATOM     22  C   UNL     1      -3.641  -1.350  25.124  0.00  0.00    +0.039 A 
ATOM     23  C   UNL     1      -3.523  -2.165  25.106  0.00  0.00    +0.033 A 
ATOM     24  C   UNL     1      -3.794  -2.608  24.464  0.00  0.00    +0.140 A 
ATOM     25  F   UNL     1      -3.676  -3.424  24.445  0.00  0.00    -0.204 F 
ATOM     26  C   UNL     1      -4.184  -2.233  23.841  0.00  0.00    +0.033 A 
ATOM     27  C   UNL     1      -4.302  -1.416  23.859  0.00  0.00    +0.039 A 
ENDBRANCH  20  21
ENDBRANCH  19  20
ENDBRANCH  18  19
ENDBRANCH  13  15
BRANCH  10   9
ATOM      9  C   UNL     1      -2.472   4.099  25.672  0.00  0.00    +0.099 C 
BRANCH   9   8
ATOM      5  C   UNL     1      -0.475   2.808  24.989  0.00  0.00    +0.106 A 
ATOM      6  C   UNL     1      -0.800   2.699  25.739  0.00  0.00    +0.018 A 
ATOM      7  C   UNL     1      -1.465   3.129  25.967  0.00  0.00    -0.002 A 
ATOM      8  C   UNL     1      -1.806   3.669  25.445  0.00  0.00    -0.006 A 
ATOM     29  C   UNL     1      -1.481   3.778  24.694  0.00  0.00    -0.002 A 
ATOM     30  C   UNL     1      -0.815   3.347  24.466  0.00  0.00    +0.018 A 
BRANCH   5   2
ATOM      1  C   UNL     1       0.857   1.947  24.533  0.00  0.00    +0.182 C 
ATOM      2  S   UNL     1       0.192   2.377  24.761  0.00  0.00    +0.010 S 
ATOM      3  O   UNL     1      -0.164   2.213  24.035  0.00  0.00    -0.169 OA
ATOM      4  O   UNL     1       0.546   2.541  25.487  0.00  0.00    -0.169 OA
ENDBRANCH   5   2
ENDBRANCH   9   8
ENDBRANCH  10   9
TORSDOF 7
ENDMDL
MODEL 3
REMARK VINA RESULT:     -10.9      2.807      5.895
REMARK  Name = 
REMARK  7 active torsions:
REMARK  status: ('A' for Active; 'I' for Inactive)
REMARK    1  A    between atoms: S_2  and  C_5
REMARK    2  A    between atoms: C_8  and  C_9
REMARK    3  A    between atoms: C_9  and  N_10
REMARK    4  A    between atoms: C_13  and  C_15
REMARK    5  A    between atoms: C_18  and  C_19
REMARK    6  A    between atoms: C_19  and  O_20
REMARK    7  A    between atoms: O_20  and  C_21
REMARK                            x       y       z     vdW  Elec       q    Type
REMARK                         _______ _______ _______ _____ _____    ______ ____
ROOT
ATOM     10  N   UNL     1      -4.668   0.242  24.688  0.00  0.00    -0.268 NA
ATOM     11  C   UNL     1      -5.370   0.290  25.119  0.00  0.00    +0.073 C 
ATOM     12  C   UNL     1      -5.461   1.070  25.372  0.00  0.00    +0.028 C 
ATOM     13  C   UNL     1      -4.815   1.504  25.098  0.00  0.00    +0.096 C 
ATOM     14  C   UNL     1      -4.325   0.993  24.675  0.00  0.00    +0.082 C 
ENDROOT
BRANCH  13  15
ATOM     15  C   UNL     1      -4.683   2.309  25.224  0.00  0.00    +0.227 A 
ATOM     16  N   UNL     1      -5.246   2.860  25.468  0.00  0.00    -0.112 NA
ATOM     17  N   UNL     1      -4.876   3.594  25.523  0.00  0.00    -0.108 NA
ATOM     18  C   UNL     1      -4.084   3.498  25.314  0.00  0.00    +0.270 A 
ATOM     28  O   UNL     1      -3.965   2.703  25.129  0.00  0.00    -0.420 OA
BRANCH  18  19
ATOM     19  C   UNL     1      -3.512   4.092  25.292  0.00  0.00    +0.291 C 
BRANCH  19  20
ATOM     20  O   UNL     1      -2.805   3.999  25.707  0.00  0.00    -0.465 OA
BRANCH  20  21
ATOM     21  C   UNL     1      -2.115   4.355  25.430  0.00  0.00    +0.139 A 
ATOM     22  C   UNL     1      -1.450   3.894  25.269  0.00  0.00    +0.039 A 
ATOM     23  C   UNL     1      -0.759   4.249  24.991  0.00  0.00    +0.033 A 
ATOM     24  C   UNL     1      -0.733   5.066  24.874  0.00  0.00    +0.140 A 
ATOM     25  F   UNL     1      -0.042   5.420  24.597  0.00  0.00    -0.204 F 
ATOM     26  C   UNL     1      -1.398   5.526  25.035  0.00  0.00    +0.033 A 
ATOM     27  C   UNL     1      -2.089   5.171  25.313  0.00  0.00    +0.039 A 
ENDBRANCH  20  21
ENDBRANCH  19  20
ENDBRANCH  18  19
ENDBRANCH  13  15
BRANCH  10   9
ATOM      9  C   UNL     1      -4.362  -0.437  24.333  0.00  0.00    +0.099 C 
BRANCH   9   8
ATOM      5  C   UNL     1      -2.109  -1.251  24.955  0.00  0.00    +0.106 A 
ATOM      6  C   UNL     1      -2.201  -0.738  24.315  0.00  0.00    +0.018 A 
ATOM      7  C   UNL     1      -2.951  -0.467  24.108  0.00  0.00    -0.002 A 
ATOM      8  C   UNL     1      -3.612  -0.708  24.540  0.00  0.00    -0.006 A 
ATOM     29  C   UNL     1      -3.520  -1.220  25.180  0.00  0.00    -0.002 A 
ATOM     30  C   UNL     1      -2.769  -1.492  25.388  0.00  0.00    +0.018 A 
BRANCH   5   2
ATOM      1  C   UNL     1      -0.608  -1.794  25.369  0.00  0.00    +0.182 C 
ATOM      2  S   UNL     1      -1.358  -1.522  25.162  0.00  0.00    +0.010 S 
ATOM      3  O   UNL     1      -1.284  -0.903  25.702  0.00  0.00    -0.169 OA
ATOM      4  O   UNL     1      -1.433  -2.141  24.623  0.00  0.00    -0.169 OA
ENDBRANCH   5   2
ENDBRANCH   9   8
ENDBRANCH  10   9
TORSDOF 7
ENDMDL
MODEL 4
REMARK VINA RESULT:      -7.8     15.732     17.891
REMARK  Name = 
REMARK  7 active torsions:
REMARK  status: ('A' for Active; 'I' for Inactive)
REMARK    1  A    between atoms: S_2  and  C_5
REMARK    2  A    between atoms: C_8  and  C_9
REMARK    3  A    between atoms: C_9  and  N_10
REMARK    4  A    between atoms: C_13  and  C_15
REMARK    5  A    between atoms: C_18  and  C_19
REMARK    6  A    between atoms: C_19  and  O_20
REMARK    7  A    between atoms: O_20  and  C_21
REMARK                            x       y       z     vdW  Elec       q    Type
REMARK                         _______ _______ _______ _____ _____    ______ ____
ROOT
ATOM     10  N   UNL     1      -4.293  -9.722   9.499  0.00  0.00    -0.268 NA
ATOM     11  C   UNL     1      -3.837  -9.043   9.394  0.00  0.00    +0.073 C 
ATOM     12  C   UNL     1      -3.256  -9.033   9.979  0.00  0.00    +0.028 C 
ATOM     13  C   UNL     1      -3.353  -9.706  10.447  0.00  0.00    +0.096 C 
ATOM     14  C   UNL     1      -3.994 -10.132  10.150  0.00  0.00    +0.082 C 
ENDROOT
BRANCH  13  15
ATOM     15  C   UNL     1      -2.891  -9.916  11.096  0.00  0.00    +0.227 A 
ATOM     16  N   UNL     1      -2.068  -9.984  11.105  0.00  0.00    -0.112 NA
ATOM     17  N   UNL     1      -1.839 -10.205  11.865  0.00  0.00    -0.108 NA
ATOM     18  C   UNL     1      -2.518 -10.274  12.328  0.00  0.00    +0.270 A 
ATOM     28  O   UNL     1      -3.169 -10.095  11.852  0.00  0.00    -0.420 OA
BRANCH  18  19
ATOM     19  C   UNL     1      -2.543 -10.484  13.124  0.00  0.00    +0.291 C 
BRANCH  19  20
ATOM     20  O   UNL     1      -1.932 -10.259  13.631  0.00  0.00    -0.465 OA
BRANCH  20  21
ATOM     21  C   UNL     1      -1.999 -10.389  14.442  0.00  0.00    +0.139 A 
ATOM     22  C   UNL     1      -2.720 -10.633  14.761  0.00  0.00    +0.039 A 
ATOM     23  C   UNL     1      -2.788 -10.764  15.572  0.00  0.00    +0.033 A 
ATOM     24  C   UNL     1      -2.136 -10.650  16.066  0.00  0.00    +0.140 A 
ATOM     25  F   UNL     1      -2.204 -10.781  16.877  0.00  0.00    -0.204 F 
ATOM     26  C   UNL     1      -1.416 -10.406  15.746  0.00  0.00    +0.033 A 
ATOM     27  C   UNL     1      -1.347 -10.275  14.934  0.00  0.00    +0.039 A 
ENDBRANCH  20  21
ENDBRANCH  19  20
ENDBRANCH  18  19
ENDBRANCH  13  15
BRANCH  10   9
ATOM      9  C   UNL     1      -4.936  -9.951   9.035  0.00  0.00    +0.099 C 
BRANCH   9   8
ATOM      5  C   UNL     1      -7.190  -9.050   9.512  0.00  0.00    +0.106 A 
ATOM      6  C   UNL     1      -6.661  -8.615   9.053  0.00  0.00    +0.018 A 
ATOM      7  C   UNL     1      -5.910  -8.915   8.894  0.00  0.00    -0.002 A 
ATOM      8  C   UNL     1      -5.687  -9.651   9.194  0.00  0.00    -0.006 A 
ATOM     29  C   UNL     1      -6.216 -10.086   9.653  0.00  0.00    -0.002 A 
ATOM     30  C   UNL     1      -6.969  -9.786   9.812  0.00  0.00    +0.018 A 
BRANCH   5   2
ATOM      1  C   UNL     1      -8.694  -8.450   9.831  0.00  0.00    +0.182 C 
ATOM      2  S   UNL     1      -7.943  -8.750   9.672  0.00  0.00    +0.010 S 
ATOM      3  O   UNL     1      -7.838  -8.915  10.473  0.00  0.00    -0.169 OA
ATOM      4  O   UNL     1      -8.047  -8.586   8.871  0.00  0.00    -0.169 OA
ENDBRANCH   5   2
ENDBRANCH   9   8
ENDBRANCH  10   9
TORSDOF 7
ENDMDL
