MODEL 1
REMARK VINA RESULT:     -13.0      0.000      0.000
REMARK  Name = 
REMARK  3 active torsions:
REMARK  status: ('A' for Active; 'I' for Inactive)
REMARK    1  A    between atoms: N_2  and  C_4
REMARK    2  A    between atoms: C_4  and  C_5
REMARK    3  A    between atoms: C_16  and  C_17
REMARK                            x       y       z     vdW  Elec       q    Type
REMARK                         _______ _______ _______ _____ _____    ______ ____
ROOT
ATOM      5  C   UNL     1      -2.596   1.376  24.310  0.00  0.00    +0.242 C 
ATOM      6  O   UNL     1      -1.805   1.296  24.092  0.00  0.00    -0.273 OA
ATOM      7  N   UNL     1      -2.942   2.125  24.341  0.00  0.00    -0.278 N 
ATOM      8  C   UNL     1      -3.008   2.955  24.283  0.00  0.00    +0.095 C 
ATOM      9  C   UNL     1      -3.955   3.065  24.543  0.00  0.00    +0.043 C 
ATOM     10  C   UNL     1      -4.704   3.321  24.733  0.00  0.00    +0.011 C 
ATOM     11  C   UNL     1      -4.359   2.711  24.691  0.00  0.00    +0.058 C 
ATOM     12  C   UNL     1      -3.443   2.622  24.438  0.00  0.00    +0.099 C 
ATOM     13  C   UNL     1      -4.477   1.807  24.807  0.00  0.00    +0.041 A 
ATOM     14  C   UNL     1      -5.054   1.259  25.022  0.00  0.00    +0.013 A 
ATOM     15  C   UNL     1      -4.871   0.455  25.043  0.00  0.00    +0.006 A 
ATOM     16  C   UNL     1      -4.111   0.199  24.850  0.00  0.00    +0.058 A 
ATOM     23  C   UNL     1      -3.533   0.748  24.635  0.00  0.00    +0.261 A 
ATOM     24  O   UNL     1      -3.053   0.082  24.559  0.00  0.00    -0.267 OA
ATOM     25  N   UNL     1      -3.716   1.552  24.614  0.00  0.00    -0.299 N 
ATOM     26  C   UNL     1      -4.068   2.119  24.662  0.00  0.00    +0.110 C 
ENDROOT
BRANCH  16  17
ATOM     17  C   UNL     1      -3.929  -0.605  24.872  0.00  0.00    +0.024 A 
ATOM     18  C   UNL     1      -4.061  -1.075  24.207  0.00  0.00    +0.003 A 
ATOM     19  C   UNL     1      -3.879  -1.880  24.228  0.00  0.00    +0.021 A 
ATOM     20  C   UNL     1      -3.565  -2.214  24.913  0.00  0.00    +0.099 A 
ATOM     21  N   UNL     1      -3.433  -1.744  25.578  0.00  0.00    -0.242 NA
ATOM     22  C   UNL     1      -3.615  -0.939  25.557  0.00  0.00    +0.099 A 
ENDBRANCH  16  17
BRANCH   5   4
ATOM      4  C   UNL     1      -3.042   0.707  24.499  0.00  0.00    +0.159 C 
BRANCH   4   2
ATOM      1  C   UNL     1      -1.971  -0.192  24.792  0.00  0.00    +0.090 C 
ATOM      2  N   UNL     1      -2.703  -0.043  24.443  0.00  0.00    -0.263 NA
ATOM      3  C   UNL     1      -2.660  -0.834  24.215  0.00  0.00    +0.090 C 
ENDBRANCH   4   2
ENDBRANCH   5   4
TORSDOF 3
ENDMDL
MODEL 2
REMARK VINA RESULT:     -13.0      0.947      3.419
REMARK  Name = 
REMARK  3 active torsions:
REMARK  status: ('A' for Active; 'I' for Inactive)
REMARK    1  A    between atoms: N_2  and  C_4
REMARK    2  A    between atoms: C_4  and  C_5
REMARK    3  A    between atoms: C_16  and  C_17
REMARK                            x       y       z     vdW  Elec       q    Type
REMARK                         _______ _______ _______ _____ _____    ______ ____
ROOT
ATOM      5  C   UNL     1      -1.799  -0.678  24.632  0.00  0.00    +0.242 C 
ATOM      6  O   UNL     1      -1.005  -0.489  24.750  0.00  0.00    -0.273 OA
ATOM      7  N   UNL     1      -2.043  -1.466  24.654  0.00  0.00    -0.278 N 
ATOM      8  C   UNL     1      -1.989  -2.296  24.728  0.00  0.00    +0.095 C 
ATOM      9  C   UNL     1      -2.938  -2.536  24.589  0.00  0.00    +0.043 C 
ATOM     10  C   UNL     1      -3.664  -2.894  24.496  0.00  0.00    +0.011 C 
ATOM     11  C   UNL     1      -3.401  -2.243  24.488  0.00  0.00    +0.058 C 
ATOM     12  C   UNL     1      -2.481  -2.027  24.625  0.00  0.00    +0.099 C 
ATOM     13  C   UNL     1      -3.651  -1.366  24.377  0.00  0.00    +0.041 A 
ATOM     14  C   UNL     1      -4.319  -0.904  24.229  0.00  0.00    +0.013 A 
ATOM     15  C   UNL     1      -4.249  -0.084  24.176  0.00  0.00    +0.006 A 
ATOM     16  C   UNL     1      -3.511   0.275  24.271  0.00  0.00    +0.058 A 
ATOM     23  C   UNL     1      -2.844  -0.187  24.419  0.00  0.00    +0.261 A 
ATOM     24  O   UNL     1      -2.451   0.538  24.427  0.00  0.00    -0.267 OA
ATOM     25  N   UNL     1      -2.914  -1.007  24.472  0.00  0.00    -0.299 N 
ATOM     26  C   UNL     1      -3.190  -1.617  24.474  0.00  0.00    +0.110 C 
ENDROOT
BRANCH  16  17
ATOM     17  C   UNL     1      -3.442   1.095  24.217  0.00  0.00    +0.024 A 
ATOM     18  C   UNL     1      -3.250   1.446  23.496  0.00  0.00    +0.003 A 
ATOM     19  C   UNL     1      -3.181   2.266  23.441  0.00  0.00    +0.021 A 
ATOM     20  C   UNL     1      -3.304   2.735  24.109  0.00  0.00    +0.099 A 
ATOM     21  N   UNL     1      -3.496   2.385  24.830  0.00  0.00    -0.242 NA
ATOM     22  C   UNL     1      -3.565   1.564  24.884  0.00  0.00    +0.099 A 
ENDBRANCH  16  17
BRANCH   5   4
ATOM      4  C   UNL     1      -2.350  -0.079  24.493  0.00  0.00    +0.159 C 
BRANCH   4   2
ATOM      1  C   UNL     1      -1.461   1.007  24.222  0.00  0.00    +0.090 C 
ATOM      2  N   UNL     1      -2.134   0.711  24.595  0.00  0.00    -0.263 NA
ATOM      3  C   UNL     1      -2.205   1.479  24.889  0.00  0.00    +0.090 C 
ENDBRANCH   4   2
ENDBRANCH   5   4
TORSDOF 3
ENDMDL
MODEL 3
REMARK VINA RESULT:     -12.4      1.390      3.658
REMARK  Name = 
REMARK  3 active torsions:
REMARK  status: ('A' for Active; 'I' for Inactive)
REMARK    1  A    between atoms: N_2  and  C_4
REMARK    2  A    between atoms: C_4  and  C_5
REMARK    3  A    between atoms: C_16  and  C_17
REMARK                            x       y       z     vdW  Elec       q    Type
REMARK                         _______ _______ _______ _____ _____    ______ ____
ROOT
ATOM      5  C   UNL     1      -3.455  -0.023  24.178  0.00  0.00    +0.242 C 
ATOM      6  O   UNL     1      -3.914   0.626  23.957  0.00  0.00    -0.273 OA
ATOM      7  N   UNL     1      -3.781  -0.781  24.168  0.00  0.00    -0.278 N 
ATOM      8  C   UNL     1      -4.351  -1.383  24.063  0.00  0.00    +0.095 C 
ATOM      9  C   UNL     1      -3.812  -2.169  24.325  0.00  0.00    +0.043 C 
ATOM     10  C   UNL     1      -3.510  -2.903  24.508  0.00  0.00    +0.011 C 
ATOM     11  C   UNL     1      -3.286  -2.238  24.497  0.00  0.00    +0.058 C 
ATOM     12  C   UNL     1      -3.820  -1.488  24.241  0.00  0.00    +0.099 C 
ATOM     13  C   UNL     1      -2.543  -1.725  24.667  0.00  0.00    +0.041 A 
ATOM     14  C   UNL     1      -1.761  -1.794  24.920  0.00  0.00    +0.013 A 
ATOM     15  C   UNL     1      -1.287  -1.122  24.986  0.00  0.00    +0.006 A 
ATOM     16  C   UNL     1      -1.597  -0.380  24.801  0.00  0.00    +0.058 A 
ATOM     23  C   UNL     1      -2.379  -0.310  24.548  0.00  0.00    +0.261 A 
ATOM     24  O   UNL     1      -2.203   0.494  24.506  0.00  0.00    -0.267 OA
ATOM     25  N   UNL     1      -2.852  -0.983  24.482  0.00  0.00    -0.299 N 
ATOM     26  C   UNL     1      -3.040  -1.625  24.500  0.00  0.00    +0.110 C 
ENDROOT
BRANCH  16  17
ATOM     17  C   UNL     1      -1.123   0.292  24.867  0.00  0.00    +0.024 A 
ATOM     18  C   UNL     1      -1.139   0.740  25.560  0.00  0.00    +0.003 A 
ATOM     19  C   UNL     1      -0.666   1.412  25.628  0.00  0.00    +0.021 A 
ATOM     20  C   UNL     1      -0.176   1.636  25.003  0.00  0.00    +0.099 A 
ATOM     21  N   UNL     1      -0.159   1.189  24.310  0.00  0.00    -0.242 NA
ATOM     22  C   UNL     1      -0.633   0.516  24.243  0.00  0.00    +0.099 A 
ENDBRANCH  16  17
BRANCH   5   4
ATOM      4  C   UNL     1      -2.671   0.087  24.410  0.00  0.00    +0.159 C 
BRANCH   4   2
ATOM      1  C   UNL     1      -2.647   1.510  24.534  0.00  0.00    +0.090 C 
ATOM      2  N   UNL     1      -2.298   0.809  24.274  0.00  0.00    -0.263 NA
ATOM      3  C   UNL     1      -1.705   1.311  23.995  0.00  0.00    +0.090 C 
ENDBRANCH   4   2
ENDBRANCH   5   4
TORSDOF 3
ENDMDL
MODEL 4
REMARK VINA RESULT:     -12.2      1.507      2.458
REMARK  Name = 
REMARK  3 active torsions:
REMARK  status: ('A' for Active; 'I' for Inactive)
REMARK    1  A    between atoms: N_2  and  C_4
REMARK    2  A    between atoms: C_4  and  C_5
REMARK    3  A    between atoms: C_16  and  C_17
REMARK                            x       y       z     vdW  Elec       q    Type
REMARK                         _______ _______ _______ _____ _____    ______ ____
ROOT
ATOM      5  C   UNL     1      -3.586   3.049  25.163  0.00  0.00    +0.242 C 
ATOM      6  O   UNL     1      -3.205   3.767  25.302  0.00  0.00    -0.273 OA
ATOM      7  N   UNL     1      -4.405   2.993  25.249  0.00  0.00    -0.278 N 
ATOM      8  C   UNL     1      -5.190   3.231  25.406  0.00  0.00    +0.095 C 
ATOM      9  C   UNL     1      -5.658   2.377  25.243  0.00  0.00    +0.043 C 
ATOM     10  C   UNL     1      -6.184   1.762  25.148  0.00  0.00    +0.011 C 
ATOM     11  C   UNL     1      -5.492   1.867  25.090  0.00  0.00    +0.058 C 
ATOM     12  C   UNL     1      -5.054   2.700  25.252  0.00  0.00    +0.099 C 
ATOM     13  C   UNL     1      -4.712   1.429  24.882  0.00  0.00    +0.041 A 
ATOM     14  C   UNL     1      -4.435   0.686  24.656  0.00  0.00    +0.013 A 
ATOM     15  C   UNL     1      -3.629   0.568  24.527  0.00  0.00    +0.006 A 
ATOM     16  C   UNL     1      -3.099   1.193  24.624  0.00  0.00    +0.058 A 
ATOM     23  C   UNL     1      -3.376   1.936  24.850  0.00  0.00    +0.261 A 
ATOM     24  O   UNL     1      -2.581   2.150  24.808  0.00  0.00    -0.267 OA
ATOM     25  N   UNL     1      -4.182   2.054  24.979  0.00  0.00    -0.299 N 
ATOM     26  C   UNL     1      -4.838   1.928  25.026  0.00  0.00    +0.110 C 
ENDROOT
BRANCH  16  17
ATOM     17  C   UNL     1      -2.294   1.074  24.494  0.00  0.00    +0.024 A 
ATOM     18  C   UNL     1      -1.822   0.759  25.094  0.00  0.00    +0.003 A 
ATOM     19  C   UNL     1      -1.016   0.640  24.965  0.00  0.00    +0.021 A 
ATOM     20  C   UNL     1      -0.682   0.836  24.238  0.00  0.00    +0.099 A 
ATOM     21  N   UNL     1      -1.152   1.151  23.638  0.00  0.00    -0.242 NA
ATOM     22  C   UNL     1      -1.959   1.270  23.766  0.00  0.00    +0.099 A 
ENDBRANCH  16  17
BRANCH   5   4
ATOM      4  C   UNL     1      -3.148   2.386  24.938  0.00  0.00    +0.159 C 
BRANCH   4   2
ATOM      1  C   UNL     1      -1.898   3.010  24.639  0.00  0.00    +0.090 C 
ATOM      2  N   UNL     1      -2.325   2.399  24.990  0.00  0.00    -0.263 NA
ATOM      3  C   UNL     1      -1.580   2.124  25.216  0.00  0.00    +0.090 C 
ENDBRANCH   4   2
ENDBRANCH   5   4
TORSDOF 3
ENDMDL
MODEL 5
REMARK VINA RESULT:     -12.0      1.864      3.129
REMARK  Name = 
REMARK  3 active torsions:
REMARK  status: ('A' for Active; 'I' for Inactive)
REMARK    1  A    between atoms: N_2  and  C_4
REMARK    2  A    between atoms: C_4  and  C_5
REMARK    3  A    between atoms: C_16  and  C_17
REMARK                            x       y       z     vdW  Elec       q    Type
REMARK                         _______ _______ _______ _____ _____    ______ ____
ROOT
ATOM      5  C   UNL     1      -3.515   1.662  24.573  0.00  0.00    +0.242 C 
ATOM      6  O   UNL     1      -3.458   0.931  24.195  0.00  0.00    -0.273 OA
ATOM      7  N   UNL     1      -4.256   1.988  24.731  0.00  0.00    -0.278 N 
ATOM      8  C   UNL     1      -5.088   2.056  24.755  0.00  0.00    +0.095 C 
ATOM      9  C   UNL     1      -5.170   2.931  25.208  0.00  0.00    +0.043 C 
ATOM     10  C   UNL     1      -5.405   3.625  25.564  0.00  0.00    +0.011 C 
ATOM     11  C   UNL     1      -4.803   3.301  25.405  0.00  0.00    +0.058 C 
ATOM     12  C   UNL     1      -4.740   2.455  24.967  0.00  0.00    +0.099 C 
ATOM     13  C   UNL     1      -3.891   3.401  25.469  0.00  0.00    +0.041 A 
ATOM     14  C   UNL     1      -3.323   3.929  25.750  0.00  0.00    +0.013 A 
ATOM     15  C   UNL     1      -2.521   3.753  25.670  0.00  0.00    +0.006 A 
ATOM     16  C   UNL     1      -2.288   3.049  25.308  0.00  0.00    +0.058 A 
ATOM     23  C   UNL     1      -2.855   2.521  25.027  0.00  0.00    +0.261 A 
ATOM     24  O   UNL     1      -2.202   2.072  24.803  0.00  0.00    -0.267 OA
ATOM     25  N   UNL     1      -3.657   2.698  25.107  0.00  0.00    -0.299 N 
ATOM     26  C   UNL     1      -4.217   3.027  25.270  0.00  0.00    +0.110 C 
ENDROOT
BRANCH  16  17
ATOM     17  C   UNL     1      -1.486   2.874  25.228  0.00  0.00    +0.024 A 
ATOM     18  C   UNL     1      -1.069   2.553  25.864  0.00  0.00    +0.003 A 
ATOM     19  C   UNL     1      -0.267   2.377  25.785  0.00  0.00    +0.021 A 
ATOM     20  C   UNL     1       0.119   2.523  25.070  0.00  0.00    +0.099 A 
ATOM     21  N   UNL     1      -0.297   2.844  24.434  0.00  0.00    -0.242 NA
ATOM     22  C   UNL     1      -1.100   3.020  24.514  0.00  0.00    +0.099 A 
ENDBRANCH  16  17
BRANCH   5   4
ATOM      4  C   UNL     1      -2.830   2.068  24.792  0.00  0.00    +0.159 C 
BRANCH   4   2
ATOM      1  C   UNL     1      -1.849   1.264  24.134  0.00  0.00    +0.090 C 
ATOM      2  N   UNL     1      -2.104   1.676  24.801  0.00  0.00    -0.263 NA
ATOM      3  C   UNL     1      -1.390   1.420  25.126  0.00  0.00    +0.090 C 
ENDBRANCH   4   2
ENDBRANCH   5   4
TORSDOF 3
ENDMDL
MODEL 6
REMARK VINA RESULT:     -12.0      1.348      2.097
REMARK  Name = 
REMARK  3 active torsions:
REMARK  status: ('A' for Active; 'I' for Inactive)
REMARK    1  A    between atoms: N_2  and  C_4
REMARK    2  A    between atoms: C_4  and  C_5
REMARK    3  A    between atoms: C_16  and  C_17
REMARK                            x       y       z     vdW  Elec       q    Type
REMARK                         _______ _______ _______ _____ _____    ______ ____
ROOT
ATOM      5  C   UNL     1      -1.283   1.817  25.256  0.00  0.00    +0.242 C 
ATOM      6  O   UNL     1      -0.668   1.280  25.372  0.00  0.00    -0.273 OA
ATOM      7  N   UNL     1      -1.154   2.623  25.374  0.00  0.00    -0.278 N 
ATOM      8  C   UNL     1      -0.746   3.328  25.559  0.00  0.00    +0.095 C 
ATOM      9  C   UNL     1      -1.474   3.982  25.423  0.00  0.00    +0.043 C 
ATOM     10  C   UNL     1      -1.956   4.635  25.356  0.00  0.00    +0.011 C 
ATOM     11  C   UNL     1      -2.009   3.940  25.271  0.00  0.00    +0.058 C 
ATOM     12  C   UNL     1      -1.294   3.321  25.406  0.00  0.00    +0.099 C 
ATOM     13  C   UNL     1      -2.610   3.286  25.037  0.00  0.00    +0.041 A 
ATOM     14  C   UNL     1      -3.397   3.192  24.809  0.00  0.00    +0.013 A 
ATOM     15  C   UNL     1      -3.693   2.439  24.650  0.00  0.00    +0.006 A 
ATOM     16  C   UNL     1      -3.202   1.779  24.720  0.00  0.00    +0.058 A 
ATOM     23  C   UNL     1      -2.415   1.873  24.948  0.00  0.00    +0.261 A 
ATOM     24  O   UNL     1      -2.385   1.053  24.872  0.00  0.00    -0.267 OA
ATOM     25  N   UNL     1      -2.119   2.627  25.106  0.00  0.00    -0.299 N 
ATOM     26  C   UNL     1      -2.095   3.292  25.180  0.00  0.00    +0.110 C 
ENDROOT
BRANCH  16  17
ATOM     17  C   UNL     1      -3.498   1.026  24.561  0.00  0.00    +0.024 A 
ATOM     18  C   UNL     1      -3.893   0.606  25.151  0.00  0.00    +0.003 A 
ATOM     19  C   UNL     1      -4.189  -0.147  24.993  0.00  0.00    +0.021 A 
ATOM     20  C   UNL     1      -4.092  -0.480  24.245  0.00  0.00    +0.099 A 
ATOM     21  N   UNL     1      -3.698  -0.060  23.654  0.00  0.00    -0.242 NA
ATOM     22  C   UNL     1      -3.401   0.694  23.812  0.00  0.00    +0.099 A 
ENDBRANCH  16  17
BRANCH   5   4
ATOM      4  C   UNL     1      -2.028   1.547  25.022  0.00  0.00    +0.159 C 
BRANCH   4   2
ATOM      1  C   UNL     1      -1.676   0.230  24.594  0.00  0.00    +0.090 C 
ATOM      2  N   UNL     1      -2.184   0.738  24.999  0.00  0.00    -0.263 NA
ATOM      3  C   UNL     1      -2.605   0.047  25.163  0.00  0.00    +0.090 C 
ENDBRANCH   4   2
ENDBRANCH   5   4
TORSDOF 3
ENDMDL
