MODEL 1
REMARK VINA RESULT:     -17.3      0.000      0.000
REMARK  Name = 
REMARK  4 active torsions:
REMARK  status: ('A' for Active; 'I' for Inactive)
REMARK    1  A    between atoms: N_9  and  C_10
REMARK    2  A    between atoms: C_10  and  C_11
REMARK    3  A    between atoms: C_15  and  C_17
REMARK    4  A    between atoms: C_23  and  C_24
REMARK                            x       y       z     vdW  Elec       q    Type
REMARK                         _______ _______ _______ _____ _____    ______ ____
ROOT
ATOM      1  O   UNL     1      -2.861   0.953  24.772  0.00  0.00    -0.267 OA
ATOM      2  C   UNL     1      -3.623   1.230  24.928  0.00  0.00    +0.261 A 
ATOM      3  N   UNL     1      -3.748   2.032  25.072  0.00  0.00    -0.299 N 
ATOM      4  C   UNL     1      -4.519   1.718  25.137  0.00  0.00    +0.110 C 
ATOM      5  C   UNL     1      -5.019   2.546  25.341  0.00  0.00    +0.039 C 
ATOM      6  C   UNL     1      -5.566   3.125  25.513  0.00  0.00    +0.011 C 
ATOM      7  C   UNL     1      -4.874   3.081  25.403  0.00  0.00    +0.054 C 
ATOM      8  C   UNL     1      -4.115   3.597  25.372  0.00  0.00    +0.078 C 
ATOM      9  N   UNL     1      -3.572   3.018  25.201  0.00  0.00    -0.269 NA
ATOM     19  C   UNL     1      -4.220   3.078  25.306  0.00  0.00    +0.074 C 
ATOM     20  C   UNL     1      -4.508   2.309  25.228  0.00  0.00    +0.041 A 
ATOM     21  C   UNL     1      -5.144   1.784  25.240  0.00  0.00    +0.013 A 
ATOM     22  C   UNL     1      -5.019   0.982  25.095  0.00  0.00    +0.006 A 
ATOM     23  C   UNL     1      -4.258   0.705  24.939  0.00  0.00    +0.062 A 
ENDROOT
BRANCH  23  24
ATOM     24  C   UNL     1      -4.133  -0.098  24.795  0.00  0.00    +0.034 A 
ATOM     25  C   UNL     1      -4.331  -0.503  24.104  0.00  0.00    +0.007 A 
ATOM     26  C   UNL     1      -4.108  -1.292  24.198  0.00  0.00    +0.006 A 
ATOM     27  C   UNL     1      -3.772  -1.375  24.947  0.00  0.00    +0.029 A 
ATOM     28  S   UNL     1      -3.788  -0.636  25.316  0.00  0.00    -0.087 S 
ATOM     29  C   UNL     1      -3.497  -2.110  25.196  0.00  0.00    +0.006 A 
ATOM     30  C   UNL     1      -3.556  -2.764  24.696  0.00  0.00    +0.001 A 
ATOM     31  C   UNL     1      -3.891  -2.682  23.948  0.00  0.00    +0.000 A 
ATOM     32  C   UNL     1      -4.168  -1.945  23.699  0.00  0.00    +0.001 A 
ENDBRANCH  23  24
BRANCH   9  10
ATOM     10  C   UNL     1      -2.846   2.663  25.038  0.00  0.00    +0.099 C 
BRANCH  10  11
ATOM     11  C   UNL     1      -2.149   3.099  25.109  0.00  0.00    -0.005 A 
ATOM     12  C   UNL     1      -2.089   3.842  24.757  0.00  0.00    -0.003 A 
ATOM     13  C   UNL     1      -1.392   4.278  24.828  0.00  0.00    +0.000 A 
ATOM     14  C   UNL     1      -0.755   3.970  25.252  0.00  0.00    +0.010 A 
ATOM     15  C   UNL     1      -0.815   3.227  25.605  0.00  0.00    +0.068 A 
ATOM     16  C   UNL     1      -1.512   2.791  25.534  0.00  0.00    +0.007 A 
BRANCH  15  17
ATOM     17  C   UNL     1      -0.178   2.920  26.030  0.00  0.00    +0.100 C 
ATOM     18  N   UNL     1       0.461   2.613  26.453  0.00  0.00    -0.191 NA
ENDBRANCH  15  17
ENDBRANCH  10  11
ENDBRANCH   9  10
TORSDOF 4
ENDMDL
MODEL 2
REMARK VINA RESULT:     -15.9      1.435      4.610
REMARK  Name = 
REMARK  4 active torsions:
REMARK  status: ('A' for Active; 'I' for Inactive)
REMARK    1  A    between atoms: N_9  and  C_10
REMARK    2  A    between atoms: C_10  and  C_11
REMARK    3  A    between atoms: C_15  and  C_17
REMARK    4  A    between atoms: C_23  and  C_24
REMARK                            x       y       z     vdW  Elec       q    Type
REMARK                         _______ _______ _______ _____ _____    ______ ____
ROOT
ATOM      1  O   UNL     1      -2.716   1.682  24.989  0.00  0.00    -0.267 OA
ATOM      2  C   UNL     1      -3.459   2.043  24.998  0.00  0.00    +0.261 A 
ATOM      3  N   UNL     1      -4.141   1.581  25.036  0.00  0.00    -0.299 N 
ATOM      4  C   UNL     1      -4.452   2.356  25.017  0.00  0.00    +0.110 C 
ATOM      5  C   UNL     1      -5.418   2.148  25.053  0.00  0.00    +0.039 C 
ATOM      6  C   UNL     1      -6.232   2.145  25.078  0.00  0.00    +0.011 C 
ATOM      7  C   UNL     1      -5.711   1.675  25.079  0.00  0.00    +0.054 C 
ATOM      8  C   UNL     1      -5.559   0.769  25.108  0.00  0.00    +0.078 C 
ATOM      9  N   UNL     1      -4.747   0.775  25.083  0.00  0.00    -0.269 NA
ATOM     19  C   UNL     1      -5.248   1.203  25.083  0.00  0.00    +0.074 C 
ATOM     20  C   UNL     1      -4.883   1.941  25.045  0.00  0.00    +0.041 A 
ATOM     21  C   UNL     1      -4.942   2.763  25.017  0.00  0.00    +0.013 A 
ATOM     22  C   UNL     1      -4.261   3.225  24.980  0.00  0.00    +0.006 A 
ATOM     23  C   UNL     1      -3.518   2.865  24.970  0.00  0.00    +0.062 A 
ENDROOT
BRANCH  23  24
ATOM     24  C   UNL     1      -2.836   3.327  24.933  0.00  0.00    +0.034 A 
ATOM     25  C   UNL     1      -2.137   3.130  24.541  0.00  0.00    +0.007 A 
ATOM     26  C   UNL     1      -1.602   3.749  24.647  0.00  0.00    +0.006 A 
ATOM     27  C   UNL     1      -1.969   4.329  25.105  0.00  0.00    +0.029 A 
ATOM     28  S   UNL     1      -2.732   4.068  25.282  0.00  0.00    -0.087 S 
ATOM     29  C   UNL     1      -1.562   5.018  25.301  0.00  0.00    +0.006 A 
ATOM     30  C   UNL     1      -0.787   5.128  25.040  0.00  0.00    +0.001 A 
ATOM     31  C   UNL     1      -0.420   4.549  24.583  0.00  0.00    +0.000 A 
ATOM     32  C   UNL     1      -0.827   3.859  24.386  0.00  0.00    +0.001 A 
ENDBRANCH  23  24
BRANCH   9  10
ATOM     10  C   UNL     1      -3.972   0.494  25.070  0.00  0.00    +0.099 C 
BRANCH  10  11
ATOM     11  C   UNL     1      -3.827  -0.316  25.137  0.00  0.00    -0.005 A 
ATOM     12  C   UNL     1      -3.492  -0.620  25.827  0.00  0.00    -0.003 A 
ATOM     13  C   UNL     1      -3.346  -1.429  25.893  0.00  0.00    +0.000 A 
ATOM     14  C   UNL     1      -3.535  -1.934  25.270  0.00  0.00    +0.010 A 
ATOM     15  C   UNL     1      -3.870  -1.631  24.579  0.00  0.00    +0.068 A 
ATOM     16  C   UNL     1      -4.016  -0.821  24.512  0.00  0.00    +0.007 A 
BRANCH  15  17
ATOM     17  C   UNL     1      -4.059  -2.137  23.956  0.00  0.00    +0.100 C 
ATOM     18  N   UNL     1      -4.249  -2.644  23.333  0.00  0.00    -0.191 NA
ENDBRANCH  15  17
ENDBRANCH  10  11
ENDBRANCH   9  10
TORSDOF 4
ENDMDL
MODEL 3
REMARK VINA RESULT:     -15.3      2.061      4.302
REMARK  Name = 
REMARK  4 active torsions:
REMARK  status: ('A' for Active; 'I' for Inactive)
REMARK    1  A    between atoms: N_9  and  C_10
REMARK    2  A    between atoms: C_10  and  C_11
REMARK    3  A    between atoms: C_15  and  C_17
REMARK    4  A    between atoms: C_23  and  C_24
REMARK                            x       y       z     vdW  Elec       q    Type
REMARK                         _______ _______ _______ _____ _____    ______ ____
ROOT
ATOM      1  O   UNL     1      -2.923   0.633  24.990  0.00  0.00    -0.267 OA
ATOM      2  C   UNL     1      -3.493   0.098  24.725  0.00  0.00    +0.261 A 
ATOM      3  N   UNL     1      -3.280  -0.682  24.559  0.00  0.00    -0.299 N 
ATOM      4  C   UNL     1      -4.098  -0.680  24.387  0.00  0.00    +0.110 C 
ATOM      5  C   UNL     1      -4.211  -1.622  24.109  0.00  0.00    +0.039 C 
ATOM      6  C   UNL     1      -4.466  -2.353  23.858  0.00  0.00    +0.011 C 
ATOM      7  C   UNL     1      -3.865  -2.057  24.065  0.00  0.00    +0.054 C 
ATOM      8  C   UNL     1      -2.976  -2.248  24.201  0.00  0.00    +0.078 C 
ATOM      9  N   UNL     1      -2.725  -1.518  24.451  0.00  0.00    -0.269 NA
ATOM     19  C   UNL     1      -3.281  -1.812  24.254  0.00  0.00    +0.074 C 
ATOM     20  C   UNL     1      -3.849  -1.217  24.295  0.00  0.00    +0.041 A 
ATOM     21  C   UNL     1      -4.630  -0.972  24.196  0.00  0.00    +0.013 A 
ATOM     22  C   UNL     1      -4.843  -0.193  24.361  0.00  0.00    +0.006 A 
ATOM     23  C   UNL     1      -4.274   0.342  24.626  0.00  0.00    +0.062 A 
ENDROOT
BRANCH  23  24
ATOM     24  C   UNL     1      -4.486   1.122  24.792  0.00  0.00    +0.034 A 
ATOM     25  C   UNL     1      -4.188   1.796  24.420  0.00  0.00    +0.007 A 
ATOM     26  C   UNL     1      -4.552   2.455  24.757  0.00  0.00    +0.006 A 
ATOM     27  C   UNL     1      -5.075   2.189  25.337  0.00  0.00    +0.029 A 
ATOM     28  S   UNL     1      -5.035   1.365  25.359  0.00  0.00    -0.087 S 
ATOM     29  C   UNL     1      -5.520   2.731  25.770  0.00  0.00    +0.006 A 
ATOM     30  C   UNL     1      -5.442   3.540  25.624  0.00  0.00    +0.001 A 
ATOM     31  C   UNL     1      -4.920   3.806  25.045  0.00  0.00    +0.000 A 
ATOM     32  C   UNL     1      -4.474   3.263  24.611  0.00  0.00    +0.001 A 
ENDBRANCH  23  24
BRANCH   9  10
ATOM     10  C   UNL     1      -2.218  -0.925  24.718  0.00  0.00    +0.099 C 
BRANCH  10  11
ATOM     11  C   UNL     1      -1.404  -1.056  24.738  0.00  0.00    -0.005 A 
ATOM     12  C   UNL     1      -1.077  -1.538  25.322  0.00  0.00    -0.003 A 
ATOM     13  C   UNL     1      -0.263  -1.669  25.342  0.00  0.00    +0.000 A 
ATOM     14  C   UNL     1       0.225  -1.319  24.777  0.00  0.00    +0.010 A 
ATOM     15  C   UNL     1      -0.102  -0.836  24.192  0.00  0.00    +0.068 A 
ATOM     16  C   UNL     1      -0.916  -0.705  24.172  0.00  0.00    +0.007 A 
BRANCH  15  17
ATOM     17  C   UNL     1       0.387  -0.486  23.627  0.00  0.00    +0.100 C 
ATOM     18  N   UNL     1       0.874  -0.135  23.061  0.00  0.00    -0.191 NA
ENDBRANCH  15  17
ENDBRANCH  10  11
ENDBRANCH   9  10
TORSDOF 4
ENDMDL
MODEL 4
REMARK VINA RESULT:     -14.4      1.380      3.023
REMARK  Name = 
REMARK  4 active torsions:
REMARK  status: ('A' for Active; 'I' for Inactive)
REMARK    1  A    between atoms: N_9  and  C_10
REMARK    2  A    between atoms: C_10  and  C_11
REMARK    3  A    between atoms: C_15  and  C_17
REMARK    4  A    between atoms: C_23  and  C_24
REMARK                            x       y       z     vdW  Elec       q    Type
REMARK                         _______ _______ _______ _____ _____    ______ ____
ROOT
ATOM      1  O   UNL     1      -3.060   0.648  24.688  0.00  0.00    -0.267 OA
ATOM      2  C   UNL     1      -2.308   0.764  25.009  0.00  0.00    +0.261 A 
ATOM      3  N   UNL     1      -2.028   1.530  25.137  0.00  0.00    -0.299 N 
ATOM      4  C   UNL     1      -1.390   1.061  25.403  0.00  0.00    +0.110 C 
ATOM      5  C   UNL     1      -0.764   1.774  25.677  0.00  0.00    +0.039 C 
ATOM      6  C   UNL     1      -0.146   2.232  25.945  0.00  0.00    +0.011 C 
ATOM      7  C   UNL     1      -0.786   2.331  25.675  0.00  0.00    +0.054 C 
ATOM      8  C   UNL     1      -1.371   2.997  25.434  0.00  0.00    +0.078 C 
ATOM      9  N   UNL     1      -1.985   2.538  25.168  0.00  0.00    -0.269 NA
ATOM     19  C   UNL     1      -1.382   2.463  25.423  0.00  0.00    +0.074 C 
ATOM     20  C   UNL     1      -1.278   1.646  25.457  0.00  0.00    +0.041 A 
ATOM     21  C   UNL     1      -0.807   0.997  25.650  0.00  0.00    +0.013 A 
ATOM     22  C   UNL     1      -1.086   0.232  25.522  0.00  0.00    +0.006 A 
ATOM     23  C   UNL     1      -1.837   0.115  25.201  0.00  0.00    +0.062 A 
ENDROOT
BRANCH  23  24
ATOM     24  C   UNL     1      -2.117  -0.650  25.073  0.00  0.00    +0.034 A 
ATOM     25  C   UNL     1      -2.794  -0.982  25.408  0.00  0.00    +0.007 A 
ATOM     26  C   UNL     1      -2.864  -1.755  25.129  0.00  0.00    +0.006 A 
ATOM     27  C   UNL     1      -2.230  -1.902  24.622  0.00  0.00    +0.029 A 
ATOM     28  S   UNL     1      -1.768  -1.219  24.587  0.00  0.00    -0.087 S 
ATOM     29  C   UNL     1      -2.156  -2.638  24.258  0.00  0.00    +0.006 A 
ATOM     30  C   UNL     1      -2.715  -3.228  24.401  0.00  0.00    +0.001 A 
ATOM     31  C   UNL     1      -3.349  -3.081  24.907  0.00  0.00    +0.000 A 
ATOM     32  C   UNL     1      -3.423  -2.344  25.272  0.00  0.00    +0.001 A 
ENDBRANCH  23  24
BRANCH   9  10
ATOM     10  C   UNL     1      -2.720   2.338  24.853  0.00  0.00    +0.099 C 
BRANCH  10  11
ATOM     11  C   UNL     1      -3.272   2.928  24.685  0.00  0.00    -0.005 A 
ATOM     12  C   UNL     1      -3.159   3.427  24.038  0.00  0.00    -0.003 A 
ATOM     13  C   UNL     1      -3.710   4.017  23.870  0.00  0.00    +0.000 A 
ATOM     14  C   UNL     1      -4.374   4.109  24.350  0.00  0.00    +0.010 A 
ATOM     15  C   UNL     1      -4.487   3.611  24.998  0.00  0.00    +0.068 A 
ATOM     16  C   UNL     1      -3.936   3.020  25.166  0.00  0.00    +0.007 A 
BRANCH  15  17
ATOM     17  C   UNL     1      -5.152   3.703  25.478  0.00  0.00    +0.100 C 
ATOM     18  N   UNL     1      -5.818   3.796  25.957  0.00  0.00    -0.191 NA
ENDBRANCH  15  17
ENDBRANCH  10  11
ENDBRANCH   9  10
TORSDOF 4
ENDMDL
MODEL 5
REMARK VINA RESULT:     -14.0      2.421      5.542
REMARK  Name = 
REMARK  4 active torsions:
REMARK  status: ('A' for Active; 'I' for Inactive)
REMARK    1  A    between atoms: N_9  and  C_10
REMARK    2  A    between atoms: C_10  and  C_11
REMARK    3  A    between atoms: C_15  and  C_17
REMARK    4  A    between atoms: C_23  and  C_24
REMARK                            x       y       z     vdW  Elec       q    Type
REMARK                         _______ _______ _______ _____ _____    ______ ____
ROOT
ATOM      1  O   UNL     1      -2.081   1.448  25.098  0.00  0.00    -0.267 OA
ATOM      2  C   UNL     1      -1.355   1.274  24.746  0.00  0.00    +0.261 A 
ATOM      3  N   UNL     1      -1.157   0.491  24.575  0.00  0.00    -0.299 N 
ATOM      4  C   UNL     1      -0.484   0.907  24.307  0.00  0.00    +0.110 C 
ATOM      5  C   UNL     1       0.060   0.150  23.980  0.00  0.00    +0.039 C 
ATOM      6  C   UNL     1       0.620  -0.354  23.671  0.00  0.00    +0.011 C 
ATOM      7  C   UNL     1      -0.017  -0.402  23.960  0.00  0.00    +0.054 C 
ATOM      8  C   UNL     1      -0.658  -1.018  24.194  0.00  0.00    +0.078 C 
ATOM      9  N   UNL     1      -1.215  -0.514  24.501  0.00  0.00    -0.269 NA
ATOM     19  C   UNL     1      -0.616  -0.487  24.228  0.00  0.00    +0.074 C 
ATOM     20  C   UNL     1      -0.432   0.317  24.224  0.00  0.00    +0.041 A 
ATOM     21  C   UNL     1       0.095   0.925  24.042  0.00  0.00    +0.013 A 
ATOM     22  C   UNL     1      -0.103   1.707  24.212  0.00  0.00    +0.006 A 
ATOM     23  C   UNL     1      -0.829   1.882  24.564  0.00  0.00    +0.062 A 
ENDROOT
BRANCH  23  24
ATOM     24  C   UNL     1      -1.027   2.664  24.734  0.00  0.00    +0.034 A 
ATOM     25  C   UNL     1      -1.695   2.917  25.146  0.00  0.00    +0.007 A 
ATOM     26  C   UNL     1      -1.673   3.740  25.189  0.00  0.00    +0.006 A 
ATOM     27  C   UNL     1      -0.991   3.997  24.803  0.00  0.00    +0.029 A 
ATOM     28  S   UNL     1      -0.591   3.332  24.522  0.00  0.00    -0.087 S 
ATOM     29  C   UNL     1      -0.821   4.803  24.757  0.00  0.00    +0.006 A 
ATOM     30  C   UNL     1      -1.335   5.352  25.098  0.00  0.00    +0.001 A 
ATOM     31  C   UNL     1      -2.017   5.096  25.483  0.00  0.00    +0.000 A 
ATOM     32  C   UNL     1      -2.186   4.289  25.529  0.00  0.00    +0.001 A 
ENDBRANCH  23  24
BRANCH   9  10
ATOM     10  C   UNL     1      -1.916  -0.257  24.850  0.00  0.00    +0.099 C 
BRANCH  10  11
ATOM     11  C   UNL     1      -2.497  -0.805  25.060  0.00  0.00    -0.005 A 
ATOM     12  C   UNL     1      -2.580  -1.037  25.847  0.00  0.00    -0.003 A 
ATOM     13  C   UNL     1      -3.160  -1.585  26.057  0.00  0.00    +0.000 A 
ATOM     14  C   UNL     1      -3.657  -1.900  25.480  0.00  0.00    +0.010 A 
ATOM     15  C   UNL     1      -3.574  -1.668  24.692  0.00  0.00    +0.068 A 
ATOM     16  C   UNL     1      -2.994  -1.120  24.482  0.00  0.00    +0.007 A 
BRANCH  15  17
ATOM     17  C   UNL     1      -4.072  -1.984  24.115  0.00  0.00    +0.100 C 
ATOM     18  N   UNL     1      -4.569  -2.301  23.537  0.00  0.00    -0.191 NA
ENDBRANCH  15  17
ENDBRANCH  10  11
ENDBRANCH   9  10
TORSDOF 4
ENDMDL
MODEL 6
REMARK VINA RESULT:     -13.4      2.096      3.625
REMARK  Name = 
REMARK  4 active torsions:
REMARK  status: ('A' for Active; 'I' for Inactive)
REMARK    1  A    between atoms: N_9  and  C_10
REMARK    2  A    between atoms: C_10  and  C_11
REMARK    3  A    between atoms: C_15  and  C_17
REMARK    4  A    between atoms: C_23  and  C_24
REMARK                            x       y       z     vdW  Elec       q    Type
REMARK                         _______ _______ _______ _____ _____    ______ ____
ROOT
ATOM      1  O   UNL     1      -2.544   1.542  25.036  0.00  0.00    -0.267 OA
ATOM      2  C   UNL     1      -1.931   2.093  25.080  0.00  0.00    +0.261 A 
ATOM      3  N   UNL     1      -2.103   2.898  25.143  0.00  0.00    -0.299 N 
ATOM      4  C   UNL     1      -1.268   2.895  25.143  0.00  0.00    +0.110 C 
ATOM      5  C   UNL     1      -1.099   3.865  25.220  0.00  0.00    +0.039 C 
ATOM      6  C   UNL     1      -0.796   4.619  25.279  0.00  0.00    +0.011 C 
ATOM      7  C   UNL     1      -1.428   4.314  25.255  0.00  0.00    +0.054 C 
ATOM      8  C   UNL     1      -2.325   4.513  25.269  0.00  0.00    +0.078 C 
ATOM      9  N   UNL     1      -2.623   3.760  25.210  0.00  0.00    -0.269 NA
ATOM     19  C   UNL     1      -2.038   4.063  25.234  0.00  0.00    +0.074 C 
ATOM     20  C   UNL     1      -1.491   3.448  25.186  0.00  0.00    +0.041 A 
ATOM     21  C   UNL     1      -0.707   3.195  25.167  0.00  0.00    +0.013 A 
ATOM     22  C   UNL     1      -0.534   2.391  25.104  0.00  0.00    +0.006 A 
ATOM     23  C   UNL     1      -1.146   1.840  25.060  0.00  0.00    +0.062 A 
ENDROOT
BRANCH  23  24
ATOM     24  C   UNL     1      -0.974   1.035  24.997  0.00  0.00    +0.034 A 
ATOM     25  C   UNL     1      -1.098   0.466  25.580  0.00  0.00    +0.007 A 
ATOM     26  C   UNL     1      -0.848  -0.262  25.283  0.00  0.00    +0.006 A 
ATOM     27  C   UNL     1      -0.568  -0.142  24.516  0.00  0.00    +0.029 A 
ATOM     28  S   UNL     1      -0.646   0.660  24.340  0.00  0.00    -0.087 S 
ATOM     29  C   UNL     1      -0.280  -0.778  24.079  0.00  0.00    +0.006 A 
ATOM     30  C   UNL     1      -0.270  -1.536  24.408  0.00  0.00    +0.001 A 
ATOM     31  C   UNL     1      -0.549  -1.656  25.174  0.00  0.00    +0.000 A 
ATOM     32  C   UNL     1      -0.838  -1.019  25.612  0.00  0.00    +0.001 A 
ENDBRANCH  23  24
BRANCH   9  10
ATOM     10  C   UNL     1      -3.175   3.149  25.161  0.00  0.00    +0.099 C 
BRANCH  10  11
ATOM     11  C   UNL     1      -3.981   3.317  25.209  0.00  0.00    -0.005 A 
ATOM     12  C   UNL     1      -4.299   3.941  24.773  0.00  0.00    -0.003 A 
ATOM     13  C   UNL     1      -5.106   4.109  24.820  0.00  0.00    +0.000 A 
ATOM     14  C   UNL     1      -5.594   3.653  25.303  0.00  0.00    +0.010 A 
ATOM     15  C   UNL     1      -5.276   3.029  25.740  0.00  0.00    +0.068 A 
ATOM     16  C   UNL     1      -4.470   2.861  25.693  0.00  0.00    +0.007 A 
BRANCH  15  17
ATOM     17  C   UNL     1      -5.765   2.573  26.223  0.00  0.00    +0.100 C 
ATOM     18  N   UNL     1      -6.255   2.116  26.706  0.00  0.00    -0.191 NA
ENDBRANCH  15  17
ENDBRANCH  10  11
ENDBRANCH   9  10
TORSDOF 4
ENDMDL
