MODEL 1
REMARK VINA RESULT:     -11.5      0.000      0.000
REMARK  Name = 
REMARK  3 active torsions:
REMARK  status: ('A' for Active; 'I' for Inactive)
REMARK    1  A    between atoms: C_3  and  N_4
REMARK    2  A    between atoms: N_7  and  C_8
REMARK    3  A    between atoms: C_19  and  N_20
REMARK                            x       y       z     vdW  Elec       q    Type
REMARK                         _______ _______ _______ _____ _____    ______ ____
ROOT
ATOM      1  O   UNL     1      -2.287   2.047  25.615  0.00  0.00    -0.220 OA
ATOM      2  C   UNL     1      -2.985   2.038  25.174  0.00  0.00    +0.194 C 
ATOM      3  C   UNL     1      -3.718   1.780  24.885  0.00  0.00    +0.158 C 
ATOM     14  C   UNL     1      -3.886   2.475  24.292  0.00  0.00    +0.170 C 
ATOM     15  C   UNL     1      -3.337   3.025  24.261  0.00  0.00    +0.176 C 
ATOM     16  O   UNL     1      -3.133   3.650  23.955  0.00  0.00    -0.327 OA
ATOM     17  C   UNL     1      -3.647   2.951  24.114  0.00  0.00    +0.253 C 
ATOM     18  O   UNL     1      -4.376   2.696  23.824  0.00  0.00    -0.327 OA
ATOM     19  C   UNL     1      -3.457   2.231  24.737  0.00  0.00    +0.147 C 
ENDROOT
BRANCH  19  20
ATOM     20  N   UNL     1      -2.842   2.781  24.748  0.00  0.00    -0.263 NA
ATOM     21  C   UNL     1      -2.203   2.697  24.232  0.00  0.00    +0.105 C 
ATOM     22  C   UNL     1      -1.588   3.246  24.242  0.00  0.00    +0.159 C 
ATOM     23  O   UNL     1      -1.611   3.880  24.770  0.00  0.00    -0.351 OA
ATOM     24  C   UNL     1      -2.248   3.964  25.287  0.00  0.00    +0.159 C 
ATOM     25  C   UNL     1      -2.864   3.415  25.276  0.00  0.00    +0.105 C 
ENDBRANCH  19  20
BRANCH   3   4
ATOM      4  N   UNL     1      -4.163   1.108  25.068  0.00  0.00    -0.184 NA
ATOM      5  C   UNL     1      -3.897   0.362  24.837  0.00  0.00    +0.339 C 
ATOM      6  O   UNL     1      -3.187   0.287  24.422  0.00  0.00    -0.249 OA
ATOM      7  N   UNL     1      -4.341  -0.308  25.019  0.00  0.00    -0.189 NA
BRANCH   7   8
ATOM      8  C   UNL     1      -4.076  -1.054  24.788  0.00  0.00    +0.097 C 
ATOM      9  C   UNL     1      -4.305  -1.366  24.060  0.00  0.00    +0.022 C 
ATOM     10  C   UNL     1      -4.040  -2.112  23.829  0.00  0.00    +0.002 C 
ATOM     11  C   UNL     1      -3.544  -2.547  24.326  0.00  0.00    +0.000 C 
ATOM     12  C   UNL     1      -3.315  -2.234  25.054  0.00  0.00    +0.002 C 
ATOM     13  C   UNL     1      -3.580  -1.489  25.285  0.00  0.00    +0.022 C 
ENDBRANCH   7   8
ENDBRANCH   3   4
TORSDOF 3
ENDMDL
MODEL 2
REMARK VINA RESULT:     -10.6      1.465      2.160
REMARK  Name = 
REMARK  3 active torsions:
REMARK  status: ('A' for Active; 'I' for Inactive)
REMARK    1  A    between atoms: C_3  and  N_4
REMARK    2  A    between atoms: N_7  and  C_8
REMARK    3  A    between atoms: C_19  and  N_20
REMARK                            x       y       z     vdW  Elec       q    Type
REMARK                         _______ _______ _______ _____ _____    ______ ____
ROOT
ATOM      1  O   UNL     1      -2.185   3.008  24.175  0.00  0.00    -0.220 OA
ATOM      2  C   UNL     1      -1.718   2.490  24.617  0.00  0.00    +0.194 C 
ATOM      3  C   UNL     1      -1.353   1.786  24.857  0.00  0.00    +0.158 C 
ATOM     14  C   UNL     1      -0.891   2.112  25.594  0.00  0.00    +0.170 C 
ATOM     15  C   UNL     1      -0.987   2.871  25.736  0.00  0.00    +0.176 C 
ATOM     16  O   UNL     1      -0.812   3.426  26.170  0.00  0.00    -0.327 OA
ATOM     17  C   UNL     1      -0.815   2.596  25.869  0.00  0.00    +0.253 C 
ATOM     18  O   UNL     1      -0.450   1.896  26.110  0.00  0.00    -0.327 OA
ATOM     19  C   UNL     1      -1.304   2.269  25.096  0.00  0.00    +0.147 C 
ENDROOT
BRANCH  19  20
ATOM     20  N   UNL     1      -1.444   3.076  25.196  0.00  0.00    -0.263 NA
ATOM     21  C   UNL     1      -2.083   3.331  25.651  0.00  0.00    +0.105 C 
ATOM     22  C   UNL     1      -2.224   4.138  25.750  0.00  0.00    +0.159 C 
ATOM     23  O   UNL     1      -1.725   4.690  25.395  0.00  0.00    -0.351 OA
ATOM     24  C   UNL     1      -1.086   4.436  24.940  0.00  0.00    +0.159 C 
ATOM     25  C   UNL     1      -0.945   3.629  24.840  0.00  0.00    +0.105 C 
ENDBRANCH  19  20
BRANCH   3   4
ATOM      4  N   UNL     1      -1.388   1.025  24.537  0.00  0.00    -0.184 NA
ATOM      5  C   UNL     1      -2.049   0.551  24.675  0.00  0.00    +0.339 C 
ATOM      6  O   UNL     1      -2.675   0.837  25.132  0.00  0.00    -0.249 OA
ATOM      7  N   UNL     1      -2.085  -0.209  24.356  0.00  0.00    -0.189 NA
BRANCH   7   8
ATOM      8  C   UNL     1      -2.746  -0.683  24.494  0.00  0.00    +0.097 C 
ATOM      9  C   UNL     1      -3.399  -0.636  23.993  0.00  0.00    +0.022 C 
ATOM     10  C   UNL     1      -4.060  -1.110  24.130  0.00  0.00    +0.002 C 
ATOM     11  C   UNL     1      -4.067  -1.633  24.769  0.00  0.00    +0.000 C 
ATOM     12  C   UNL     1      -3.413  -1.680  25.270  0.00  0.00    +0.002 C 
ATOM     13  C   UNL     1      -2.753  -1.206  25.133  0.00  0.00    +0.022 C 
ENDBRANCH   7   8
ENDBRANCH   3   4
TORSDOF 3
ENDMDL
MODEL 3
REMARK VINA RESULT:     -10.6      1.699      4.136
REMARK  Name = 
REMARK  3 active torsions:
REMARK  status: ('A' for Active; 'I' for Inactive)
REMARK    1  A    between atoms: C_3  and  N_4
REMARK    2  A    between atoms: N_7  and  C_8
REMARK    3  A    between atoms: C_19  and  N_20
REMARK                            x       y       z     vdW  Elec       q    Type
REMARK                         _______ _______ _______ _____ _____    ______ ____
ROOT
ATOM      1  O   UNL     1      -1.799   0.051  24.251  0.00  0.00    -0.220 OA
ATOM      2  C   UNL     1      -2.545  -0.194  24.503  0.00  0.00    +0.194 C 
ATOM      3  C   UNL     1      -3.368  -0.203  24.600  0.00  0.00    +0.158 C 
ATOM     14  C   UNL     1      -3.438  -0.961  25.133  0.00  0.00    +0.170 C 
ATOM     15  C   UNL     1      -2.764  -1.311  25.301  0.00  0.00    +0.176 C 
ATOM     16  O   UNL     1      -2.446  -1.863  25.649  0.00  0.00    -0.327 OA
ATOM     17  C   UNL     1      -3.106  -1.350  25.366  0.00  0.00    +0.253 C 
ATOM     18  O   UNL     1      -3.925  -1.361  25.465  0.00  0.00    -0.327 OA
ATOM     19  C   UNL     1      -3.018  -0.560  24.809  0.00  0.00    +0.147 C 
ENDROOT
BRANCH  19  20
ATOM     20  N   UNL     1      -2.273  -0.886  24.953  0.00  0.00    -0.263 NA
ATOM     21  C   UNL     1      -1.972  -1.466  24.448  0.00  0.00    +0.105 C 
ATOM     22  C   UNL     1      -1.228  -1.792  24.592  0.00  0.00    +0.159 C 
ATOM     23  O   UNL     1      -0.785  -1.538  25.240  0.00  0.00    -0.351 OA
ATOM     24  C   UNL     1      -1.086  -0.958  25.744  0.00  0.00    +0.159 C 
ATOM     25  C   UNL     1      -1.830  -0.632  25.600  0.00  0.00    +0.105 C 
ENDBRANCH  19  20
BRANCH   3   4
ATOM      4  N   UNL     1      -3.950   0.307  24.311  0.00  0.00    -0.184 NA
ATOM      5  C   UNL     1      -4.072   1.039  24.671  0.00  0.00    +0.339 C 
ATOM      6  O   UNL     1      -3.613   1.262  25.321  0.00  0.00    -0.249 OA
ATOM      7  N   UNL     1      -4.653   1.548  24.383  0.00  0.00    -0.189 NA
BRANCH   7   8
ATOM      8  C   UNL     1      -4.775   2.281  24.743  0.00  0.00    +0.097 C 
ATOM      9  C   UNL     1      -4.323   2.932  24.516  0.00  0.00    +0.022 C 
ATOM     10  C   UNL     1      -4.445   3.664  24.877  0.00  0.00    +0.002 C 
ATOM     11  C   UNL     1      -5.020   3.745  25.463  0.00  0.00    +0.000 C 
ATOM     12  C   UNL     1      -5.472   3.093  25.689  0.00  0.00    +0.002 C 
ATOM     13  C   UNL     1      -5.350   2.362  25.330  0.00  0.00    +0.022 C 
ENDBRANCH   7   8
ENDBRANCH   3   4
TORSDOF 3
ENDMDL
