MODEL 1
REMARK VINA RESULT:     -11.1      0.000      0.000
REMARK  Name = 
REMARK  7 active torsions:
REMARK  status: ('A' for Active; 'I' for Inactive)
REMARK    1  A    between atoms: C_2  and  C_4
REMARK    2  A    between atoms: C_4  and  C_5
REMARK    3  A    between atoms: C_7  and  C_21
REMARK    4  A    between atoms: N_11  and  C_12
REMARK    5  A    between atoms: C_12  and  C_13
REMARK    6  A    between atoms: N_23  and  C_24
REMARK    7  A    between atoms: C_24  and  C_25
REMARK                            x       y       z     vdW  Elec       q    Type
REMARK                         _______ _______ _______ _____ _____    ______ ____
ROOT
ATOM      5  C   UNL     1      -4.279   2.250  24.873  0.00  0.00    +0.095 C 
ATOM      6  N   UNL     1      -4.233   1.506  24.521  0.00  0.00    -0.207 NA
ATOM      7  C   UNL     1      -3.565   1.040  24.386  0.00  0.00    +0.155 C 
ATOM      8  C   UNL     1      -2.778   1.205  24.569  0.00  0.00    +0.055 C 
ATOM      9  C   UNL     1      -2.465   1.876  24.934  0.00  0.00    -0.002 A 
ATOM     10  C   UNL     1      -1.660   1.975  25.088  0.00  0.00    +0.072 A 
ATOM     11  N   UNL     1      -1.559   2.708  25.454  0.00  0.00    -0.322 N 
ATOM     15  C   UNL     1      -2.301   3.062  25.526  0.00  0.00    +0.060 A 
ATOM     16  C   UNL     1      -2.861   2.547  25.204  0.00  0.00    +0.011 A 
ATOM     17  C   UNL     1      -3.669   2.713  25.177  0.00  0.00    -0.005 A 
ATOM     18  C   UNL     1      -3.897   3.480  25.516  0.00  0.00    -0.003 A 
ATOM     19  C   UNL     1      -3.338   3.994  25.837  0.00  0.00    +0.001 A 
ATOM     20  C   UNL     1      -2.540   3.785  25.842  0.00  0.00    +0.017 A 
ENDROOT
BRANCH   7  21
ATOM     21  C   UNL     1      -3.703   0.314  24.018  0.00  0.00    +0.258 C 
ATOM     22  O   UNL     1      -3.824   0.282  23.203  0.00  0.00    -0.272 OA
ATOM     23  N   UNL     1      -3.719  -0.378  24.467  0.00  0.00    -0.204 NA
BRANCH  23  24
ATOM     24  C   UNL     1      -3.857  -1.103  24.099  0.00  0.00    +0.115 C 
BRANCH  24  25
ATOM     25  C   UNL     1      -3.714  -1.806  24.508  0.00  0.00    +0.022 C 
ATOM     26  C   UNL     1      -3.588  -2.622  24.505  0.00  0.00    +0.002 C 
ATOM     27  C   UNL     1      -3.592  -2.208  25.218  0.00  0.00    +0.002 C 
ENDBRANCH  24  25
ENDBRANCH  23  24
ENDBRANCH   7  21
BRANCH   5   4
ATOM      4  C   UNL     1      -5.036   2.573  24.928  0.00  0.00    +0.022 C 
BRANCH   4   2
ATOM      1  C   UNL     1      -6.221   1.849  24.591  0.00  0.00    +0.000 C 
ATOM      2  C   UNL     1      -5.672   2.098  25.154  0.00  0.00    +0.002 C 
ATOM      3  C   UNL     1      -5.758   1.872  25.944  0.00  0.00    +0.000 C 
ENDBRANCH   4   2
ENDBRANCH   5   4
BRANCH  11  12
ATOM     12  C   UNL     1      -0.843   3.031  25.704  0.00  0.00    +0.132 C 
BRANCH  12  13
ATOM     13  C   UNL     1      -0.177   2.550  25.780  0.00  0.00    -0.002 C 
ATOM     14  C   UNL     1       0.430   2.766  26.295  0.00  0.00    -0.003 C 
ENDBRANCH  12  13
ENDBRANCH  11  12
TORSDOF 7
ENDMDL
MODEL 2
REMARK VINA RESULT:     -10.8      1.404      4.481
REMARK  Name = 
REMARK  7 active torsions:
REMARK  status: ('A' for Active; 'I' for Inactive)
REMARK    1  A    between atoms: C_2  and  C_4
REMARK    2  A    between atoms: C_4  and  C_5
REMARK    3  A    between atoms: C_7  and  C_21
REMARK    4  A    between atoms: N_11  and  C_12
REMARK    5  A    between atoms: C_12  and  C_13
REMARK    6  A    between atoms: N_23  and  C_24
REMARK    7  A    between atoms: C_24  and  C_25
REMARK                            x       y       z     vdW  Elec       q    Type
REMARK                         _______ _______ _______ _____ _____    ______ ____
ROOT
ATOM      5  C   UNL     1      -1.401   1.166  24.697  0.00  0.00    +0.095 C 
ATOM      6  N   UNL     1      -2.031   1.668  24.517  0.00  0.00    -0.207 NA
ATOM      7  C   UNL     1      -2.815   1.471  24.353  0.00  0.00    +0.155 C 
ATOM      8  C   UNL     1      -3.163   0.723  24.328  0.00  0.00    +0.055 C 
ATOM      9  C   UNL     1      -2.812  -0.012  24.460  0.00  0.00    -0.002 A 
ATOM     10  C   UNL     1      -3.223  -0.726  24.418  0.00  0.00    +0.072 A 
ATOM     11  N   UNL     1      -2.693  -1.336  24.583  0.00  0.00    -0.322 N 
ATOM     15  C   UNL     1      -1.953  -0.999  24.727  0.00  0.00    +0.060 A 
ATOM     16  C   UNL     1      -2.027  -0.181  24.651  0.00  0.00    +0.011 A 
ATOM     17  C   UNL     1      -1.399   0.345  24.756  0.00  0.00    -0.005 A 
ATOM     18  C   UNL     1      -0.640  -0.027  24.956  0.00  0.00    -0.003 A 
ATOM     19  C   UNL     1      -0.566  -0.845  25.032  0.00  0.00    +0.001 A 
ATOM     20  C   UNL     1      -1.223  -1.331  24.917  0.00  0.00    +0.017 A 
ENDROOT
BRANCH   7  21
ATOM     21  C   UNL     1      -3.318   2.105  24.193  0.00  0.00    +0.258 C 
ATOM     22  O   UNL     1      -3.300   2.468  23.453  0.00  0.00    -0.272 OA
ATOM     23  N   UNL     1      -3.839   2.375  24.774  0.00  0.00    -0.204 NA
BRANCH  23  24
ATOM     24  C   UNL     1      -4.341   3.009  24.614  0.00  0.00    +0.115 C 
BRANCH  24  25
ATOM     25  C   UNL     1      -4.887   3.256  25.181  0.00  0.00    +0.022 C 
ATOM     26  C   UNL     1      -5.260   3.863  25.598  0.00  0.00    +0.002 C 
ATOM     27  C   UNL     1      -5.458   3.078  25.748  0.00  0.00    +0.002 C 
ENDBRANCH  24  25
ENDBRANCH  23  24
ENDBRANCH   7  21
BRANCH   5   4
ATOM      4  C   UNL     1      -0.678   1.537  24.835  0.00  0.00    +0.022 C 
BRANCH   4   2
ATOM      1  C   UNL     1      -0.781   2.406  25.965  0.00  0.00    +0.000 C 
ATOM      2  C   UNL     1      -0.658   2.298  25.157  0.00  0.00    +0.002 C 
ATOM      3  C   UNL     1      -0.516   2.948  24.669  0.00  0.00    +0.000 C 
ENDBRANCH   4   2
ENDBRANCH   5   4
BRANCH  11  12
ATOM     12  C   UNL     1      -2.869  -2.142  24.601  0.00  0.00    +0.132 C 
BRANCH  12  13
ATOM     13  C   UNL     1      -3.620  -2.405  24.382  0.00  0.00    -0.002 C 
ATOM     14  C   UNL     1      -3.778  -3.214  24.346  0.00  0.00    -0.003 C 
ENDBRANCH  12  13
ENDBRANCH  11  12
TORSDOF 7
ENDMDL
MODEL 3
REMARK VINA RESULT:     -10.7      1.556      3.830
REMARK  Name = 
REMARK  7 active torsions:
REMARK  status: ('A' for Active; 'I' for Inactive)
REMARK    1  A    between atoms: C_2  and  C_4
REMARK    2  A    between atoms: C_4  and  C_5
REMARK    3  A    between atoms: C_7  and  C_21
REMARK    4  A    between atoms: N_11  and  C_12
REMARK    5  A    between atoms: C_12  and  C_13
REMARK    6  A    between atoms: N_23  and  C_24
REMARK    7  A    between atoms: C_24  and  C_25
REMARK                            x       y       z     vdW  Elec       q    Type
REMARK                         _______ _______ _______ _____ _____    ______ ____
ROOT
ATOM      5  C   UNL     1      -4.130   0.904  24.825  0.00  0.00    +0.095 C 
ATOM      6  N   UNL     1      -3.778   1.605  24.570  0.00  0.00    -0.207 NA
ATOM      7  C   UNL     1      -2.984   1.750  24.398  0.00  0.00    +0.155 C 
ATOM      8  C   UNL     1      -2.346   1.229  24.439  0.00  0.00    +0.055 C 
ATOM      9  C   UNL     1      -2.344   0.434  24.662  0.00  0.00    -0.002 A 
ATOM     10  C   UNL     1      -1.664  -0.031  24.680  0.00  0.00    +0.072 A 
ATOM     11  N   UNL     1      -1.878  -0.788  24.928  0.00  0.00    -0.322 N 
ATOM     15  C   UNL     1      -2.692  -0.791  25.064  0.00  0.00    +0.060 A 
ATOM     16  C   UNL     1      -2.980  -0.035  24.899  0.00  0.00    +0.011 A 
ATOM     17  C   UNL     1      -3.775   0.175  24.971  0.00  0.00    -0.005 A 
ATOM     18  C   UNL     1      -4.300  -0.464  25.238  0.00  0.00    -0.003 A 
ATOM     19  C   UNL     1      -4.013  -1.220  25.402  0.00  0.00    +0.001 A 
ATOM     20  C   UNL     1      -3.208  -1.383  25.315  0.00  0.00    +0.017 A 
ENDROOT
BRANCH   7  21
ATOM     21  C   UNL     1      -2.805   2.517  24.153  0.00  0.00    +0.258 C 
ATOM     22  O   UNL     1      -2.938   2.741  23.370  0.00  0.00    -0.272 OA
ATOM     23  N   UNL     1      -2.492   3.059  24.691  0.00  0.00    -0.204 NA
BRANCH  23  24
ATOM     24  C   UNL     1      -2.313   3.826  24.446  0.00  0.00    +0.115 C 
BRANCH  24  25
ATOM     25  C   UNL     1      -1.979   4.361  24.978  0.00  0.00    +0.022 C 
ATOM     26  C   UNL     1      -1.434   4.958  25.144  0.00  0.00    +0.002 C 
ATOM     27  C   UNL     1      -1.946   4.692  25.733  0.00  0.00    +0.002 C 
ENDBRANCH  24  25
ENDBRANCH  23  24
ENDBRANCH   7  21
BRANCH   5   4
ATOM      4  C   UNL     1      -4.945   0.938  24.950  0.00  0.00    +0.022 C 
BRANCH   4   2
ATOM      1  C   UNL     1      -5.264   1.946  25.912  0.00  0.00    +0.000 C 
ATOM      2  C   UNL     1      -5.303   1.657  25.140  0.00  0.00    +0.002 C 
ATOM      3  C   UNL     1      -5.700   2.086  24.558  0.00  0.00    +0.000 C 
ENDBRANCH   4   2
ENDBRANCH   5   4
BRANCH  11  12
ATOM     12  C   UNL     1      -1.370  -1.430  25.025  0.00  0.00    +0.132 C 
BRANCH  12  13
ATOM     13  C   UNL     1      -0.554  -1.310  25.057  0.00  0.00    -0.002 C 
ATOM     14  C   UNL     1      -0.049  -1.947  25.196  0.00  0.00    -0.003 C 
ENDBRANCH  12  13
ENDBRANCH  11  12
TORSDOF 7
ENDMDL
MODEL 4
REMARK VINA RESULT:     -10.5      1.930      2.966
REMARK  Name = 
REMARK  7 active torsions:
REMARK  status: ('A' for Active; 'I' for Inactive)
REMARK    1  A    between atoms: C_2  and  C_4
REMARK    2  A    between atoms: C_4  and  C_5
REMARK    3  A    between atoms: C_7  and  C_21
REMARK    4  A    between atoms: N_11  and  C_12
REMARK    5  A    between atoms: C_12  and  C_13
REMARK    6  A    between atoms: N_23  and  C_24
REMARK    7  A    between atoms: C_24  and  C_25
REMARK                            x       y       z     vdW  Elec       q    Type
REMARK                         _______ _______ _______ _____ _____    ______ ____
ROOT
ATOM      5  C   UNL     1      -3.220   0.652  24.522  0.00  0.00    +0.095 C 
ATOM      6  N   UNL     1      -2.476   0.296  24.527  0.00  0.00    -0.207 NA
ATOM      7  C   UNL     1      -1.740   0.646  24.654  0.00  0.00    +0.155 C 
ATOM      8  C   UNL     1      -1.566   1.438  24.806  0.00  0.00    +0.055 C 
ATOM      9  C   UNL     1      -2.086   2.076  24.870  0.00  0.00    -0.002 A 
ATOM     10  C   UNL     1      -1.842   2.848  25.025  0.00  0.00    +0.072 A 
ATOM     11  N   UNL     1      -2.512   3.329  25.048  0.00  0.00    -0.322 N 
ATOM     15  C   UNL     1      -3.171   2.853  24.907  0.00  0.00    +0.060 A 
ATOM     16  C   UNL     1      -2.908   2.078  24.796  0.00  0.00    +0.011 A 
ATOM     17  C   UNL     1      -3.413   1.444  24.641  0.00  0.00    -0.005 A 
ATOM     18  C   UNL     1      -4.256   1.648  24.601  0.00  0.00    -0.003 A 
ATOM     19  C   UNL     1      -4.520   2.422  24.711  0.00  0.00    +0.001 A 
ATOM     20  C   UNL     1      -3.977   3.024  24.864  0.00  0.00    +0.017 A 
ENDROOT
BRANCH   7  21
ATOM     21  C   UNL     1      -1.091   0.137  24.624  0.00  0.00    +0.258 C 
ATOM     22  O   UNL     1      -0.923  -0.354  25.265  0.00  0.00    -0.272 OA
ATOM     23  N   UNL     1      -0.611   0.119  23.952  0.00  0.00    -0.204 NA
BRANCH  23  24
ATOM     24  C   UNL     1       0.037  -0.390  23.923  0.00  0.00    +0.115 C 
BRANCH  24  25
ATOM     25  C   UNL     1       0.605  -0.299  23.331  0.00  0.00    +0.022 C 
ATOM     26  C   UNL     1       1.396  -0.243  23.102  0.00  0.00    +0.002 C 
ATOM     27  C   UNL     1       0.799  -0.199  22.536  0.00  0.00    +0.002 C 
ENDBRANCH  24  25
ENDBRANCH  23  24
ENDBRANCH   7  21
BRANCH   5   4
ATOM      4  C   UNL     1      -3.856   0.146  24.377  0.00  0.00    +0.022 C 
BRANCH   4   2
ATOM      1  C   UNL     1      -3.867  -0.819  25.430  0.00  0.00    +0.000 C 
ATOM      2  C   UNL     1      -3.823  -0.640  24.627  0.00  0.00    +0.002 C 
ATOM      3  C   UNL     1      -3.747  -1.246  24.071  0.00  0.00    +0.000 C 
ENDBRANCH   4   2
ENDBRANCH   5   4
BRANCH  11  12
ATOM     12  C   UNL     1      -2.523   4.141  25.188  0.00  0.00    +0.132 C 
BRANCH  12  13
ATOM     13  C   UNL     1      -1.815   4.551  25.294  0.00  0.00    -0.002 C 
ATOM     14  C   UNL     1      -1.806   5.375  25.252  0.00  0.00    -0.003 C 
ENDBRANCH  12  13
ENDBRANCH  11  12
TORSDOF 7
ENDMDL
MODEL 5
REMARK VINA RESULT:     -10.5      1.092      2.962
REMARK  Name = 
REMARK  7 active torsions:
REMARK  status: ('A' for Active; 'I' for Inactive)
REMARK    1  A    between atoms: C_2  and  C_4
REMARK    2  A    between atoms: C_4  and  C_5
REMARK    3  A    between atoms: C_7  and  C_21
REMARK    4  A    between atoms: N_11  and  C_12
REMARK    5  A    between atoms: C_12  and  C_13
REMARK    6  A    between atoms: N_23  and  C_24
REMARK    7  A    between atoms: C_24  and  C_25
REMARK                            x       y       z     vdW  Elec       q    Type
REMARK                         _______ _______ _______ _____ _____    ______ ____
ROOT
ATOM      5  C   UNL     1      -2.009   1.565  24.542  0.00  0.00    +0.095 C 
ATOM      6  N   UNL     1      -2.402   0.902  24.246  0.00  0.00    -0.207 NA
ATOM      7  C   UNL     1      -3.214   0.774  24.177  0.00  0.00    +0.155 C 
ATOM      8  C   UNL     1      -3.834   1.276  24.388  0.00  0.00    +0.055 C 
ATOM      9  C   UNL     1      -3.795   2.030  24.719  0.00  0.00    -0.002 A 
ATOM     10  C   UNL     1      -4.461   2.480  24.906  0.00  0.00    +0.072 A 
ATOM     11  N   UNL     1      -4.204   3.197  25.224  0.00  0.00    -0.322 N 
ATOM     15  C   UNL     1      -3.379   3.191  25.233  0.00  0.00    +0.060 A 
ATOM     16  C   UNL     1      -3.126   2.469  24.921  0.00  0.00    +0.011 A 
ATOM     17  C   UNL     1      -2.331   2.261  24.842  0.00  0.00    -0.005 A 
ATOM     18  C   UNL     1      -1.766   2.863  25.113  0.00  0.00    -0.003 A 
ATOM     19  C   UNL     1      -2.018   3.584  25.425  0.00  0.00    +0.001 A 
ATOM     20  C   UNL     1      -2.825   3.747  25.485  0.00  0.00    +0.017 A 
ENDROOT
BRANCH   7  21
ATOM     21  C   UNL     1      -3.436   0.046  23.856  0.00  0.00    +0.258 C 
ATOM     22  O   UNL     1      -3.555  -0.026  23.043  0.00  0.00    -0.272 OA
ATOM     23  N   UNL     1      -3.537  -0.608  24.348  0.00  0.00    -0.204 NA
BRANCH  23  24
ATOM     24  C   UNL     1      -3.758  -1.335  24.027  0.00  0.00    +0.115 C 
BRANCH  24  25
ATOM     25  C   UNL     1      -3.652  -2.028  24.463  0.00  0.00    +0.022 C 
ATOM     26  C   UNL     1      -3.667  -2.851  24.511  0.00  0.00    +0.002 C 
ATOM     27  C   UNL     1      -3.453  -2.404  25.169  0.00  0.00    +0.002 C 
ENDBRANCH  24  25
ENDBRANCH  23  24
ENDBRANCH   7  21
BRANCH   5   4
ATOM      4  C   UNL     1      -1.186   1.524  24.536  0.00  0.00    +0.022 C 
BRANCH   4   2
ATOM      1  C   UNL     1      -0.789   0.460  25.404  0.00  0.00    +0.000 C 
ATOM      2  C   UNL     1      -0.808   0.799  24.652  0.00  0.00    +0.002 C 
ATOM      3  C   UNL     1      -0.449   0.414  24.016  0.00  0.00    +0.000 C 
ENDBRANCH   4   2
ENDBRANCH   5   4
BRANCH  11  12
ATOM     12  C   UNL     1      -4.686   3.812  25.486  0.00  0.00    +0.132 C 
BRANCH  12  13
ATOM     13  C   UNL     1      -5.506   3.718  25.498  0.00  0.00    -0.002 C 
ATOM     14  C   UNL     1      -5.990   4.352  25.708  0.00  0.00    -0.003 C 
ENDBRANCH  12  13
ENDBRANCH  11  12
TORSDOF 7
ENDMDL
MODEL 6
REMARK VINA RESULT:     -10.4      1.878      3.316
REMARK  Name = 
REMARK  7 active torsions:
REMARK  status: ('A' for Active; 'I' for Inactive)
REMARK    1  A    between atoms: C_2  and  C_4
REMARK    2  A    between atoms: C_4  and  C_5
REMARK    3  A    between atoms: C_7  and  C_21
REMARK    4  A    between atoms: N_11  and  C_12
REMARK    5  A    between atoms: C_12  and  C_13
REMARK    6  A    between atoms: N_23  and  C_24
REMARK    7  A    between atoms: C_24  and  C_25
REMARK                            x       y       z     vdW  Elec       q    Type
REMARK                         _______ _______ _______ _____ _____    ______ ____
ROOT
ATOM      5  C   UNL     1      -1.857   3.073  25.382  0.00  0.00    +0.095 C 
ATOM      6  N   UNL     1      -2.584   2.958  25.008  0.00  0.00    -0.207 NA
ATOM      7  C   UNL     1      -2.785   2.399  24.435  0.00  0.00    +0.155 C 
ATOM      8  C   UNL     1      -2.310   1.816  24.096  0.00  0.00    +0.055 C 
ATOM      9  C   UNL     1      -1.516   1.648  24.245  0.00  0.00    -0.002 A 
ATOM     10  C   UNL     1      -1.099   1.046  23.866  0.00  0.00    +0.072 A 
ATOM     11  N   UNL     1      -0.327   1.047  24.157  0.00  0.00    -0.322 N 
ATOM     15  C   UNL     1      -0.266   1.651  24.716  0.00  0.00    +0.060 A 
ATOM     16  C   UNL     1      -1.001   2.023  24.771  0.00  0.00    +0.011 A 
ATOM     17  C   UNL     1      -1.154   2.657  25.276  0.00  0.00    -0.005 A 
ATOM     18  C   UNL     1      -0.478   2.913  25.758  0.00  0.00    -0.003 A 
ATOM     19  C   UNL     1       0.257   2.541  25.704  0.00  0.00    +0.001 A 
ATOM     20  C   UNL     1       0.362   1.910  25.182  0.00  0.00    +0.017 A 
ENDROOT
BRANCH   7  21
ATOM     21  C   UNL     1      -3.565   2.426  24.167  0.00  0.00    +0.258 C 
ATOM     22  O   UNL     1      -3.734   2.738  23.422  0.00  0.00    -0.272 OA
ATOM     23  N   UNL     1      -4.175   2.141  24.644  0.00  0.00    -0.204 NA
BRANCH  23  24
ATOM     24  C   UNL     1      -4.954   2.169  24.376  0.00  0.00    +0.115 C 
BRANCH  24  25
ATOM     25  C   UNL     1      -5.574   1.986  24.890  0.00  0.00    +0.022 C 
ATOM     26  C   UNL     1      -6.321   1.661  25.022  0.00  0.00    +0.002 C 
ATOM     27  C   UNL     1      -5.899   1.993  25.647  0.00  0.00    +0.002 C 
ENDBRANCH  24  25
ENDBRANCH  23  24
ENDBRANCH   7  21
BRANCH   5   4
ATOM      4  C   UNL     1      -1.833   3.685  25.934  0.00  0.00    +0.022 C 
BRANCH   4   2
ATOM      1  C   UNL     1      -2.960   4.525  26.191  0.00  0.00    +0.000 C 
ATOM      2  C   UNL     1      -2.251   4.383  25.795  0.00  0.00    +0.002 C 
ATOM      3  C   UNL     1      -1.958   4.939  25.259  0.00  0.00    +0.000 C 
ENDBRANCH   4   2
ENDBRANCH   5   4
BRANCH  11  12
ATOM     12  C   UNL     1       0.278   0.535  23.930  0.00  0.00    +0.132 C 
BRANCH  12  13
ATOM     13  C   UNL     1       0.191   0.066  23.257  0.00  0.00    -0.002 C 
ATOM     14  C   UNL     1       0.843  -0.333  22.947  0.00  0.00    -0.003 C 
ENDBRANCH  12  13
ENDBRANCH  11  12
TORSDOF 7
ENDMDL
MODEL 7
REMARK VINA RESULT:     -10.4      1.416      3.453
REMARK  Name = 
REMARK  7 active torsions:
REMARK  status: ('A' for Active; 'I' for Inactive)
REMARK    1  A    between atoms: C_2  and  C_4
REMARK    2  A    between atoms: C_4  and  C_5
REMARK    3  A    between atoms: C_7  and  C_21
REMARK    4  A    between atoms: N_11  and  C_12
REMARK    5  A    between atoms: C_12  and  C_13
REMARK    6  A    between atoms: N_23  and  C_24
REMARK    7  A    between atoms: C_24  and  C_25
REMARK                            x       y       z     vdW  Elec       q    Type
REMARK                         _______ _______ _______ _____ _____    ______ ____
ROOT
ATOM      5  C   UNL     1      -1.667   2.736  25.232  0.00  0.00    +0.095 C 
ATOM      6  N   UNL     1      -1.412   2.042  24.867  0.00  0.00    -0.207 NA
ATOM      7  C   UNL     1      -1.866   1.437  24.537  0.00  0.00    +0.155 C 
ATOM      8  C   UNL     1      -2.688   1.378  24.491  0.00  0.00    +0.055 C 
ATOM      9  C   UNL     1      -3.258   1.908  24.763  0.00  0.00    -0.002 A 
ATOM     10  C   UNL     1      -4.070   1.784  24.682  0.00  0.00    +0.072 A 
ATOM     11  N   UNL     1      -4.461   2.429  25.018  0.00  0.00    -0.322 N 
ATOM     15  C   UNL     1      -3.891   2.951  25.306  0.00  0.00    +0.060 A 
ATOM     16  C   UNL     1      -3.147   2.630  25.149  0.00  0.00    +0.011 A 
ATOM     17  C   UNL     1      -2.439   2.998  25.357  0.00  0.00    -0.005 A 
ATOM     18  C   UNL     1      -2.528   3.761  25.761  0.00  0.00    -0.003 A 
ATOM     19  C   UNL     1      -3.271   4.083  25.919  0.00  0.00    +0.001 A 
ATOM     20  C   UNL     1      -3.953   3.678  25.691  0.00  0.00    +0.017 A 
ENDROOT
BRANCH   7  21
ATOM     21  C   UNL     1      -1.443   0.809  24.211  0.00  0.00    +0.258 C 
ATOM     22  O   UNL     1      -1.121   0.877  23.455  0.00  0.00    -0.272 OA
ATOM     23  N   UNL     1      -1.341   0.112  24.641  0.00  0.00    -0.204 NA
BRANCH  23  24
ATOM     24  C   UNL     1      -0.918  -0.516  24.315  0.00  0.00    +0.115 C 
BRANCH  24  25
ATOM     25  C   UNL     1      -0.836  -1.221  24.737  0.00  0.00    +0.022 C 
ATOM     26  C   UNL     1      -0.934  -2.038  24.789  0.00  0.00    +0.002 C 
ATOM     27  C   UNL     1      -0.594  -1.624  25.415  0.00  0.00    +0.002 C 
ENDBRANCH  24  25
ENDBRANCH  23  24
ENDBRANCH   7  21
BRANCH   5   4
ATOM      4  C   UNL     1      -1.071   3.235  25.508  0.00  0.00    +0.022 C 
BRANCH   4   2
ATOM      1  C   UNL     1       0.291   2.980  25.158  0.00  0.00    +0.000 C 
ATOM      2  C   UNL     1      -0.330   2.925  25.698  0.00  0.00    +0.002 C 
ATOM      3  C   UNL     1      -0.210   2.561  26.429  0.00  0.00    +0.000 C 
ENDBRANCH   4   2
ENDBRANCH   5   4
BRANCH  11  12
ATOM     12  C   UNL     1      -5.278   2.533  25.059  0.00  0.00    +0.132 C 
BRANCH  12  13
ATOM     13  C   UNL     1      -5.784   1.904  24.888  0.00  0.00    -0.002 C 
ATOM     14  C   UNL     1      -6.589   1.965  25.058  0.00  0.00    -0.003 C 
ENDBRANCH  12  13
ENDBRANCH  11  12
TORSDOF 7
ENDMDL
MODEL 8
REMARK VINA RESULT:     -10.2      1.021      3.991
REMARK  Name = 
REMARK  7 active torsions:
REMARK  status: ('A' for Active; 'I' for Inactive)
REMARK    1  A    between atoms: C_2  and  C_4
REMARK    2  A    between atoms: C_4  and  C_5
REMARK    3  A    between atoms: C_7  and  C_21
REMARK    4  A    between atoms: N_11  and  C_12
REMARK    5  A    between atoms: C_12  and  C_13
REMARK    6  A    between atoms: N_23  and  C_24
REMARK    7  A    between atoms: C_24  and  C_25
REMARK                            x       y       z     vdW  Elec       q    Type
REMARK                         _______ _______ _______ _____ _____    ______ ____
ROOT
ATOM      5  C   UNL     1      -3.745   2.272  25.012  0.00  0.00    +0.095 C 
ATOM      6  N   UNL     1      -2.926   2.349  24.943  0.00  0.00    -0.207 NA
ATOM      7  C   UNL     1      -2.371   1.773  24.740  0.00  0.00    +0.155 C 
ATOM      8  C   UNL     1      -2.497   0.979  24.556  0.00  0.00    +0.055 C 
ATOM      9  C   UNL     1      -3.209   0.564  24.529  0.00  0.00    -0.002 A 
ATOM     10  C   UNL     1      -3.263  -0.236  24.336  0.00  0.00    +0.072 A 
ATOM     11  N   UNL     1      -4.058  -0.454  24.367  0.00  0.00    -0.322 N 
ATOM     15  C   UNL     1      -4.496   0.211  24.580  0.00  0.00    +0.060 A 
ATOM     16  C   UNL     1      -3.972   0.841  24.680  0.00  0.00    +0.011 A 
ATOM     17  C   UNL     1      -4.210   1.601  24.895  0.00  0.00    -0.005 A 
ATOM     18  C   UNL     1      -5.065   1.699  25.012  0.00  0.00    -0.003 A 
ATOM     19  C   UNL     1      -5.590   1.070  24.912  0.00  0.00    +0.001 A 
ATOM     20  C   UNL     1      -5.305   0.326  24.696  0.00  0.00    +0.017 A 
ENDROOT
BRANCH   7  21
ATOM     21  C   UNL     1      -1.585   2.026  24.718  0.00  0.00    +0.258 C 
ATOM     22  O   UNL     1      -1.239   2.232  23.999  0.00  0.00    -0.272 OA
ATOM     23  N   UNL     1      -1.147   2.071  25.416  0.00  0.00    -0.204 NA
BRANCH  23  24
ATOM     24  C   UNL     1      -0.363   2.324  25.394  0.00  0.00    +0.115 C 
BRANCH  24  25
ATOM     25  C   UNL     1       0.048   2.452  26.099  0.00  0.00    +0.022 C 
ATOM     26  C   UNL     1       0.709   2.744  26.497  0.00  0.00    +0.002 C 
ATOM     27  C   UNL     1       0.100   2.382  26.918  0.00  0.00    +0.002 C 
ENDBRANCH  24  25
ENDBRANCH  23  24
ENDBRANCH   7  21
BRANCH   5   4
ATOM      4  C   UNL     1      -4.151   2.957  25.226  0.00  0.00    +0.022 C 
BRANCH   4   2
ATOM      1  C   UNL     1      -3.472   4.139  25.654  0.00  0.00    +0.000 C 
ATOM      2  C   UNL     1      -3.829   3.698  25.056  0.00  0.00    +0.002 C 
ATOM      3  C   UNL     1      -3.865   3.996  24.287  0.00  0.00    +0.000 C 
ENDBRANCH   4   2
ENDBRANCH   5   4
BRANCH  11  12
ATOM     12  C   UNL     1      -4.362  -1.205  24.213  0.00  0.00    +0.132 C 
BRANCH  12  13
ATOM     13  C   UNL     1      -3.851  -1.845  24.113  0.00  0.00    -0.002 C 
ATOM     14  C   UNL     1      -4.150  -2.579  23.884  0.00  0.00    -0.003 C 
ENDBRANCH  12  13
ENDBRANCH  11  12
TORSDOF 7
ENDMDL
MODEL 9
REMARK VINA RESULT:     -10.1      2.196      3.955
REMARK  Name = 
REMARK  7 active torsions:
REMARK  status: ('A' for Active; 'I' for Inactive)
REMARK    1  A    between atoms: C_2  and  C_4
REMARK    2  A    between atoms: C_4  and  C_5
REMARK    3  A    between atoms: C_7  and  C_21
REMARK    4  A    between atoms: N_11  and  C_12
REMARK    5  A    between atoms: C_12  and  C_13
REMARK    6  A    between atoms: N_23  and  C_24
REMARK    7  A    between atoms: C_24  and  C_25
REMARK                            x       y       z     vdW  Elec       q    Type
REMARK                         _______ _______ _______ _____ _____    ______ ____
ROOT
ATOM      5  C   UNL     1      -2.585  -0.159  24.777  0.00  0.00    +0.095 C 
ATOM      6  N   UNL     1      -2.872   0.576  24.537  0.00  0.00    -0.207 NA
ATOM      7  C   UNL     1      -2.479   1.171  24.121  0.00  0.00    +0.155 C 
ATOM      8  C   UNL     1      -1.703   1.177  23.843  0.00  0.00    +0.055 C 
ATOM      9  C   UNL     1      -1.127   0.591  23.912  0.00  0.00    -0.002 A 
ATOM     10  C   UNL     1      -0.363   0.664  23.608  0.00  0.00    +0.072 A 
ATOM     11  N   UNL     1       0.050  -0.028  23.783  0.00  0.00    -0.322 N 
ATOM     15  C   UNL     1      -0.458  -0.530  24.197  0.00  0.00    +0.060 A 
ATOM     16  C   UNL     1      -1.186  -0.148  24.276  0.00  0.00    +0.011 A 
ATOM     17  C   UNL     1      -1.835  -0.481  24.661  0.00  0.00    -0.005 A 
ATOM     18  C   UNL     1      -1.702  -1.276  24.984  0.00  0.00    -0.003 A 
ATOM     19  C   UNL     1      -0.975  -1.659  24.905  0.00  0.00    +0.001 A 
ATOM     20  C   UNL     1      -0.353  -1.285  24.511  0.00  0.00    +0.017 A 
ENDROOT
BRANCH   7  21
ATOM     21  C   UNL     1      -2.922   1.849  23.962  0.00  0.00    +0.258 C 
ATOM     22  O   UNL     1      -3.192   1.995  23.197  0.00  0.00    -0.272 OA
ATOM     23  N   UNL     1      -3.093   2.381  24.570  0.00  0.00    -0.204 NA
BRANCH  23  24
ATOM     24  C   UNL     1      -3.536   3.059  24.412  0.00  0.00    +0.115 C 
BRANCH  24  25
ATOM     25  C   UNL     1      -3.852   3.499  25.034  0.00  0.00    +0.022 C 
ATOM     26  C   UNL     1      -4.491   3.890  25.380  0.00  0.00    +0.002 C 
ATOM     27  C   UNL     1      -3.763   3.870  25.765  0.00  0.00    +0.002 C 
ENDBRANCH  24  25
ENDBRANCH  23  24
ENDBRANCH   7  21
BRANCH   5   4
ATOM      4  C   UNL     1      -3.120  -0.634  25.188  0.00  0.00    +0.022 C 
BRANCH   4   2
ATOM      1  C   UNL     1      -4.473  -0.236  25.416  0.00  0.00    +0.000 C 
ATOM      2  C   UNL     1      -3.915  -0.645  24.967  0.00  0.00    +0.002 C 
ATOM      3  C   UNL     1      -4.152  -1.066  24.297  0.00  0.00    +0.000 C 
ENDBRANCH   4   2
ENDBRANCH   5   4
BRANCH  11  12
ATOM     12  C   UNL     1       0.832  -0.191  23.582  0.00  0.00    +0.132 C 
BRANCH  12  13
ATOM     13  C   UNL     1       1.180   0.187  22.936  0.00  0.00    -0.002 C 
ATOM     14  C   UNL     1       1.965   0.027  22.739  0.00  0.00    -0.003 C 
ENDBRANCH  12  13
ENDBRANCH  11  12
TORSDOF 7
ENDMDL
