MODEL 1
REMARK VINA RESULT:      -8.4      0.000      0.000
REMARK  Name = 
REMARK  6 active torsions:
REMARK  status: ('A' for Active; 'I' for Inactive)
REMARK    1  A    between atoms: S_2  and  C_5
REMARK    2  A    between atoms: C_8  and  C_9
REMARK    3  A    between atoms: C_9  and  N_10
REMARK    4  A    between atoms: N_10  and  C_11
REMARK    5  A    between atoms: C_14  and  C_15
REMARK    6  A    between atoms: C_15  and  N_16
REMARK                            x       y       z     vdW  Elec       q    Type
REMARK                         _______ _______ _______ _____ _____    ______ ____
ROOT
ATOM     11  C   UNL     1      -1.060   0.749  25.214  0.00  0.00    +0.135 C 
ATOM     12  C   UNL     1      -0.933   0.290  25.889  0.00  0.00    +0.162 C 
ATOM     13  O   UNL     1      -1.296  -0.441  25.771  0.00  0.00    -0.350 OA
ATOM     14  C   UNL     1      -1.647  -0.435  25.025  0.00  0.00    +0.169 C 
ATOM     25  C   UNL     1      -1.501   0.301  24.681  0.00  0.00    +0.199 C 
ATOM     26  O   UNL     1      -1.753   0.546  23.934  0.00  0.00    -0.219 OA
ENDROOT
BRANCH  11  10
ATOM     10  N   UNL     1      -0.793   1.521  25.095  0.00  0.00    -0.209 NA
BRANCH  10   9
ATOM      9  C   UNL     1      -0.827   2.068  25.712  0.00  0.00    +0.115 C 
BRANCH   9   8
ATOM      5  C   UNL     1      -1.223   4.461  25.219  0.00  0.00    +0.106 A 
ATOM      6  C   UNL     1      -0.539   4.092  24.945  0.00  0.00    +0.018 A 
ATOM      7  C   UNL     1      -0.407   3.294  25.109  0.00  0.00    -0.002 A 
ATOM      8  C   UNL     1      -0.959   2.866  25.548  0.00  0.00    -0.005 A 
ATOM     27  C   UNL     1      -1.644   3.236  25.823  0.00  0.00    -0.002 A 
ATOM     28  C   UNL     1      -1.776   4.034  25.658  0.00  0.00    +0.018 A 
BRANCH   5   2
ATOM      1  C   UNL     1      -1.487   6.056  24.891  0.00  0.00    +0.182 C 
ATOM      2  S   UNL     1      -1.355   5.259  25.055  0.00  0.00    +0.010 S 
ATOM      3  O   UNL     1      -0.613   5.308  24.699  0.00  0.00    -0.169 OA
ATOM      4  O   UNL     1      -2.097   5.209  25.412  0.00  0.00    -0.169 OA
ENDBRANCH   5   2
ENDBRANCH   9   8
ENDBRANCH  10   9
ENDBRANCH  11  10
BRANCH  14  15
ATOM     15  C   UNL     1      -2.070  -1.054  24.682  0.00  0.00    +0.149 C 
BRANCH  15  16
ATOM     16  N   UNL     1      -1.768  -1.822  24.704  0.00  0.00    -0.186 NA
ATOM     17  C   UNL     1      -2.253  -2.461  24.514  0.00  0.00    +0.323 C 
ATOM     18  O   UNL     1      -1.951  -3.229  24.536  0.00  0.00    -0.251 OA
ATOM     19  N   UNL     1      -3.040  -2.334  24.302  0.00  0.00    -0.258 N 
ATOM     20  C   UNL     1      -3.342  -1.566  24.280  0.00  0.00    +0.127 C 
ATOM     21  C   UNL     1      -4.129  -1.439  24.067  0.00  0.00    +0.164 C 
ATOM     22  O   UNL     1      -4.614  -2.078  23.877  0.00  0.00    -0.350 OA
ATOM     23  C   UNL     1      -4.312  -2.845  23.899  0.00  0.00    +0.164 C 
ATOM     24  C   UNL     1      -3.525  -2.974  24.111  0.00  0.00    +0.127 C 
ENDBRANCH  15  16
ENDBRANCH  14  15
TORSDOF 6
ENDMDL
MODEL 2
REMARK VINA RESULT:      -8.3      1.547      2.204
REMARK  Name = 
REMARK  6 active torsions:
REMARK  status: ('A' for Active; 'I' for Inactive)
REMARK    1  A    between atoms: S_2  and  C_5
REMARK    2  A    between atoms: C_8  and  C_9
REMARK    3  A    between atoms: C_9  and  N_10
REMARK    4  A    between atoms: N_10  and  C_11
REMARK    5  A    between atoms: C_14  and  C_15
REMARK    6  A    between atoms: C_15  and  N_16
REMARK                            x       y       z     vdW  Elec       q    Type
REMARK                         _______ _______ _______ _____ _____    ______ ____
ROOT
ATOM     11  C   UNL     1      -4.050   1.505  24.624  0.00  0.00    +0.135 C 
ATOM     12  C   UNL     1      -4.619   1.196  25.136  0.00  0.00    +0.162 C 
ATOM     13  O   UNL     1      -4.594   0.373  25.078  0.00  0.00    -0.350 OA
ATOM     14  C   UNL     1      -4.010   0.174  24.530  0.00  0.00    +0.169 C 
ATOM     25  C   UNL     1      -3.674   0.873  24.250  0.00  0.00    +0.199 C 
ATOM     26  O   UNL     1      -3.068   0.931  23.693  0.00  0.00    -0.219 OA
ENDROOT
BRANCH  11  10
ATOM     10  N   UNL     1      -3.886   2.305  24.508  0.00  0.00    -0.209 NA
BRANCH  10   9
ATOM      9  C   UNL     1      -3.744   2.795  25.156  0.00  0.00    +0.115 C 
BRANCH   9   8
ATOM      5  C   UNL     1      -1.935   4.482  25.057  0.00  0.00    +0.106 A 
ATOM      6  C   UNL     1      -2.510   4.458  24.466  0.00  0.00    +0.018 A 
ATOM      7  C   UNL     1      -3.113   3.896  24.499  0.00  0.00    -0.002 A 
ATOM      8  C   UNL     1      -3.141   3.357  25.123  0.00  0.00    -0.005 A 
ATOM     27  C   UNL     1      -2.565   3.381  25.715  0.00  0.00    -0.002 A 
ATOM     28  C   UNL     1      -1.963   3.943  25.681  0.00  0.00    +0.018 A 
BRANCH   5   2
ATOM      1  C   UNL     1      -0.730   5.606  24.990  0.00  0.00    +0.182 C 
ATOM      2  S   UNL     1      -1.333   5.044  25.023  0.00  0.00    +0.010 S 
ATOM      3  O   UNL     1      -1.845   5.612  25.333  0.00  0.00    -0.169 OA
ATOM      4  O   UNL     1      -0.820   4.476  24.714  0.00  0.00    -0.169 OA
ENDBRANCH   5   2
ENDBRANCH   9   8
ENDBRANCH  10   9
ENDBRANCH  11  10
BRANCH  14  15
ATOM     15  C   UNL     1      -3.799  -0.590  24.303  0.00  0.00    +0.149 C 
BRANCH  15  16
ATOM     16  N   UNL     1      -4.376  -1.114  24.029  0.00  0.00    -0.186 NA
ATOM     17  C   UNL     1      -4.216  -1.922  23.998  0.00  0.00    +0.323 C 
ATOM     18  O   UNL     1      -4.793  -2.446  23.724  0.00  0.00    -0.251 OA
ATOM     19  N   UNL     1      -3.481  -2.209  24.240  0.00  0.00    -0.258 N 
ATOM     20  C   UNL     1      -2.905  -1.685  24.513  0.00  0.00    +0.127 C 
ATOM     21  C   UNL     1      -2.170  -1.971  24.755  0.00  0.00    +0.164 C 
ATOM     22  O   UNL     1      -2.011  -2.780  24.724  0.00  0.00    -0.350 OA
ATOM     23  C   UNL     1      -2.587  -3.303  24.451  0.00  0.00    +0.164 C 
ATOM     24  C   UNL     1      -3.323  -3.017  24.208  0.00  0.00    +0.127 C 
ENDBRANCH  15  16
ENDBRANCH  14  15
TORSDOF 6
ENDMDL
MODEL 3
REMARK VINA RESULT:      -8.2      3.391      4.904
REMARK  Name = 
REMARK  6 active torsions:
REMARK  status: ('A' for Active; 'I' for Inactive)
REMARK    1  A    between atoms: S_2  and  C_5
REMARK    2  A    between atoms: C_8  and  C_9
REMARK    3  A    between atoms: C_9  and  N_10
REMARK    4  A    between atoms: N_10  and  C_11
REMARK    5  A    between atoms: C_14  and  C_15
REMARK    6  A    between atoms: C_15  and  N_16
REMARK                            x       y       z     vdW  Elec       q    Type
REMARK                         _______ _______ _______ _____ _____    ______ ____
ROOT
ATOM     11  C   UNL     1      -0.979   0.305  24.232  0.00  0.00    +0.135 C 
ATOM     12  C   UNL     1      -0.752  -0.471  24.400  0.00  0.00    +0.162 C 
ATOM     13  O   UNL     1      -0.033  -0.615  24.021  0.00  0.00    -0.350 OA
ATOM     14  C   UNL     1       0.185   0.072  23.620  0.00  0.00    +0.169 C 
ATOM     25  C   UNL     1      -0.400   0.640  23.751  0.00  0.00    +0.199 C 
ATOM     26  O   UNL     1      -0.404   1.410  23.451  0.00  0.00    -0.219 OA
ENDROOT
BRANCH  11  10
ATOM     10  N   UNL     1      -1.664   0.678  24.500  0.00  0.00    -0.209 NA
BRANCH  10   9
ATOM      9  C   UNL     1      -2.341   0.234  24.657  0.00  0.00    +0.115 C 
BRANCH   9   8
ATOM      5  C   UNL     1      -4.527   1.363  24.920  0.00  0.00    +0.106 A 
ATOM      6  C   UNL     1      -3.830   1.778  25.062  0.00  0.00    +0.018 A 
ATOM      7  C   UNL     1      -3.101   1.402  24.975  0.00  0.00    -0.002 A 
ATOM      8  C   UNL     1      -3.070   0.610  24.745  0.00  0.00    -0.005 A 
ATOM     27  C   UNL     1      -3.769   0.195  24.602  0.00  0.00    -0.002 A 
ATOM     28  C   UNL     1      -4.498   0.572  24.689  0.00  0.00    +0.018 A 
BRANCH   5   2
ATOM      1  C   UNL     1      -5.985   2.117  25.095  0.00  0.00    +0.182 C 
ATOM      2  S   UNL     1      -5.256   1.740  25.007  0.00  0.00    +0.010 S 
ATOM      3  O   UNL     1      -5.392   1.315  25.701  0.00  0.00    -0.169 OA
ATOM      4  O   UNL     1      -5.120   2.165  24.313  0.00  0.00    -0.169 OA
ENDBRANCH   5   2
ENDBRANCH   9   8
ENDBRANCH  10   9
ENDBRANCH  11  10
BRANCH  14  15
ATOM     15  C   UNL     1       0.867   0.174  23.168  0.00  0.00    +0.149 C 
BRANCH  15  16
ATOM     16  N   UNL     1       0.942  -0.210  22.441  0.00  0.00    -0.186 NA
ATOM     17  C   UNL     1       1.666  -0.208  22.047  0.00  0.00    +0.323 C 
ATOM     18  O   UNL     1       1.742  -0.593  21.321  0.00  0.00    -0.251 OA
ATOM     19  N   UNL     1       2.316   0.178  22.378  0.00  0.00    -0.258 N 
ATOM     20  C   UNL     1       2.241   0.563  23.105  0.00  0.00    +0.127 C 
ATOM     21  C   UNL     1       2.890   0.949  23.435  0.00  0.00    +0.164 C 
ATOM     22  O   UNL     1       3.614   0.951  23.041  0.00  0.00    -0.350 OA
ATOM     23  C   UNL     1       3.689   0.567  22.315  0.00  0.00    +0.164 C 
ATOM     24  C   UNL     1       3.040   0.180  21.983  0.00  0.00    +0.127 C 
ENDBRANCH  15  16
ENDBRANCH  14  15
TORSDOF 6
ENDMDL
MODEL 4
REMARK VINA RESULT:      -8.2      3.313      4.763
REMARK  Name = 
REMARK  6 active torsions:
REMARK  status: ('A' for Active; 'I' for Inactive)
REMARK    1  A    between atoms: S_2  and  C_5
REMARK    2  A    between atoms: C_8  and  C_9
REMARK    3  A    between atoms: C_9  and  N_10
REMARK    4  A    between atoms: N_10  and  C_11
REMARK    5  A    between atoms: C_14  and  C_15
REMARK    6  A    between atoms: C_15  and  N_16
REMARK                            x       y       z     vdW  Elec       q    Type
REMARK                         _______ _______ _______ _____ _____    ______ ____
ROOT
ATOM     11  C   UNL     1      -1.492   0.956  24.123  0.00  0.00    +0.135 C 
ATOM     12  C   UNL     1      -1.712   0.476  24.758  0.00  0.00    +0.162 C 
ATOM     13  O   UNL     1      -2.474   0.691  24.988  0.00  0.00    -0.350 OA
ATOM     14  C   UNL     1      -2.726   1.303  24.496  0.00  0.00    +0.169 C 
ATOM     25  C   UNL     1      -2.119   1.467  23.961  0.00  0.00    +0.199 C 
ATOM     26  O   UNL     1      -2.137   2.041  23.369  0.00  0.00    -0.219 OA
ENDROOT
BRANCH  11  10
ATOM     10  N   UNL     1      -0.773   0.929  23.721  0.00  0.00    -0.209 NA
BRANCH  10   9
ATOM      9  C   UNL     1      -0.209   0.361  23.922  0.00  0.00    +0.115 C 
BRANCH   9   8
ATOM      5  C   UNL     1       2.055   0.458  22.926  0.00  0.00    +0.106 A 
ATOM      6  C   UNL     1       1.527  -0.131  22.694  0.00  0.00    +0.018 A 
ATOM      7  C   UNL     1       0.773  -0.163  23.026  0.00  0.00    -0.002 A 
ATOM      8  C   UNL     1       0.546   0.394  23.590  0.00  0.00    -0.005 A 
ATOM     27  C   UNL     1       1.074   0.984  23.823  0.00  0.00    -0.002 A 
ATOM     28  C   UNL     1       1.829   1.016  23.491  0.00  0.00    +0.018 A 
BRANCH   5   2
ATOM      1  C   UNL     1       3.564   0.523  22.262  0.00  0.00    +0.182 C 
ATOM      2  S   UNL     1       2.809   0.491  22.594  0.00  0.00    +0.010 S 
ATOM      3  O   UNL     1       3.026   1.068  23.142  0.00  0.00    -0.169 OA
ATOM      4  O   UNL     1       2.593  -0.087  22.046  0.00  0.00    -0.169 OA
ENDBRANCH   5   2
ENDBRANCH   9   8
ENDBRANCH  10   9
ENDBRANCH  11  10
BRANCH  14  15
ATOM     15  C   UNL     1      -3.456   1.685  24.532  0.00  0.00    +0.149 C 
BRANCH  15  16
ATOM     16  N   UNL     1      -4.154   1.245  24.516  0.00  0.00    -0.186 NA
ATOM     17  C   UNL     1      -4.858   1.578  24.787  0.00  0.00    +0.323 C 
ATOM     18  O   UNL     1      -5.556   1.137  24.771  0.00  0.00    -0.251 OA
ATOM     19  N   UNL     1      -4.866   2.351  25.074  0.00  0.00    -0.258 N 
ATOM     20  C   UNL     1      -4.168   2.792  25.090  0.00  0.00    +0.127 C 
ATOM     21  C   UNL     1      -4.175   3.565  25.377  0.00  0.00    +0.164 C 
ATOM     22  O   UNL     1      -4.880   3.898  25.648  0.00  0.00    -0.350 OA
ATOM     23  C   UNL     1      -5.577   3.458  25.632  0.00  0.00    +0.164 C 
ATOM     24  C   UNL     1      -5.570   2.684  25.345  0.00  0.00    +0.127 C 
ENDBRANCH  15  16
ENDBRANCH  14  15
TORSDOF 6
ENDMDL
MODEL 5
REMARK VINA RESULT:      -8.2      2.458      6.367
REMARK  Name = 
REMARK  6 active torsions:
REMARK  status: ('A' for Active; 'I' for Inactive)
REMARK    1  A    between atoms: S_2  and  C_5
REMARK    2  A    between atoms: C_8  and  C_9
REMARK    3  A    between atoms: C_9  and  N_10
REMARK    4  A    between atoms: N_10  and  C_11
REMARK    5  A    between atoms: C_14  and  C_15
REMARK    6  A    between atoms: C_15  and  N_16
REMARK                            x       y       z     vdW  Elec       q    Type
REMARK                         _______ _______ _______ _____ _____    ______ ____
ROOT
ATOM     11  C   UNL     1      -4.097   1.565  24.737  0.00  0.00    +0.135 C 
ATOM     12  C   UNL     1      -4.609   1.990  25.226  0.00  0.00    +0.162 C 
ATOM     13  O   UNL     1      -4.259   2.719  25.389  0.00  0.00    -0.350 OA
ATOM     14  C   UNL     1      -3.531   2.745  25.001  0.00  0.00    +0.169 C 
ATOM     25  C   UNL     1      -3.432   2.031  24.598  0.00  0.00    +0.199 C 
ATOM     26  O   UNL     1      -2.780   1.821  24.137  0.00  0.00    -0.219 OA
ENDROOT
BRANCH  11  10
ATOM     10  N   UNL     1      -4.229   0.807  24.440  0.00  0.00    -0.209 NA
BRANCH  10   9
ATOM      9  C   UNL     1      -4.435   0.194  24.952  0.00  0.00    +0.115 C 
BRANCH   9   8
ATOM      5  C   UNL     1      -3.625  -2.104  24.517  0.00  0.00    +0.106 A 
ATOM      6  C   UNL     1      -3.454  -1.736  25.234  0.00  0.00    +0.018 A 
ATOM      7  C   UNL     1      -3.724  -0.970  25.379  0.00  0.00    -0.002 A 
ATOM      8  C   UNL     1      -4.165  -0.572  24.807  0.00  0.00    -0.005 A 
ATOM     27  C   UNL     1      -4.336  -0.942  24.089  0.00  0.00    -0.002 A 
ATOM     28  C   UNL     1      -4.066  -1.708  23.944  0.00  0.00    +0.018 A 
BRANCH   5   2
ATOM      1  C   UNL     1      -3.085  -3.636  24.227  0.00  0.00    +0.182 C 
ATOM      2  S   UNL     1      -3.355  -2.870  24.372  0.00  0.00    +0.010 S 
ATOM      3  O   UNL     1      -2.575  -2.604  24.421  0.00  0.00    -0.169 OA
ATOM      4  O   UNL     1      -4.134  -3.136  24.323  0.00  0.00    -0.169 OA
ENDBRANCH   5   2
ENDBRANCH   9   8
ENDBRANCH  10   9
ENDBRANCH  11  10
BRANCH  14  15
ATOM     15  C   UNL     1      -2.996   3.373  25.013  0.00  0.00    +0.149 C 
BRANCH  15  16
ATOM     16  N   UNL     1      -3.159   4.045  25.464  0.00  0.00    -0.186 NA
ATOM     17  C   UNL     1      -2.591   4.637  25.541  0.00  0.00    +0.323 C 
ATOM     18  O   UNL     1      -2.753   5.309  25.991  0.00  0.00    -0.251 OA
ATOM     19  N   UNL     1      -1.859   4.558  25.168  0.00  0.00    -0.258 N 
ATOM     20  C   UNL     1      -1.696   3.886  24.718  0.00  0.00    +0.127 C 
ATOM     21  C   UNL     1      -0.964   3.807  24.345  0.00  0.00    +0.164 C 
ATOM     22  O   UNL     1      -0.396   4.399  24.422  0.00  0.00    -0.350 OA
ATOM     23  C   UNL     1      -0.558   5.071  24.872  0.00  0.00    +0.164 C 
ATOM     24  C   UNL     1      -1.290   5.150  25.245  0.00  0.00    +0.127 C 
ENDBRANCH  15  16
ENDBRANCH  14  15
TORSDOF 6
ENDMDL
MODEL 6
REMARK VINA RESULT:      -7.8      1.969      6.198
REMARK  Name = 
REMARK  6 active torsions:
REMARK  status: ('A' for Active; 'I' for Inactive)
REMARK    1  A    between atoms: S_2  and  C_5
REMARK    2  A    between atoms: C_8  and  C_9
REMARK    3  A    between atoms: C_9  and  N_10
REMARK    4  A    between atoms: N_10  and  C_11
REMARK    5  A    between atoms: C_14  and  C_15
REMARK    6  A    between atoms: C_15  and  N_16
REMARK                            x       y       z     vdW  Elec       q    Type
REMARK                         _______ _______ _______ _____ _____    ______ ____
ROOT
ATOM     11  C   UNL     1      -1.292   0.741  25.240  0.00  0.00    +0.135 C 
ATOM     12  C   UNL     1      -0.798   0.888  25.886  0.00  0.00    +0.162 C 
ATOM     13  O   UNL     1      -0.776   1.704  26.009  0.00  0.00    -0.350 OA
ATOM     14  C   UNL     1      -1.256   2.060  25.440  0.00  0.00    +0.169 C 
ATOM     25  C   UNL     1      -1.574   1.465  24.966  0.00  0.00    +0.199 C 
ATOM     26  O   UNL     1      -2.086   1.575  24.327  0.00  0.00    -0.219 OA
ENDROOT
BRANCH  11  10
ATOM     10  N   UNL     1      -1.471  -0.001  24.926  0.00  0.00    -0.209 NA
BRANCH  10   9
ATOM      9  C   UNL     1      -1.746  -0.602  25.420  0.00  0.00    +0.115 C 
BRANCH   9   8
ATOM      5  C   UNL     1      -3.294  -2.317  24.533  0.00  0.00    +0.106 A 
ATOM      6  C   UNL     1      -3.572  -1.739  25.050  0.00  0.00    +0.018 A 
ATOM      7  C   UNL     1      -3.056  -1.167  25.346  0.00  0.00    -0.002 A 
ATOM      8  C   UNL     1      -2.262  -1.174  25.124  0.00  0.00    -0.005 A 
ATOM     27  C   UNL     1      -1.984  -1.753  24.606  0.00  0.00    -0.002 A 
ATOM     28  C   UNL     1      -2.500  -2.325  24.310  0.00  0.00    +0.018 A 
BRANCH   5   2
ATOM      1  C   UNL     1      -4.326  -3.461  23.942  0.00  0.00    +0.182 C 
ATOM      2  S   UNL     1      -3.810  -2.889  24.237  0.00  0.00    +0.010 S 
ATOM      3  O   UNL     1      -3.468  -3.454  24.732  0.00  0.00    -0.169 OA
ATOM      4  O   UNL     1      -4.152  -2.324  23.742  0.00  0.00    -0.169 OA
ENDBRANCH   5   2
ENDBRANCH   9   8
ENDBRANCH  10   9
ENDBRANCH  11  10
BRANCH  14  15
ATOM     15  C   UNL     1      -1.393   2.869  25.360  0.00  0.00    +0.149 C 
BRANCH  15  16
ATOM     16  N   UNL     1      -2.030   3.221  25.750  0.00  0.00    -0.186 NA
ATOM     17  C   UNL     1      -2.127   4.039  25.727  0.00  0.00    +0.323 C 
ATOM     18  O   UNL     1      -2.764   4.391  26.116  0.00  0.00    -0.251 OA
ATOM     19  N   UNL     1      -1.587   4.508  25.314  0.00  0.00    -0.258 N 
ATOM     20  C   UNL     1      -0.950   4.156  24.924  0.00  0.00    +0.127 C 
ATOM     21  C   UNL     1      -0.411   4.624  24.511  0.00  0.00    +0.164 C 
ATOM     22  O   UNL     1      -0.508   5.443  24.488  0.00  0.00    -0.350 OA
ATOM     23  C   UNL     1      -1.144   5.794  24.878  0.00  0.00    +0.164 C 
ATOM     24  C   UNL     1      -1.684   5.326  25.291  0.00  0.00    +0.127 C 
ENDBRANCH  15  16
ENDBRANCH  14  15
TORSDOF 6
ENDMDL
MODEL 7
REMARK VINA RESULT:      -7.3      4.204      5.233
REMARK  Name = 
REMARK  6 active torsions:
REMARK  status: ('A' for Active; 'I' for Inactive)
REMARK    1  A    between atoms: S_2  and  C_5
REMARK    2  A    between atoms: C_8  and  C_9
REMARK    3  A    between atoms: C_9  and  N_10
REMARK    4  A    between atoms: N_10  and  C_11
REMARK    5  A    between atoms: C_14  and  C_15
REMARK    6  A    between atoms: C_15  and  N_16
REMARK                            x       y       z     vdW  Elec       q    Type
REMARK                         _______ _______ _______ _____ _____    ______ ____
ROOT
ATOM     11  C   UNL     1       0.820   0.523  23.381  0.00  0.00    +0.135 C 
ATOM     12  C   UNL     1       0.446  -0.139  23.059  0.00  0.00    +0.162 C 
ATOM     13  O   UNL     1      -0.353  -0.105  23.265  0.00  0.00    -0.350 OA
ATOM     14  C   UNL     1      -0.473   0.576  23.714  0.00  0.00    +0.169 C 
ATOM     25  C   UNL     1       0.252   0.965  23.786  0.00  0.00    +0.199 C 
ATOM     26  O   UNL     1       0.386   1.671  24.191  0.00  0.00    -0.219 OA
ENDROOT
BRANCH  11  10
ATOM     10  N   UNL     1       1.620   0.709  23.311  0.00  0.00    -0.209 NA
BRANCH  10   9
ATOM      9  C   UNL     1       2.111   0.245  22.838  0.00  0.00    +0.115 C 
BRANCH   9   8
ATOM      5  C   UNL     1       4.554   0.228  23.236  0.00  0.00    +0.106 A 
ATOM      6  C   UNL     1       4.099  -0.430  23.437  0.00  0.00    +0.018 A 
ATOM      7  C   UNL     1       3.285  -0.424  23.305  0.00  0.00    -0.002 A 
ATOM      8  C   UNL     1       2.926   0.239  22.971  0.00  0.00    -0.005 A 
ATOM     27  C   UNL     1       3.382   0.898  22.770  0.00  0.00    -0.002 A 
ATOM     28  C   UNL     1       4.196   0.892  22.902  0.00  0.00    +0.018 A 
BRANCH   5   2
ATOM      1  C   UNL     1       6.183   0.217  23.502  0.00  0.00    +0.182 C 
ATOM      2  S   UNL     1       5.368   0.222  23.369  0.00  0.00    +0.010 S 
ATOM      3  O   UNL     1       5.486  -0.126  22.630  0.00  0.00    -0.169 OA
ATOM      4  O   UNL     1       5.250   0.570  24.108  0.00  0.00    -0.169 OA
ENDBRANCH   5   2
ENDBRANCH   9   8
ENDBRANCH  10   9
ENDBRANCH  11  10
BRANCH  14  15
ATOM     15  C   UNL     1      -1.190   0.826  24.034  0.00  0.00    +0.149 C 
BRANCH  15  16
ATOM     16  N   UNL     1      -1.580   0.357  24.590  0.00  0.00    -0.186 NA
ATOM     17  C   UNL     1      -2.372   0.500  24.766  0.00  0.00    +0.323 C 
ATOM     18  O   UNL     1      -2.763   0.031  25.322  0.00  0.00    -0.251 OA
ATOM     19  N   UNL     1      -2.777   1.111  24.387  0.00  0.00    -0.258 N 
ATOM     20  C   UNL     1      -2.386   1.581  23.831  0.00  0.00    +0.127 C 
ATOM     21  C   UNL     1      -2.791   2.192  23.452  0.00  0.00    +0.164 C 
ATOM     22  O   UNL     1      -3.584   2.334  23.629  0.00  0.00    -0.350 OA
ATOM     23  C   UNL     1      -3.973   1.866  24.184  0.00  0.00    +0.164 C 
ATOM     24  C   UNL     1      -3.569   1.254  24.564  0.00  0.00    +0.127 C 
ENDBRANCH  15  16
ENDBRANCH  14  15
TORSDOF 6
ENDMDL
MODEL 8
REMARK VINA RESULT:      -6.7     17.575     19.084
REMARK  Name = 
REMARK  6 active torsions:
REMARK  status: ('A' for Active; 'I' for Inactive)
REMARK    1  A    between atoms: S_2  and  C_5
REMARK    2  A    between atoms: C_8  and  C_9
REMARK    3  A    between atoms: C_9  and  N_10
REMARK    4  A    between atoms: N_10  and  C_11
REMARK    5  A    between atoms: C_14  and  C_15
REMARK    6  A    between atoms: C_15  and  N_16
REMARK                            x       y       z     vdW  Elec       q    Type
REMARK                         _______ _______ _______ _____ _____    ______ ____
ROOT
ATOM     11  C   UNL     1      -5.816  -8.930   9.378  0.00  0.00    +0.135 C 
ATOM     12  C   UNL     1      -5.779  -8.957   8.554  0.00  0.00    +0.162 C 
ATOM     13  O   UNL     1      -6.463  -8.605   8.256  0.00  0.00    -0.350 OA
ATOM     14  C   UNL     1      -6.923  -8.361   8.895  0.00  0.00    +0.169 C 
ATOM     25  C   UNL     1      -6.523  -8.562   9.589  0.00  0.00    +0.199 C 
ATOM     26  O   UNL     1      -6.785  -8.420  10.359  0.00  0.00    -0.219 OA
ENDROOT
BRANCH  11  10
ATOM     10  N   UNL     1      -5.246  -9.221   9.899  0.00  0.00    -0.209 NA
BRANCH  10   9
ATOM      9  C   UNL     1      -4.512  -9.466   9.612  0.00  0.00    +0.115 C 
BRANCH   9   8
ATOM      5  C   UNL     1      -2.719 -10.109  11.192  0.00  0.00    +0.106 A 
ATOM      6  C   UNL     1      -3.345 -10.625  11.047  0.00  0.00    +0.018 A 
ATOM      7  C   UNL     1      -3.943 -10.411  10.520  0.00  0.00    -0.002 A 
ATOM      8  C   UNL     1      -3.915  -9.680  10.139  0.00  0.00    -0.005 A 
ATOM     27  C   UNL     1      -3.288  -9.163  10.285  0.00  0.00    -0.002 A 
ATOM     28  C   UNL     1      -2.690  -9.377  10.812  0.00  0.00    +0.018 A 
BRANCH   5   2
ATOM      1  C   UNL     1      -1.524 -10.537  12.246  0.00  0.00    +0.182 C 
ATOM      2  S   UNL     1      -2.122 -10.323  11.719  0.00  0.00    +0.010 S 
ATOM      3  O   UNL     1      -1.583  -9.865  11.294  0.00  0.00    -0.169 OA
ATOM      4  O   UNL     1      -2.661 -10.781  12.144  0.00  0.00    -0.169 OA
ENDBRANCH   5   2
ENDBRANCH   9   8
ENDBRANCH  10   9
ENDBRANCH  11  10
BRANCH  14  15
ATOM     15  C   UNL     1      -7.655  -7.983   8.850  0.00  0.00    +0.149 C 
BRANCH  15  16
ATOM     16  N   UNL     1      -7.703  -7.208   8.569  0.00  0.00    -0.186 NA
ATOM     17  C   UNL     1      -8.438  -6.875   8.404  0.00  0.00    +0.323 C 
ATOM     18  O   UNL     1      -8.486  -6.100   8.124  0.00  0.00    -0.251 OA
ATOM     19  N   UNL     1      -9.127  -7.314   8.519  0.00  0.00    -0.258 N 
ATOM     20  C   UNL     1      -9.079  -8.089   8.800  0.00  0.00    +0.127 C 
ATOM     21  C   UNL     1      -9.768  -8.528   8.915  0.00  0.00    +0.164 C 
ATOM     22  O   UNL     1     -10.503  -8.194   8.750  0.00  0.00    -0.350 OA
ATOM     23  C   UNL     1     -10.551  -7.420   8.469  0.00  0.00    +0.164 C 
ATOM     24  C   UNL     1      -9.862  -6.980   8.354  0.00  0.00    +0.127 C 
ENDBRANCH  15  16
ENDBRANCH  14  15
TORSDOF 6
ENDMDL
MODEL 9
REMARK VINA RESULT:      -5.7     19.454     19.950
REMARK  Name = 
REMARK  6 active torsions:
REMARK  status: ('A' for Active; 'I' for Inactive)
REMARK    1  A    between atoms: S_2  and  C_5
REMARK    2  A    between atoms: C_8  and  C_9
REMARK    3  A    between atoms: C_9  and  N_10
REMARK    4  A    between atoms: N_10  and  C_11
REMARK    5  A    between atoms: C_14  and  C_15
REMARK    6  A    between atoms: C_15  and  N_16
REMARK                            x       y       z     vdW  Elec       q    Type
REMARK                         _______ _______ _______ _____ _____    ______ ____
ROOT
ATOM     11  C   UNL     1      16.898  -5.903  25.334  0.00  0.00    +0.135 C 
ATOM     12  C   UNL     1      16.630  -5.869  26.114  0.00  0.00    +0.162 C 
ATOM     13  O   UNL     1      16.492  -6.641  26.371  0.00  0.00    -0.350 OA
ATOM     14  C   UNL     1      16.675  -7.152  25.750  0.00  0.00    +0.169 C 
ATOM     25  C   UNL     1      16.926  -6.696  25.109  0.00  0.00    +0.199 C 
ATOM     26  O   UNL     1      17.163  -6.983  24.373  0.00  0.00    -0.219 OA
ENDROOT
BRANCH  11  10
ATOM     10  N   UNL     1      17.103  -5.258  24.863  0.00  0.00    -0.209 NA
BRANCH  10   9
ATOM      9  C   UNL     1      16.846  -4.501  25.067  0.00  0.00    +0.115 C 
BRANCH   9   8
ATOM      5  C   UNL     1      17.176  -2.618  23.495  0.00  0.00    +0.106 A 
ATOM      6  C   UNL     1      17.269  -2.499  24.305  0.00  0.00    +0.018 A 
ATOM      7  C   UNL     1      17.159  -3.127  24.829  0.00  0.00    -0.002 A 
ATOM      8  C   UNL     1      16.956  -3.873  24.543  0.00  0.00    -0.005 A 
ATOM     27  C   UNL     1      16.863  -3.992  23.731  0.00  0.00    -0.002 A 
ATOM     28  C   UNL     1      16.973  -3.364  23.207  0.00  0.00    +0.018 A 
BRANCH   5   2
ATOM      1  C   UNL     1      17.396  -1.363  22.447  0.00  0.00    +0.182 C 
ATOM      2  S   UNL     1      17.286  -1.990  22.971  0.00  0.00    +0.010 S 
ATOM      3  O   UNL     1      17.191  -1.455  23.592  0.00  0.00    -0.169 OA
ATOM      4  O   UNL     1      17.382  -2.525  22.350  0.00  0.00    -0.169 OA
ENDBRANCH   5   2
ENDBRANCH   9   8
ENDBRANCH  10   9
ENDBRANCH  11  10
BRANCH  14  15
ATOM     15  C   UNL     1      16.617  -7.975  25.766  0.00  0.00    +0.149 C 
BRANCH  15  16
ATOM     16  N   UNL     1      17.099  -8.413  26.273  0.00  0.00    -0.186 NA
ATOM     17  C   UNL     1      16.892  -9.186  26.472  0.00  0.00    +0.323 C 
ATOM     18  O   UNL     1      17.374  -9.624  26.980  0.00  0.00    -0.251 OA
ATOM     19  N   UNL     1      16.204  -9.522  26.165  0.00  0.00    -0.258 N 
ATOM     20  C   UNL     1      15.723  -9.084  25.657  0.00  0.00    +0.127 C 
ATOM     21  C   UNL     1      15.035  -9.420  25.350  0.00  0.00    +0.164 C 
ATOM     22  O   UNL     1      14.829 -10.193  25.550  0.00  0.00    -0.350 OA
ATOM     23  C   UNL     1      15.310 -10.631  26.056  0.00  0.00    +0.164 C 
ATOM     24  C   UNL     1      15.998 -10.295  26.364  0.00  0.00    +0.127 C 
ENDBRANCH  15  16
ENDBRANCH  14  15
TORSDOF 6
ENDMDL
