MODEL 1
REMARK VINA RESULT:      -9.2      0.000      0.000
REMARK  Name = 
REMARK  5 active torsions:
REMARK  status: ('A' for Active; 'I' for Inactive)
REMARK    1  A    between atoms: O_2  and  C_3
REMARK    2  A    between atoms: C_3  and  C_4
REMARK    3  A    between atoms: N_6  and  C_7
REMARK    4  A    between atoms: C_11  and  N_15
REMARK    5  A    between atoms: C_18  and  C_22
REMARK                            x       y       z     vdW  Elec       q    Type
REMARK                         _______ _______ _______ _____ _____    ______ ____
ROOT
ATOM      7  C   UNL     1       0.367   0.591  23.907  0.00  0.00    +0.154 C 
ATOM      8  C   UNL     1      -0.119  -0.074  23.868  0.00  0.00    +0.166 C 
ATOM      9  O   UNL     1      -0.849   0.126  24.195  0.00  0.00    -0.350 OA
ATOM     10  C   UNL     1      -0.815   0.913  24.436  0.00  0.00    +0.166 C 
ATOM     11  C   UNL     1      -1.244   1.524  24.787  0.00  0.00    +0.154 C 
ATOM     12  C   UNL     1      -0.758   2.189  24.827  0.00  0.00    +0.166 C 
ATOM     13  O   UNL     1      -0.028   1.989  24.500  0.00  0.00    -0.350 OA
ATOM     14  C   UNL     1      -0.063   1.201  24.258  0.00  0.00    +0.166 C 
ENDROOT
BRANCH  11  15
ATOM     15  N   UNL     1      -2.024   1.477  25.053  0.00  0.00    -0.200 NA
ATOM     16  C   UNL     1      -2.583   2.026  24.793  0.00  0.00    +0.237 A 
ATOM     17  N   UNL     1      -3.362   1.979  25.058  0.00  0.00    -0.212 NA
ATOM     18  C   UNL     1      -3.920   2.528  24.798  0.00  0.00    +0.086 A 
ATOM     19  C   UNL     1      -3.699   3.124  24.272  0.00  0.00    +0.040 A 
ATOM     20  C   UNL     1      -2.919   3.171  24.006  0.00  0.00    +0.103 A 
ATOM     21  N   UNL     1      -2.361   2.621  24.267  0.00  0.00    -0.211 NA
BRANCH  18  22
ATOM     22  C   UNL     1      -4.700   2.482  25.063  0.00  0.00    +0.020 A 
ATOM     23  C   UNL     1      -4.945   2.940  25.706  0.00  0.00    +0.002 A 
ATOM     24  C   UNL     1      -5.724   2.893  25.971  0.00  0.00    +0.002 A 
ATOM     25  C   UNL     1      -6.259   2.390  25.595  0.00  0.00    +0.030 A 
ATOM     26  C   UNL     1      -6.014   1.933  24.954  0.00  0.00    +0.140 A 
ATOM     27  F   UNL     1      -6.548   1.429  24.578  0.00  0.00    -0.204 F 
ATOM     28  C   UNL     1      -5.234   1.979  24.688  0.00  0.00    +0.031 A 
ENDBRANCH  18  22
ENDBRANCH  11  15
BRANCH   7   6
ATOM      4  C   UNL     1       1.412   0.130  23.047  0.00  0.00    +0.272 C 
ATOM      5  O   UNL     1       0.896  -0.424  22.719  0.00  0.00    -0.271 OA
ATOM      6  N   UNL     1       1.147   0.638  23.641  0.00  0.00    -0.200 NA
BRANCH   4   3
ATOM      3  C   UNL     1       2.191   0.177  22.782  0.00  0.00    +0.229 C 
BRANCH   3   2
ATOM      1  C   UNL     1       3.136   0.140  21.711  0.00  0.00    +0.175 C 
ATOM      2  O   UNL     1       2.365   0.047  21.986  0.00  0.00    -0.342 OA
ENDBRANCH   3   2
ENDBRANCH   4   3
ENDBRANCH   7   6
TORSDOF 5
ENDMDL
MODEL 2
REMARK VINA RESULT:      -8.9      2.360      3.016
REMARK  Name = 
REMARK  5 active torsions:
REMARK  status: ('A' for Active; 'I' for Inactive)
REMARK    1  A    between atoms: O_2  and  C_3
REMARK    2  A    between atoms: C_3  and  C_4
REMARK    3  A    between atoms: N_6  and  C_7
REMARK    4  A    between atoms: C_11  and  N_15
REMARK    5  A    between atoms: C_18  and  C_22
REMARK                            x       y       z     vdW  Elec       q    Type
REMARK                         _______ _______ _______ _____ _____    ______ ____
ROOT
ATOM      7  C   UNL     1       2.183   0.623  23.032  0.00  0.00    +0.154 C 
ATOM      8  C   UNL     1       1.925   0.028  22.523  0.00  0.00    +0.166 C 
ATOM      9  O   UNL     1       1.110  -0.053  22.619  0.00  0.00    -0.350 OA
ATOM     10  C   UNL     1       0.864   0.491  23.187  0.00  0.00    +0.166 C 
ATOM     11  C   UNL     1       0.209   0.778  23.599  0.00  0.00    +0.154 C 
ATOM     12  C   UNL     1       0.467   1.373  24.108  0.00  0.00    +0.166 C 
ATOM     13  O   UNL     1       1.282   1.455  24.011  0.00  0.00    -0.350 OA
ATOM     14  C   UNL     1       1.528   0.910  23.442  0.00  0.00    +0.166 C 
ENDROOT
BRANCH  11  15
ATOM     15  N   UNL     1      -0.569   0.515  23.515  0.00  0.00    -0.200 NA
ATOM     16  C   UNL     1      -0.980   0.227  24.170  0.00  0.00    +0.237 A 
ATOM     17  N   UNL     1      -1.757  -0.036  24.087  0.00  0.00    -0.212 NA
ATOM     18  C   UNL     1      -2.168  -0.324  24.741  0.00  0.00    +0.086 A 
ATOM     19  C   UNL     1      -1.801  -0.350  25.480  0.00  0.00    +0.040 A 
ATOM     20  C   UNL     1      -1.023  -0.087  25.563  0.00  0.00    +0.103 A 
ATOM     21  N   UNL     1      -0.613   0.202  24.908  0.00  0.00    -0.211 NA
BRANCH  18  22
ATOM     22  C   UNL     1      -2.945  -0.587  24.658  0.00  0.00    +0.020 A 
ATOM     23  C   UNL     1      -3.571  -0.053  24.729  0.00  0.00    +0.002 A 
ATOM     24  C   UNL     1      -4.348  -0.316  24.646  0.00  0.00    +0.002 A 
ATOM     25  C   UNL     1      -4.500  -1.112  24.492  0.00  0.00    +0.030 A 
ATOM     26  C   UNL     1      -3.875  -1.645  24.420  0.00  0.00    +0.140 A 
ATOM     27  F   UNL     1      -4.027  -2.441  24.266  0.00  0.00    -0.204 F 
ATOM     28  C   UNL     1      -3.097  -1.382  24.504  0.00  0.00    +0.031 A 
ENDBRANCH  18  22
ENDBRANCH  11  15
BRANCH   7   6
ATOM      4  C   UNL     1       3.589   0.366  22.989  0.00  0.00    +0.272 C 
ATOM      5  O   UNL     1       3.438  -0.418  22.779  0.00  0.00    -0.271 OA
ATOM      6  N   UNL     1       2.961   0.887  23.116  0.00  0.00    -0.200 NA
BRANCH   4   3
ATOM      3  C   UNL     1       4.366   0.629  23.073  0.00  0.00    +0.229 C 
BRANCH   3   2
ATOM      1  C   UNL     1       5.677   0.300  23.535  0.00  0.00    +0.175 C 
ATOM      2  O   UNL     1       4.980   0.083  23.153  0.00  0.00    -0.342 OA
ENDBRANCH   3   2
ENDBRANCH   4   3
ENDBRANCH   7   6
TORSDOF 5
ENDMDL
MODEL 3
REMARK VINA RESULT:      -8.2      2.971      4.356
REMARK  Name = 
REMARK  5 active torsions:
REMARK  status: ('A' for Active; 'I' for Inactive)
REMARK    1  A    between atoms: O_2  and  C_3
REMARK    2  A    between atoms: C_3  and  C_4
REMARK    3  A    between atoms: N_6  and  C_7
REMARK    4  A    between atoms: C_11  and  N_15
REMARK    5  A    between atoms: C_18  and  C_22
REMARK                            x       y       z     vdW  Elec       q    Type
REMARK                         _______ _______ _______ _____ _____    ______ ____
ROOT
ATOM      7  C   UNL     1      -0.955   3.061  24.337  0.00  0.00    +0.154 C 
ATOM      8  C   UNL     1      -0.478   2.526  24.745  0.00  0.00    +0.166 C 
ATOM      9  O   UNL     1      -0.775   1.768  24.612  0.00  0.00    -0.350 OA
ATOM     10  C   UNL     1      -1.434   1.834  24.122  0.00  0.00    +0.166 C 
ATOM     11  C   UNL     1      -2.025   1.408  23.736  0.00  0.00    +0.154 C 
ATOM     12  C   UNL     1      -2.502   1.943  23.328  0.00  0.00    +0.166 C 
ATOM     13  O   UNL     1      -2.205   2.701  23.461  0.00  0.00    -0.350 OA
ATOM     14  C   UNL     1      -1.545   2.634  23.952  0.00  0.00    +0.166 C 
ENDROOT
BRANCH  11  15
ATOM     15  N   UNL     1      -2.123   0.588  23.756  0.00  0.00    -0.200 NA
ATOM     16  C   UNL     1      -2.803   0.261  24.090  0.00  0.00    +0.237 A 
ATOM     17  N   UNL     1      -2.900  -0.557  24.110  0.00  0.00    -0.212 NA
ATOM     18  C   UNL     1      -3.580  -0.884  24.444  0.00  0.00    +0.086 A 
ATOM     19  C   UNL     1      -4.162  -0.392  24.759  0.00  0.00    +0.040 A 
ATOM     20  C   UNL     1      -4.065   0.427  24.740  0.00  0.00    +0.103 A 
ATOM     21  N   UNL     1      -3.385   0.754  24.405  0.00  0.00    -0.211 NA
BRANCH  18  22
ATOM     22  C   UNL     1      -3.677  -1.703  24.464  0.00  0.00    +0.020 A 
ATOM     23  C   UNL     1      -3.307  -2.149  25.053  0.00  0.00    +0.002 A 
ATOM     24  C   UNL     1      -3.404  -2.967  25.072  0.00  0.00    +0.002 A 
ATOM     25  C   UNL     1      -3.872  -3.341  24.505  0.00  0.00    +0.030 A 
ATOM     26  C   UNL     1      -4.242  -2.896  23.917  0.00  0.00    +0.140 A 
ATOM     27  F   UNL     1      -4.709  -3.269  23.349  0.00  0.00    -0.204 F 
ATOM     28  C   UNL     1      -4.144  -2.077  23.897  0.00  0.00    +0.031 A 
ENDBRANCH  18  22
ENDBRANCH  11  15
BRANCH   7   6
ATOM      4  C   UNL     1      -0.934   4.322  25.010  0.00  0.00    +0.272 C 
ATOM      5  O   UNL     1      -1.108   3.943  25.723  0.00  0.00    -0.271 OA
ATOM      6  N   UNL     1      -0.857   3.881  24.317  0.00  0.00    -0.200 NA
BRANCH   4   3
ATOM      3  C   UNL     1      -0.836   5.141  24.991  0.00  0.00    +0.229 C 
BRANCH   3   2
ATOM      1  C   UNL     1      -1.618   6.333  24.901  0.00  0.00    +0.175 C 
ATOM      2  O   UNL     1      -1.425   5.634  25.292  0.00  0.00    -0.342 OA
ENDBRANCH   3   2
ENDBRANCH   4   3
ENDBRANCH   7   6
TORSDOF 5
ENDMDL
MODEL 4
REMARK VINA RESULT:      -7.3      2.649      6.693
REMARK  Name = 
REMARK  5 active torsions:
REMARK  status: ('A' for Active; 'I' for Inactive)
REMARK    1  A    between atoms: O_2  and  C_3
REMARK    2  A    between atoms: C_3  and  C_4
REMARK    3  A    between atoms: N_6  and  C_7
REMARK    4  A    between atoms: C_11  and  N_15
REMARK    5  A    between atoms: C_18  and  C_22
REMARK                            x       y       z     vdW  Elec       q    Type
REMARK                         _______ _______ _______ _____ _____    ______ ____
ROOT
ATOM      7  C   UNL     1      -2.106   1.807  23.960  0.00  0.00    +0.154 C 
ATOM      8  C   UNL     1      -1.692   2.520  23.951  0.00  0.00    +0.166 C 
ATOM      9  O   UNL     1      -0.886   2.345  23.968  0.00  0.00    -0.350 OA
ATOM     10  C   UNL     1      -0.802   1.526  23.988  0.00  0.00    +0.166 C 
ATOM     11  C   UNL     1      -0.253   0.910  24.011  0.00  0.00    +0.154 C 
ATOM     12  C   UNL     1      -0.668   0.197  24.020  0.00  0.00    +0.166 C 
ATOM     13  O   UNL     1      -1.474   0.372  24.002  0.00  0.00    -0.350 OA
ATOM     14  C   UNL     1      -1.557   1.193  23.983  0.00  0.00    +0.166 C 
ENDROOT
BRANCH  11  15
ATOM     15  N   UNL     1       0.568   0.994  24.023  0.00  0.00    -0.200 NA
ATOM     16  C   UNL     1       1.032   0.590  23.473  0.00  0.00    +0.237 A 
ATOM     17  N   UNL     1       1.852   0.674  23.485  0.00  0.00    -0.212 NA
ATOM     18  C   UNL     1       2.316   0.270  22.935  0.00  0.00    +0.086 A 
ATOM     19  C   UNL     1       1.960  -0.217  22.373  0.00  0.00    +0.040 A 
ATOM     20  C   UNL     1       1.139  -0.300  22.361  0.00  0.00    +0.103 A 
ATOM     21  N   UNL     1       0.675   0.103  22.911  0.00  0.00    -0.211 NA
BRANCH  18  22
ATOM     22  C   UNL     1       3.137   0.353  22.947  0.00  0.00    +0.020 A 
ATOM     23  C   UNL     1       3.488   1.026  22.620  0.00  0.00    +0.002 A 
ATOM     24  C   UNL     1       4.308   1.109  22.632  0.00  0.00    +0.002 A 
ATOM     25  C   UNL     1       4.778   0.521  22.970  0.00  0.00    +0.030 A 
ATOM     26  C   UNL     1       4.427  -0.150  23.296  0.00  0.00    +0.140 A 
ATOM     27  F   UNL     1       4.897  -0.738  23.634  0.00  0.00    -0.204 F 
ATOM     28  C   UNL     1       3.606  -0.234  23.284  0.00  0.00    +0.031 A 
ENDBRANCH  18  22
ENDBRANCH  11  15
BRANCH   7   6
ATOM      4  C   UNL     1      -3.403   2.255  24.364  0.00  0.00    +0.272 C 
ATOM      5  O   UNL     1      -3.056   2.869  24.792  0.00  0.00    -0.271 OA
ATOM      6  N   UNL     1      -2.927   1.724  23.948  0.00  0.00    -0.200 NA
BRANCH   4   3
ATOM      3  C   UNL     1      -4.223   2.171  24.352  0.00  0.00    +0.229 C 
BRANCH   3   2
ATOM      1  C   UNL     1      -5.476   2.219  25.036  0.00  0.00    +0.175 C 
ATOM      2  O   UNL     1      -4.669   2.386  25.011  0.00  0.00    -0.342 OA
ENDBRANCH   3   2
ENDBRANCH   4   3
ENDBRANCH   7   6
TORSDOF 5
ENDMDL
