MODEL 1
REMARK VINA RESULT:     -12.4      0.000      0.000
REMARK  Name = 
REMARK  7 active torsions:
REMARK  status: ('A' for Active; 'I' for Inactive)
REMARK    1  A    between atoms: C_2  and  C_3
REMARK    2  A    between atoms: C_2  and  C_24
REMARK    3  A    between atoms: C_10  and  N_11
REMARK    4  A    between atoms: C_12  and  C_14
REMARK    5  A    between atoms: C_14  and  C_15
REMARK    6  A    between atoms: N_26  and  C_27
REMARK    7  A    between atoms: C_27  and  C_28
REMARK                            x       y       z     vdW  Elec       q    Type
REMARK                         _______ _______ _______ _____ _____    ______ ____
ROOT
ATOM      3  C   UNL     1      -4.390   2.864  24.744  0.00  0.00    +0.039 C 
ATOM      4  C   UNL     1      -5.011   2.756  25.275  0.00  0.00    +0.003 C 
ATOM      5  C   UNL     1      -5.289   1.997  25.437  0.00  0.00    +0.000 C 
ATOM      6  C   UNL     1      -4.944   1.344  25.067  0.00  0.00    +0.002 C 
ATOM      7  C   UNL     1      -5.566   1.236  25.599  0.00  0.00    +0.000 C 
ATOM      8  C   UNL     1      -5.222   0.584  25.230  0.00  0.00    +0.002 C 
ATOM      9  C   UNL     1      -4.878  -0.068  24.860  0.00  0.00    +0.022 C 
ATOM     10  C   UNL     1      -4.256   0.039  24.328  0.00  0.00    +0.095 C 
ATOM     19  C   UNL     1      -3.979   0.799  24.166  0.00  0.00    +0.022 C 
ATOM     20  C   UNL     1      -3.357   0.906  23.634  0.00  0.00    +0.002 C 
ATOM     21  C   UNL     1      -4.323   1.452  24.536  0.00  0.00    +0.032 C 
ATOM     22  C   UNL     1      -4.046   2.211  24.374  0.00  0.00    +0.152 C 
ATOM     23  O   UNL     1      -3.424   2.319  23.842  0.00  0.00    -0.223 OA
ENDROOT
BRANCH  10  11
ATOM     11  N   UNL     1      -3.912  -0.612  23.958  0.00  0.00    -0.207 NA
ATOM     12  C   UNL     1      -3.736  -1.290  24.396  0.00  0.00    +0.241 C 
ATOM     13  O   UNL     1      -3.904  -1.314  25.204  0.00  0.00    -0.273 OA
BRANCH  12  14
ATOM     14  C   UNL     1      -3.392  -1.942  24.026  0.00  0.00    +0.087 C 
BRANCH  14  15
ATOM     15  C   UNL     1      -3.297  -2.649  24.442  0.00  0.00    +0.009 C 
ATOM     16  C   UNL     1      -3.200  -3.354  24.858  0.00  0.00    +0.000 C 
ATOM     17  C   UNL     1      -4.034  -2.905  24.175  0.00  0.00    +0.000 C 
ATOM     18  C   UNL     1      -2.559  -2.392  24.708  0.00  0.00    +0.000 C 
ENDBRANCH  14  15
ENDBRANCH  12  14
ENDBRANCH  10  11
BRANCH   3   2
ATOM      1  C   UNL     1      -4.342   4.007  23.888  0.00  0.00    +0.010 C 
ATOM      2  C   UNL     1      -4.113   3.624  24.582  0.00  0.00    +0.081 C 
BRANCH   2  24
ATOM     24  C   UNL     1      -3.606   4.000  25.112  0.00  0.00    +0.241 C 
ATOM     25  O   UNL     1      -3.879   4.215  25.862  0.00  0.00    -0.273 OA
ATOM     26  N   UNL     1      -2.827   4.163  24.894  0.00  0.00    -0.197 NA
BRANCH  26  27
ATOM     27  C   UNL     1      -2.320   4.540  25.425  0.00  0.00    +0.179 C 
BRANCH  27  28
ATOM     28  C   UNL     1      -1.554   4.740  25.193  0.00  0.00    +0.145 A 
ATOM     29  C   UNL     1      -0.920   4.218  25.113  0.00  0.00    +0.038 A 
ATOM     30  C   UNL     1      -0.262   4.653  24.872  0.00  0.00    +0.043 A 
ATOM     31  C   UNL     1      -0.489   5.443  24.803  0.00  0.00    +0.179 A 
ATOM     32  O   UNL     1      -1.288   5.496  25.002  0.00  0.00    -0.453 OA
ENDBRANCH  27  28
ENDBRANCH  26  27
ENDBRANCH   2  24
ENDBRANCH   3   2
TORSDOF 7
ENDMDL
MODEL 2
REMARK VINA RESULT:     -11.2      2.152      3.522
REMARK  Name = 
REMARK  7 active torsions:
REMARK  status: ('A' for Active; 'I' for Inactive)
REMARK    1  A    between atoms: C_2  and  C_3
REMARK    2  A    between atoms: C_2  and  C_24
REMARK    3  A    between atoms: C_10  and  N_11
REMARK    4  A    between atoms: C_12  and  C_14
REMARK    5  A    between atoms: C_14  and  C_15
REMARK    6  A    between atoms: N_26  and  C_27
REMARK    7  A    between atoms: C_27  and  C_28
REMARK                            x       y       z     vdW  Elec       q    Type
REMARK                         _______ _______ _______ _____ _____    ______ ____
ROOT
ATOM      3  C   UNL     1      -0.290   1.941  25.189  0.00  0.00    +0.039 C 
ATOM      4  C   UNL     1       0.112   1.938  24.469  0.00  0.00    +0.003 C 
ATOM      5  C   UNL     1       0.137   1.252  24.013  0.00  0.00    +0.000 C 
ATOM      6  C   UNL     1      -0.240   0.566  24.278  0.00  0.00    +0.002 C 
ATOM      7  C   UNL     1       0.162   0.564  23.557  0.00  0.00    +0.000 C 
ATOM      8  C   UNL     1      -0.215  -0.120  23.821  0.00  0.00    +0.002 C 
ATOM      9  C   UNL     1      -0.591  -0.805  24.085  0.00  0.00    +0.022 C 
ATOM     10  C   UNL     1      -0.994  -0.803  24.806  0.00  0.00    +0.095 C 
ATOM     19  C   UNL     1      -1.019  -0.116  25.262  0.00  0.00    +0.022 C 
ATOM     20  C   UNL     1      -1.421  -0.114  25.982  0.00  0.00    +0.002 C 
ATOM     21  C   UNL     1      -0.642   0.569  24.998  0.00  0.00    +0.032 C 
ATOM     22  C   UNL     1      -0.667   1.255  25.454  0.00  0.00    +0.152 C 
ATOM     23  O   UNL     1      -1.069   1.258  26.174  0.00  0.00    -0.223 OA
ENDROOT
BRANCH  10  11
ATOM     11  N   UNL     1      -1.370  -1.487  25.070  0.00  0.00    -0.207 NA
ATOM     12  C   UNL     1      -2.019  -1.787  24.657  0.00  0.00    +0.241 C 
ATOM     13  O   UNL     1      -2.291  -1.401  23.979  0.00  0.00    -0.273 OA
BRANCH  12  14
ATOM     14  C   UNL     1      -2.396  -2.471  24.921  0.00  0.00    +0.087 C 
BRANCH  14  15
ATOM     15  C   UNL     1      -3.123  -2.692  24.599  0.00  0.00    +0.009 C 
ATOM     16  C   UNL     1      -3.849  -2.913  24.275  0.00  0.00    +0.000 C 
ATOM     17  C   UNL     1      -3.514  -2.278  25.195  0.00  0.00    +0.000 C 
ATOM     18  C   UNL     1      -2.732  -3.106  24.001  0.00  0.00    +0.000 C 
ENDBRANCH  14  15
ENDBRANCH  12  14
ENDBRANCH  10  11
BRANCH   3   2
ATOM      1  C   UNL     1       0.111   2.669  26.351  0.00  0.00    +0.010 C 
ATOM      2  C   UNL     1      -0.315   2.627  25.646  0.00  0.00    +0.081 C 
BRANCH   2  24
ATOM     24  C   UNL     1      -0.766   3.271  25.398  0.00  0.00    +0.241 C 
ATOM     25  O   UNL     1      -0.416   3.874  24.954  0.00  0.00    -0.273 OA
ATOM     26  N   UNL     1      -1.567   3.315  25.594  0.00  0.00    -0.197 NA
BRANCH  26  27
ATOM     27  C   UNL     1      -2.017   3.960  25.346  0.00  0.00    +0.179 C 
BRANCH  27  28
ATOM     28  C   UNL     1      -2.841   3.922  25.371  0.00  0.00    +0.145 A 
ATOM     29  C   UNL     1      -3.343   3.850  24.721  0.00  0.00    +0.038 A 
ATOM     30  C   UNL     1      -4.120   3.833  24.999  0.00  0.00    +0.043 A 
ATOM     31  C   UNL     1      -4.097   3.893  25.822  0.00  0.00    +0.179 A 
ATOM     32  O   UNL     1      -3.307   3.948  26.051  0.00  0.00    -0.453 OA
ENDBRANCH  27  28
ENDBRANCH  26  27
ENDBRANCH   2  24
ENDBRANCH   3   2
TORSDOF 7
ENDMDL
MODEL 3
REMARK VINA RESULT:     -10.7      1.117      5.089
REMARK  Name = 
REMARK  7 active torsions:
REMARK  status: ('A' for Active; 'I' for Inactive)
REMARK    1  A    between atoms: C_2  and  C_3
REMARK    2  A    between atoms: C_2  and  C_24
REMARK    3  A    between atoms: C_10  and  N_11
REMARK    4  A    between atoms: C_12  and  C_14
REMARK    5  A    between atoms: C_14  and  C_15
REMARK    6  A    between atoms: N_26  and  C_27
REMARK    7  A    between atoms: C_27  and  C_28
REMARK                            x       y       z     vdW  Elec       q    Type
REMARK                         _______ _______ _______ _____ _____    ______ ____
ROOT
ATOM      3  C   UNL     1      -4.206   0.081  24.449  0.00  0.00    +0.039 C 
ATOM      4  C   UNL     1      -4.822   0.230  24.977  0.00  0.00    +0.003 C 
ATOM      5  C   UNL     1      -4.965   0.999  25.236  0.00  0.00    +0.000 C 
ATOM      6  C   UNL     1      -4.493   1.621  24.967  0.00  0.00    +0.002 C 
ATOM      7  C   UNL     1      -5.109   1.770  25.496  0.00  0.00    +0.000 C 
ATOM      8  C   UNL     1      -4.637   2.391  25.227  0.00  0.00    +0.002 C 
ATOM      9  C   UNL     1      -4.165   3.012  24.958  0.00  0.00    +0.022 C 
ATOM     10  C   UNL     1      -3.549   2.863  24.430  0.00  0.00    +0.095 C 
ATOM     19  C   UNL     1      -3.406   2.093  24.170  0.00  0.00    +0.022 C 
ATOM     20  C   UNL     1      -2.790   1.945  23.642  0.00  0.00    +0.002 C 
ATOM     21  C   UNL     1      -3.878   1.472  24.439  0.00  0.00    +0.032 C 
ATOM     22  C   UNL     1      -3.734   0.703  24.180  0.00  0.00    +0.152 C 
ATOM     23  O   UNL     1      -3.118   0.554  23.651  0.00  0.00    -0.223 OA
ENDROOT
BRANCH  10  11
ATOM     11  N   UNL     1      -3.078   3.483  24.161  0.00  0.00    -0.207 NA
ATOM     12  C   UNL     1      -2.631   3.925  24.697  0.00  0.00    +0.241 C 
ATOM     13  O   UNL     1      -2.657   3.744  25.503  0.00  0.00    -0.273 OA
BRANCH  12  14
ATOM     14  C   UNL     1      -2.159   4.545  24.428  0.00  0.00    +0.087 C 
BRANCH  14  15
ATOM     15  C   UNL     1      -1.522   4.806  24.884  0.00  0.00    +0.009 C 
ATOM     16  C   UNL     1      -0.885   5.066  25.339  0.00  0.00    +0.000 C 
ATOM     17  C   UNL     1      -1.023   4.283  24.485  0.00  0.00    +0.000 C 
ATOM     18  C   UNL     1      -2.021   5.329  25.282  0.00  0.00    +0.000 C 
ENDBRANCH  14  15
ENDBRANCH  12  14
ENDBRANCH  10  11
BRANCH   3   2
ATOM      1  C   UNL     1      -4.316  -0.925  23.441  0.00  0.00    +0.010 C 
ATOM      2  C   UNL     1      -4.062  -0.688  24.189  0.00  0.00    +0.081 C 
BRANCH   2  24
ATOM     24  C   UNL     1      -3.664  -1.221  24.677  0.00  0.00    +0.241 C 
ATOM     25  O   UNL     1      -4.071  -1.613  25.279  0.00  0.00    -0.273 OA
ATOM     26  N   UNL     1      -2.859  -1.363  24.564  0.00  0.00    -0.197 NA
BRANCH  26  27
ATOM     27  C   UNL     1      -2.461  -1.896  25.051  0.00  0.00    +0.179 C 
BRANCH  27  28
ATOM     28  C   UNL     1      -1.638  -1.875  25.101  0.00  0.00    +0.145 A 
ATOM     29  C   UNL     1      -1.114  -2.346  24.671  0.00  0.00    +0.038 A 
ATOM     30  C   UNL     1      -0.347  -2.141  24.894  0.00  0.00    +0.043 A 
ATOM     31  C   UNL     1      -0.396  -1.544  25.462  0.00  0.00    +0.179 A 
ATOM     32  O   UNL     1      -1.195  -1.380  25.589  0.00  0.00    -0.453 OA
ENDBRANCH  27  28
ENDBRANCH  26  27
ENDBRANCH   2  24
ENDBRANCH   3   2
TORSDOF 7
ENDMDL
MODEL 4
REMARK VINA RESULT:     -10.7      2.278      6.286
REMARK  Name = 
REMARK  7 active torsions:
REMARK  status: ('A' for Active; 'I' for Inactive)
REMARK    1  A    between atoms: C_2  and  C_3
REMARK    2  A    between atoms: C_2  and  C_24
REMARK    3  A    between atoms: C_10  and  N_11
REMARK    4  A    between atoms: C_12  and  C_14
REMARK    5  A    between atoms: C_14  and  C_15
REMARK    6  A    between atoms: N_26  and  C_27
REMARK    7  A    between atoms: C_27  and  C_28
REMARK                            x       y       z     vdW  Elec       q    Type
REMARK                         _______ _______ _______ _____ _____    ______ ____
ROOT
ATOM      3  C   UNL     1      -0.561  -0.739  24.768  0.00  0.00    +0.039 C 
ATOM      4  C   UNL     1      -0.194  -0.705  24.031  0.00  0.00    +0.003 C 
ATOM      5  C   UNL     1       0.045   0.020  23.722  0.00  0.00    +0.000 C 
ATOM      6  C   UNL     1      -0.083   0.715  24.151  0.00  0.00    +0.002 C 
ATOM      7  C   UNL     1       0.284   0.748  23.412  0.00  0.00    +0.000 C 
ATOM      8  C   UNL     1       0.156   1.441  23.841  0.00  0.00    +0.002 C 
ATOM      9  C   UNL     1       0.028   2.134  24.269  0.00  0.00    +0.022 C 
ATOM     10  C   UNL     1      -0.339   2.101  25.008  0.00  0.00    +0.095 C 
ATOM     19  C   UNL     1      -0.578   1.374  25.317  0.00  0.00    +0.022 C 
ATOM     20  C   UNL     1      -0.945   1.342  26.055  0.00  0.00    +0.002 C 
ATOM     21  C   UNL     1      -0.450   0.681  24.888  0.00  0.00    +0.032 C 
ATOM     22  C   UNL     1      -0.689  -0.045  25.197  0.00  0.00    +0.152 C 
ATOM     23  O   UNL     1      -1.057  -0.079  25.935  0.00  0.00    -0.223 OA
ENDROOT
BRANCH  10  11
ATOM     11  N   UNL     1      -0.467   2.793  25.436  0.00  0.00    -0.207 NA
ATOM     12  C   UNL     1      -0.864   3.428  25.086  0.00  0.00    +0.241 C 
ATOM     13  O   UNL     1      -1.132   3.368  24.308  0.00  0.00    -0.273 OA
BRANCH  12  14
ATOM     14  C   UNL     1      -0.992   4.121  25.515  0.00  0.00    +0.087 C 
BRANCH  14  15
ATOM     15  C   UNL     1      -1.407   4.746  25.173  0.00  0.00    +0.009 C 
ATOM     16  C   UNL     1      -1.822   5.372  24.830  0.00  0.00    +0.000 C 
ATOM     17  C   UNL     1      -2.106   4.469  25.512  0.00  0.00    +0.000 C 
ATOM     18  C   UNL     1      -0.708   5.024  24.833  0.00  0.00    +0.000 C 
ENDBRANCH  14  15
ENDBRANCH  12  14
ENDBRANCH  10  11
BRANCH   3   2
ATOM      1  C   UNL     1      -0.517  -1.713  25.812  0.00  0.00    +0.010 C 
ATOM      2  C   UNL     1      -0.800  -1.465  25.078  0.00  0.00    +0.081 C 
BRANCH   2  24
ATOM     24  C   UNL     1      -1.323  -1.942  24.656  0.00  0.00    +0.241 C 
ATOM     25  O   UNL     1      -1.031  -2.513  24.134  0.00  0.00    -0.273 OA
ATOM     26  N   UNL     1      -2.137  -1.851  24.753  0.00  0.00    -0.197 NA
BRANCH  26  27
ATOM     27  C   UNL     1      -2.659  -2.329  24.330  0.00  0.00    +0.179 C 
BRANCH  27  28
ATOM     28  C   UNL     1      -3.432  -2.074  24.191  0.00  0.00    +0.145 A 
ATOM     29  C   UNL     1      -4.032  -2.516  23.838  0.00  0.00    +0.038 A 
ATOM     30  C   UNL     1      -4.710  -2.048  23.810  0.00  0.00    +0.043 A 
ATOM     31  C   UNL     1      -4.530  -1.316  24.147  0.00  0.00    +0.179 A 
ATOM     32  O   UNL     1      -3.739  -1.333  24.382  0.00  0.00    -0.453 OA
ENDBRANCH  27  28
ENDBRANCH  26  27
ENDBRANCH   2  24
ENDBRANCH   3   2
TORSDOF 7
ENDMDL
MODEL 5
REMARK VINA RESULT:     -10.3      2.012      5.562
REMARK  Name = 
REMARK  7 active torsions:
REMARK  status: ('A' for Active; 'I' for Inactive)
REMARK    1  A    between atoms: C_2  and  C_3
REMARK    2  A    between atoms: C_2  and  C_24
REMARK    3  A    between atoms: C_10  and  N_11
REMARK    4  A    between atoms: C_12  and  C_14
REMARK    5  A    between atoms: C_14  and  C_15
REMARK    6  A    between atoms: N_26  and  C_27
REMARK    7  A    between atoms: C_27  and  C_28
REMARK                            x       y       z     vdW  Elec       q    Type
REMARK                         _______ _______ _______ _____ _____    ______ ____
ROOT
ATOM      3  C   UNL     1      -0.659   0.647  24.523  0.00  0.00    +0.039 C 
ATOM      4  C   UNL     1      -0.212   0.933  25.153  0.00  0.00    +0.003 C 
ATOM      5  C   UNL     1      -0.439   1.625  25.539  0.00  0.00    +0.000 C 
ATOM      6  C   UNL     1      -1.114   2.032  25.294  0.00  0.00    +0.002 C 
ATOM      7  C   UNL     1      -0.666   2.319  25.925  0.00  0.00    +0.000 C 
ATOM      8  C   UNL     1      -1.341   2.725  25.680  0.00  0.00    +0.002 C 
ATOM      9  C   UNL     1      -2.016   3.132  25.435  0.00  0.00    +0.022 C 
ATOM     10  C   UNL     1      -2.464   2.846  24.803  0.00  0.00    +0.095 C 
ATOM     19  C   UNL     1      -2.236   2.153  24.418  0.00  0.00    +0.022 C 
ATOM     20  C   UNL     1      -2.684   1.867  23.787  0.00  0.00    +0.002 C 
ATOM     21  C   UNL     1      -1.561   1.746  24.663  0.00  0.00    +0.032 C 
ATOM     22  C   UNL     1      -1.334   1.054  24.277  0.00  0.00    +0.152 C 
ATOM     23  O   UNL     1      -1.782   0.767  23.646  0.00  0.00    -0.223 OA
ENDROOT
BRANCH  10  11
ATOM     11  N   UNL     1      -3.138   3.252  24.558  0.00  0.00    -0.207 NA
ATOM     12  C   UNL     1      -3.770   3.355  25.079  0.00  0.00    +0.241 C 
ATOM     13  O   UNL     1      -3.726   3.051  25.846  0.00  0.00    -0.273 OA
BRANCH  12  14
ATOM     14  C   UNL     1      -4.444   3.761  24.834  0.00  0.00    +0.087 C 
BRANCH  14  15
ATOM     15  C   UNL     1      -5.138   3.715  25.279  0.00  0.00    +0.009 C 
ATOM     16  C   UNL     1      -5.831   3.668  25.724  0.00  0.00    +0.000 C 
ATOM     17  C   UNL     1      -4.944   4.423  25.656  0.00  0.00    +0.000 C 
ATOM     18  C   UNL     1      -5.332   3.007  24.903  0.00  0.00    +0.000 C 
ENDBRANCH  14  15
ENDBRANCH  12  14
ENDBRANCH  10  11
BRANCH   3   2
ATOM      1  C   UNL     1      -0.066  -0.005  23.398  0.00  0.00    +0.010 C 
ATOM      2  C   UNL     1      -0.432  -0.046  24.136  0.00  0.00    +0.081 C 
BRANCH   2  24
ATOM     24  C   UNL     1      -0.571  -0.779  24.487  0.00  0.00    +0.241 C 
ATOM     25  O   UNL     1       0.015  -1.134  24.947  0.00  0.00    -0.273 OA
ATOM     26  N   UNL     1      -1.296  -1.158  24.378  0.00  0.00    -0.197 NA
BRANCH  26  27
ATOM     27  C   UNL     1      -1.435  -1.891  24.729  0.00  0.00    +0.179 C 
BRANCH  27  28
ATOM     28  C   UNL     1      -2.186  -2.232  24.690  0.00  0.00    +0.145 A 
ATOM     29  C   UNL     1      -2.797  -2.121  25.231  0.00  0.00    +0.038 A 
ATOM     30  C   UNL     1      -3.445  -2.564  24.978  0.00  0.00    +0.043 A 
ATOM     31  C   UNL     1      -3.234  -2.950  24.280  0.00  0.00    +0.179 A 
ATOM     32  O   UNL     1      -2.455  -2.744  24.102  0.00  0.00    -0.453 OA
ENDBRANCH  27  28
ENDBRANCH  26  27
ENDBRANCH   2  24
ENDBRANCH   3   2
TORSDOF 7
ENDMDL
MODEL 6
REMARK VINA RESULT:     -10.3      3.551      5.306
REMARK  Name = 
REMARK  7 active torsions:
REMARK  status: ('A' for Active; 'I' for Inactive)
REMARK    1  A    between atoms: C_2  and  C_3
REMARK    2  A    between atoms: C_2  and  C_24
REMARK    3  A    between atoms: C_10  and  N_11
REMARK    4  A    between atoms: C_12  and  C_14
REMARK    5  A    between atoms: C_14  and  C_15
REMARK    6  A    between atoms: N_26  and  C_27
REMARK    7  A    between atoms: C_27  and  C_28
REMARK                            x       y       z     vdW  Elec       q    Type
REMARK                         _______ _______ _______ _____ _____    ______ ____
ROOT
ATOM      3  C   UNL     1      -0.146   0.813  23.956  0.00  0.00    +0.039 C 
ATOM      4  C   UNL     1       0.270   1.468  24.234  0.00  0.00    +0.003 C 
ATOM      5  C   UNL     1      -0.133   2.160  24.430  0.00  0.00    +0.000 C 
ATOM      6  C   UNL     1      -0.954   2.196  24.349  0.00  0.00    +0.002 C 
ATOM      7  C   UNL     1      -0.538   2.852  24.627  0.00  0.00    +0.000 C 
ATOM      8  C   UNL     1      -1.358   2.889  24.546  0.00  0.00    +0.002 C 
ATOM      9  C   UNL     1      -2.178   2.925  24.464  0.00  0.00    +0.022 C 
ATOM     10  C   UNL     1      -2.595   2.269  24.186  0.00  0.00    +0.095 C 
ATOM     19  C   UNL     1      -2.191   1.577  23.989  0.00  0.00    +0.022 C 
ATOM     20  C   UNL     1      -2.608   0.922  23.712  0.00  0.00    +0.002 C 
ATOM     21  C   UNL     1      -1.370   1.541  24.071  0.00  0.00    +0.032 C 
ATOM     22  C   UNL     1      -0.967   0.849  23.874  0.00  0.00    +0.152 C 
ATOM     23  O   UNL     1      -1.383   0.193  23.596  0.00  0.00    -0.223 OA
ENDROOT
BRANCH  10  11
ATOM     11  N   UNL     1      -3.414   2.305  24.105  0.00  0.00    -0.207 NA
ATOM     12  C   UNL     1      -3.877   2.601  24.721  0.00  0.00    +0.241 C 
ATOM     13  O   UNL     1      -3.520   2.860  25.419  0.00  0.00    -0.273 OA
BRANCH  12  14
ATOM     14  C   UNL     1      -4.698   2.637  24.639  0.00  0.00    +0.087 C 
BRANCH  14  15
ATOM     15  C   UNL     1      -5.174   2.734  25.306  0.00  0.00    +0.009 C 
ATOM     16  C   UNL     1      -5.650   2.829  25.973  0.00  0.00    +0.000 C 
ATOM     17  C   UNL     1      -5.045   3.548  25.281  0.00  0.00    +0.000 C 
ATOM     18  C   UNL     1      -5.303   1.919  25.332  0.00  0.00    +0.000 C 
ENDBRANCH  14  15
ENDBRANCH  12  14
ENDBRANCH  10  11
BRANCH   3   2
ATOM      1  C   UNL     1       0.137  -0.566  24.201  0.00  0.00    +0.010 C 
ATOM      2  C   UNL     1       0.257   0.120  23.759  0.00  0.00    +0.081 C 
BRANCH   2  24
ATOM     24  C   UNL     1       0.780   0.114  23.122  0.00  0.00    +0.241 C 
ATOM     25  O   UNL     1       0.489   0.062  22.350  0.00  0.00    -0.273 OA
ATOM     26  N   UNL     1       1.593   0.159  23.253  0.00  0.00    -0.197 NA
BRANCH  26  27
ATOM     27  C   UNL     1       2.116   0.152  22.616  0.00  0.00    +0.179 C 
BRANCH  27  28
ATOM     28  C   UNL     1       2.927   0.233  22.746  0.00  0.00    +0.145 A 
ATOM     29  C   UNL     1       3.372   0.916  22.624  0.00  0.00    +0.038 A 
ATOM     30  C   UNL     1       4.155   0.749  22.823  0.00  0.00    +0.043 A 
ATOM     31  C   UNL     1       4.194  -0.039  23.067  0.00  0.00    +0.179 A 
ATOM     32  O   UNL     1       3.434  -0.357  23.019  0.00  0.00    -0.453 OA
ENDBRANCH  27  28
ENDBRANCH  26  27
ENDBRANCH   2  24
ENDBRANCH   3   2
TORSDOF 7
ENDMDL
MODEL 7
REMARK VINA RESULT:     -10.2      1.885      3.576
REMARK  Name = 
REMARK  7 active torsions:
REMARK  status: ('A' for Active; 'I' for Inactive)
REMARK    1  A    between atoms: C_2  and  C_3
REMARK    2  A    between atoms: C_2  and  C_24
REMARK    3  A    between atoms: C_10  and  N_11
REMARK    4  A    between atoms: C_12  and  C_14
REMARK    5  A    between atoms: C_14  and  C_15
REMARK    6  A    between atoms: N_26  and  C_27
REMARK    7  A    between atoms: C_27  and  C_28
REMARK                            x       y       z     vdW  Elec       q    Type
REMARK                         _______ _______ _______ _____ _____    ______ ____
ROOT
ATOM      3  C   UNL     1      -2.250   3.397  25.170  0.00  0.00    +0.039 C 
ATOM      4  C   UNL     1      -1.742   3.609  25.783  0.00  0.00    +0.003 C 
ATOM      5  C   UNL     1      -1.122   3.110  25.997  0.00  0.00    +0.000 C 
ATOM      6  C   UNL     1      -1.010   2.396  25.597  0.00  0.00    +0.002 C 
ATOM      7  C   UNL     1      -0.501   2.610  26.211  0.00  0.00    +0.000 C 
ATOM      8  C   UNL     1      -0.389   1.897  25.812  0.00  0.00    +0.002 C 
ATOM      9  C   UNL     1      -0.277   1.184  25.412  0.00  0.00    +0.022 C 
ATOM     10  C   UNL     1      -0.786   0.971  24.797  0.00  0.00    +0.095 C 
ATOM     19  C   UNL     1      -1.406   1.471  24.584  0.00  0.00    +0.022 C 
ATOM     20  C   UNL     1      -1.914   1.257  23.970  0.00  0.00    +0.002 C 
ATOM     21  C   UNL     1      -1.518   2.184  24.984  0.00  0.00    +0.032 C 
ATOM     22  C   UNL     1      -2.138   2.683  24.770  0.00  0.00    +0.152 C 
ATOM     23  O   UNL     1      -2.647   2.470  24.156  0.00  0.00    -0.223 OA
ENDROOT
BRANCH  10  11
ATOM     11  N   UNL     1      -0.674   0.259  24.398  0.00  0.00    -0.207 NA
ATOM     12  C   UNL     1      -0.752  -0.458  24.801  0.00  0.00    +0.241 C 
ATOM     13  O   UNL     1      -0.943  -0.460  25.604  0.00  0.00    -0.273 OA
BRANCH  12  14
ATOM     14  C   UNL     1      -0.640  -1.171  24.401  0.00  0.00    +0.087 C 
BRANCH  14  15
ATOM     15  C   UNL     1      -0.925  -1.874  24.726  0.00  0.00    +0.009 C 
ATOM     16  C   UNL     1      -1.208  -2.577  25.051  0.00  0.00    +0.000 C 
ATOM     17  C   UNL     1      -1.596  -1.822  24.251  0.00  0.00    +0.000 C 
ATOM     18  C   UNL     1      -0.252  -1.926  25.201  0.00  0.00    +0.000 C 
ENDBRANCH  14  15
ENDBRANCH  12  14
ENDBRANCH  10  11
BRANCH   3   2
ATOM      1  C   UNL     1      -2.799   4.381  24.291  0.00  0.00    +0.010 C 
ATOM      2  C   UNL     1      -2.871   3.896  24.955  0.00  0.00    +0.081 C 
BRANCH   2  24
ATOM     24  C   UNL     1      -3.563   3.911  25.403  0.00  0.00    +0.241 C 
ATOM     25  O   UNL     1      -3.600   4.369  26.090  0.00  0.00    -0.273 OA
ATOM     26  N   UNL     1      -4.218   3.469  25.167  0.00  0.00    -0.197 NA
BRANCH  26  27
ATOM     27  C   UNL     1      -4.910   3.485  25.615  0.00  0.00    +0.179 C 
BRANCH  27  28
ATOM     28  C   UNL     1      -5.456   2.869  25.553  0.00  0.00    +0.145 A 
ATOM     29  C   UNL     1      -5.758   2.424  26.178  0.00  0.00    +0.038 A 
ATOM     30  C   UNL     1      -6.285   1.871  25.866  0.00  0.00    +0.043 A 
ATOM     31  C   UNL     1      -6.308   1.975  25.047  0.00  0.00    +0.179 A 
ATOM     32  O   UNL     1      -5.795   2.592  24.854  0.00  0.00    -0.453 OA
ENDBRANCH  27  28
ENDBRANCH  26  27
ENDBRANCH   2  24
ENDBRANCH   3   2
TORSDOF 7
ENDMDL
MODEL 8
REMARK VINA RESULT:      -9.7      2.699      4.738
REMARK  Name = 
REMARK  7 active torsions:
REMARK  status: ('A' for Active; 'I' for Inactive)
REMARK    1  A    between atoms: C_2  and  C_3
REMARK    2  A    between atoms: C_2  and  C_24
REMARK    3  A    between atoms: C_10  and  N_11
REMARK    4  A    between atoms: C_12  and  C_14
REMARK    5  A    between atoms: C_14  and  C_15
REMARK    6  A    between atoms: N_26  and  C_27
REMARK    7  A    between atoms: C_27  and  C_28
REMARK                            x       y       z     vdW  Elec       q    Type
REMARK                         _______ _______ _______ _____ _____    ______ ____
ROOT
ATOM      3  C   UNL     1      -1.684  -0.951  24.681  0.00  0.00    +0.039 C 
ATOM      4  C   UNL     1      -2.137  -1.640  24.661  0.00  0.00    +0.003 C 
ATOM      5  C   UNL     1      -2.956  -1.592  24.586  0.00  0.00    +0.000 C 
ATOM      6  C   UNL     1      -3.324  -0.854  24.531  0.00  0.00    +0.002 C 
ATOM      7  C   UNL     1      -3.777  -1.544  24.510  0.00  0.00    +0.000 C 
ATOM      8  C   UNL     1      -4.144  -0.807  24.455  0.00  0.00    +0.002 C 
ATOM      9  C   UNL     1      -4.511  -0.070  24.401  0.00  0.00    +0.022 C 
ATOM     10  C   UNL     1      -4.058   0.619  24.421  0.00  0.00    +0.095 C 
ATOM     19  C   UNL     1      -3.238   0.571  24.496  0.00  0.00    +0.022 C 
ATOM     20  C   UNL     1      -2.785   1.260  24.517  0.00  0.00    +0.002 C 
ATOM     21  C   UNL     1      -2.871  -0.166  24.551  0.00  0.00    +0.032 C 
ATOM     22  C   UNL     1      -2.051  -0.214  24.627  0.00  0.00    +0.152 C 
ATOM     23  O   UNL     1      -1.597   0.475  24.647  0.00  0.00    -0.223 OA
ENDROOT
BRANCH  10  11
ATOM     11  N   UNL     1      -4.424   1.355  24.366  0.00  0.00    -0.207 NA
ATOM     12  C   UNL     1      -5.008   1.567  24.910  0.00  0.00    +0.241 C 
ATOM     13  O   UNL     1      -5.225   1.041  25.508  0.00  0.00    -0.273 OA
BRANCH  12  14
ATOM     14  C   UNL     1      -5.375   2.304  24.855  0.00  0.00    +0.087 C 
BRANCH  14  15
ATOM     15  C   UNL     1      -5.763   2.621  25.511  0.00  0.00    +0.009 C 
ATOM     16  C   UNL     1      -6.150   2.938  26.166  0.00  0.00    +0.000 C 
ATOM     17  C   UNL     1      -6.397   2.109  25.384  0.00  0.00    +0.000 C 
ATOM     18  C   UNL     1      -5.129   3.133  25.638  0.00  0.00    +0.000 C 
ENDBRANCH  14  15
ENDBRANCH  12  14
ENDBRANCH  10  11
BRANCH   3   2
ATOM      1  C   UNL     1      -0.514  -0.942  25.502  0.00  0.00    +0.010 C 
ATOM      2  C   UNL     1      -0.863  -0.999  24.757  0.00  0.00    +0.081 C 
BRANCH   2  24
ATOM     24  C   UNL     1      -0.392  -1.102  24.088  0.00  0.00    +0.241 C 
ATOM     25  O   UNL     1      -0.496  -1.767  23.610  0.00  0.00    -0.273 OA
ATOM     26  N   UNL     1       0.182  -0.542  23.896  0.00  0.00    -0.197 NA
BRANCH  26  27
ATOM     27  C   UNL     1       0.653  -0.645  23.228  0.00  0.00    +0.179 C 
BRANCH  27  28
ATOM     28  C   UNL     1       1.291  -0.141  23.089  0.00  0.00    +0.145 A 
ATOM     29  C   UNL     1       1.972  -0.326  22.663  0.00  0.00    +0.038 A 
ATOM     30  C   UNL     1       2.461   0.338  22.664  0.00  0.00    +0.043 A 
ATOM     31  C   UNL     1       2.083   0.934  23.090  0.00  0.00    +0.179 A 
ATOM     32  O   UNL     1       1.359   0.638  23.353  0.00  0.00    -0.453 OA
ENDBRANCH  27  28
ENDBRANCH  26  27
ENDBRANCH   2  24
ENDBRANCH   3   2
TORSDOF 7
ENDMDL
MODEL 9
REMARK VINA RESULT:      -9.4      2.098      4.617
REMARK  Name = 
REMARK  7 active torsions:
REMARK  status: ('A' for Active; 'I' for Inactive)
REMARK    1  A    between atoms: C_2  and  C_3
REMARK    2  A    between atoms: C_2  and  C_24
REMARK    3  A    between atoms: C_10  and  N_11
REMARK    4  A    between atoms: C_12  and  C_14
REMARK    5  A    between atoms: C_14  and  C_15
REMARK    6  A    between atoms: N_26  and  C_27
REMARK    7  A    between atoms: C_27  and  C_28
REMARK                            x       y       z     vdW  Elec       q    Type
REMARK                         _______ _______ _______ _____ _____    ______ ____
ROOT
ATOM      3  C   UNL     1      -0.934   2.893  24.561  0.00  0.00    +0.039 C 
ATOM      4  C   UNL     1      -0.729   3.400  25.178  0.00  0.00    +0.003 C 
ATOM      5  C   UNL     1      -1.317   3.783  25.610  0.00  0.00    +0.000 C 
ATOM      6  C   UNL     1      -2.112   3.660  25.424  0.00  0.00    +0.002 C 
ATOM      7  C   UNL     1      -1.907   4.168  26.041  0.00  0.00    +0.000 C 
ATOM      8  C   UNL     1      -2.701   4.044  25.856  0.00  0.00    +0.002 C 
ATOM      9  C   UNL     1      -3.495   3.921  25.670  0.00  0.00    +0.022 C 
ATOM     10  C   UNL     1      -3.701   3.413  25.052  0.00  0.00    +0.095 C 
ATOM     19  C   UNL     1      -3.112   3.030  24.621  0.00  0.00    +0.022 C 
ATOM     20  C   UNL     1      -3.318   2.523  24.004  0.00  0.00    +0.002 C 
ATOM     21  C   UNL     1      -2.317   3.153  24.807  0.00  0.00    +0.032 C 
ATOM     22  C   UNL     1      -1.729   2.769  24.375  0.00  0.00    +0.152 C 
ATOM     23  O   UNL     1      -1.934   2.262  23.758  0.00  0.00    -0.223 OA
ENDROOT
BRANCH  10  11
ATOM     11  N   UNL     1      -4.494   3.290  24.867  0.00  0.00    -0.207 NA
ATOM     12  C   UNL     1      -5.010   2.989  25.437  0.00  0.00    +0.241 C 
ATOM     13  O   UNL     1      -4.730   2.812  26.193  0.00  0.00    -0.273 OA
BRANCH  12  14
ATOM     14  C   UNL     1      -5.804   2.866  25.251  0.00  0.00    +0.087 C 
BRANCH  14  15
ATOM     15  C   UNL     1      -6.199   2.206  25.549  0.00  0.00    +0.009 C 
ATOM     16  C   UNL     1      -6.594   1.546  25.848  0.00  0.00    +0.000 C 
ATOM     17  C   UNL     1      -6.168   1.851  24.806  0.00  0.00    +0.000 C 
ATOM     18  C   UNL     1      -6.230   2.561  26.294  0.00  0.00    +0.000 C 
ENDBRANCH  14  15
ENDBRANCH  12  14
ENDBRANCH  10  11
BRANCH   3   2
ATOM      1  C   UNL     1      -0.136   2.786  23.381  0.00  0.00    +0.010 C 
ATOM      2  C   UNL     1      -0.345   2.508  24.129  0.00  0.00    +0.081 C 
BRANCH   2  24
ATOM     24  C   UNL     1       0.034   1.848  24.444  0.00  0.00    +0.241 C 
ATOM     25  O   UNL     1       0.707   1.943  24.914  0.00  0.00    -0.273 OA
ATOM     26  N   UNL     1      -0.258   1.091  24.292  0.00  0.00    -0.197 NA
BRANCH  26  27
ATOM     27  C   UNL     1       0.121   0.431  24.607  0.00  0.00    +0.179 C 
BRANCH  27  28
ATOM     28  C   UNL     1      -0.250  -0.306  24.590  0.00  0.00    +0.145 A 
ATOM     29  C   UNL     1      -0.667  -0.653  25.211  0.00  0.00    +0.038 A 
ATOM     30  C   UNL     1      -0.944  -1.386  24.954  0.00  0.00    +0.043 A 
ATOM     31  C   UNL     1      -0.698  -1.492  24.173  0.00  0.00    +0.179 A 
ATOM     32  O   UNL     1      -0.269  -0.824  23.949  0.00  0.00    -0.453 OA
ENDBRANCH  27  28
ENDBRANCH  26  27
ENDBRANCH   2  24
ENDBRANCH   3   2
TORSDOF 7
ENDMDL
MODEL 10
REMARK VINA RESULT:      -9.4      2.931      4.442
REMARK  Name = 
REMARK  7 active torsions:
REMARK  status: ('A' for Active; 'I' for Inactive)
REMARK    1  A    between atoms: C_2  and  C_3
REMARK    2  A    between atoms: C_2  and  C_24
REMARK    3  A    between atoms: C_10  and  N_11
REMARK    4  A    between atoms: C_12  and  C_14
REMARK    5  A    between atoms: C_14  and  C_15
REMARK    6  A    between atoms: N_26  and  C_27
REMARK    7  A    between atoms: C_27  and  C_28
REMARK                            x       y       z     vdW  Elec       q    Type
REMARK                         _______ _______ _______ _____ _____    ______ ____
ROOT
ATOM      3  C   UNL     1      -3.215  -0.197  24.758  0.00  0.00    +0.039 C 
ATOM      4  C   UNL     1      -2.988  -0.706  25.366  0.00  0.00    +0.003 C 
ATOM      5  C   UNL     1      -2.189  -0.845  25.511  0.00  0.00    +0.000 C 
ATOM      6  C   UNL     1      -1.615  -0.474  25.048  0.00  0.00    +0.002 C 
ATOM      7  C   UNL     1      -1.388  -0.984  25.656  0.00  0.00    +0.000 C 
ATOM      8  C   UNL     1      -0.814  -0.613  25.194  0.00  0.00    +0.002 C 
ATOM      9  C   UNL     1      -0.241  -0.242  24.731  0.00  0.00    +0.022 C 
ATOM     10  C   UNL     1      -0.467   0.268  24.123  0.00  0.00    +0.095 C 
ATOM     19  C   UNL     1      -1.267   0.407  23.978  0.00  0.00    +0.022 C 
ATOM     20  C   UNL     1      -1.493   0.916  23.370  0.00  0.00    +0.002 C 
ATOM     21  C   UNL     1      -1.841   0.036  24.440  0.00  0.00    +0.032 C 
ATOM     22  C   UNL     1      -2.641   0.174  24.295  0.00  0.00    +0.152 C 
ATOM     23  O   UNL     1      -2.868   0.684  23.687  0.00  0.00    -0.223 OA
ENDROOT
BRANCH  10  11
ATOM     11  N   UNL     1       0.106   0.639  23.660  0.00  0.00    -0.207 NA
ATOM     12  C   UNL     1       0.715   0.195  23.323  0.00  0.00    +0.241 C 
ATOM     13  O   UNL     1       0.749  -0.621  23.449  0.00  0.00    -0.273 OA
BRANCH  12  14
ATOM     14  C   UNL     1       1.288   0.566  22.861  0.00  0.00    +0.087 C 
BRANCH  14  15
ATOM     15  C   UNL     1       1.988   0.169  22.676  0.00  0.00    +0.009 C 
ATOM     16  C   UNL     1       2.688  -0.226  22.492  0.00  0.00    +0.000 C 
ATOM     17  C   UNL     1       1.594  -0.254  22.088  0.00  0.00    +0.000 C 
ATOM     18  C   UNL     1       2.383   0.593  23.265  0.00  0.00    +0.000 C 
ENDBRANCH  14  15
ENDBRANCH  12  14
ENDBRANCH  10  11
BRANCH   3   2
ATOM      1  C   UNL     1      -4.367  -0.354  23.927  0.00  0.00    +0.010 C 
ATOM      2  C   UNL     1      -4.015  -0.058  24.612  0.00  0.00    +0.081 C 
BRANCH   2  24
ATOM     24  C   UNL     1      -4.463   0.377  25.150  0.00  0.00    +0.241 C 
ATOM     25  O   UNL     1      -4.758   0.014  25.831  0.00  0.00    -0.273 OA
ATOM     26  N   UNL     1      -4.618   1.175  25.009  0.00  0.00    -0.197 NA
BRANCH  26  27
ATOM     27  C   UNL     1      -5.066   1.610  25.547  0.00  0.00    +0.179 C 
BRANCH  27  28
ATOM     28  C   UNL     1      -5.066   2.435  25.514  0.00  0.00    +0.145 A 
ATOM     29  C   UNL     1      -5.732   2.918  25.456  0.00  0.00    +0.038 A 
ATOM     30  C   UNL     1      -5.476   3.702  25.440  0.00  0.00    +0.043 A 
ATOM     31  C   UNL     1      -4.652   3.704  25.488  0.00  0.00    +0.179 A 
ATOM     32  O   UNL     1      -4.399   2.920  25.534  0.00  0.00    -0.453 OA
ENDBRANCH  27  28
ENDBRANCH  26  27
ENDBRANCH   2  24
ENDBRANCH   3   2
TORSDOF 7
ENDMDL
