MODEL 1
REMARK VINA RESULT:      -9.4      0.000      0.000
REMARK  Name = 
REMARK  8 active torsions:
REMARK  status: ('A' for Active; 'I' for Inactive)
REMARK    1  A    between atoms: N_2  and  C_4
REMARK    2  A    between atoms: C_4  and  C_5
REMARK    3  A    between atoms: C_5  and  N_6
REMARK    4  A    between atoms: N_6  and  C_8
REMARK    5  A    between atoms: C_21  and  C_22
REMARK    6  A    between atoms: C_22  and  C_23
REMARK    7  A    between atoms: N_25  and  C_26
REMARK    8  A    between atoms: C_26  and  C_27
REMARK                            x       y       z     vdW  Elec       q    Type
REMARK                         _______ _______ _______ _____ _____    ______ ____
ROOT
ATOM      8  C   UNL     1      -2.654   3.108  25.343  0.00  0.00    +0.048 A 
ATOM      9  C   UNL     1      -2.734   2.287  25.337  0.00  0.00    +0.015 A 
ATOM     10  C   UNL     1      -2.138   1.818  25.012  0.00  0.00    +0.030 A 
ATOM     11  C   UNL     1      -1.464   2.170  24.693  0.00  0.00    +0.136 A 
ATOM     12  O   UNL     1      -1.069   2.949  24.538  0.00  0.00    -0.476 OA
ATOM     13  C   UNL     1      -0.340   2.846  24.167  0.00  0.00    +0.205 C 
ATOM     14  C   UNL     1      -0.220   2.036  24.061  0.00  0.00    +0.047 C 
ATOM     15  C   UNL     1       0.388   1.461  23.724  0.00  0.00    +0.006 C 
ATOM     16  C   UNL     1       0.277   0.643  23.734  0.00  0.00    +0.021 C 
ATOM     17  C   UNL     1      -0.409   0.324  24.060  0.00  0.00    +0.093 C 
ATOM     18  N   UNL     1      -0.519  -0.494  24.070  0.00  0.00    -0.278 N 
ATOM     19  C   UNL     1       0.057  -0.992  23.753  0.00  0.00    +0.093 C 
ATOM     20  C   UNL     1       0.744  -0.673  23.427  0.00  0.00    +0.022 C 
ATOM     21  C   UNL     1       0.854   0.145  23.417  0.00  0.00    +0.012 C 
ATOM     33  C   UNL     1      -1.206  -0.813  24.397  0.00  0.00    +0.243 C 
ATOM     34  O   UNL     1      -1.317  -1.631  24.407  0.00  0.00    -0.273 OA
ATOM     35  C   UNL     1      -1.782  -0.316  24.714  0.00  0.00    +0.174 C 
ATOM     36  N   UNL     1      -1.672   0.502  24.704  0.00  0.00    -0.204 NA
ATOM     37  C   UNL     1      -2.249   1.000  25.021  0.00  0.00    +0.119 C 
ATOM     38  C   UNL     1      -1.385   2.992  24.699  0.00  0.00    +0.038 A 
ATOM     39  C   UNL     1      -1.980   3.460  25.024  0.00  0.00    +0.018 A 
ENDROOT
BRANCH   8   6
ATOM      6  N   UNL     1      -3.250   3.577  25.668  0.00  0.00    -0.304 N 
ATOM      7  C   UNL     1      -3.060   4.169  26.210  0.00  0.00    +0.112 C 
BRANCH   6   5
ATOM      5  C   UNL     1      -4.037   3.454  25.451  0.00  0.00    +0.108 C 
BRANCH   5   4
ATOM      4  C   UNL     1      -4.646   3.732  25.933  0.00  0.00    +0.094 C 
BRANCH   4   2
ATOM      1  C   UNL     1      -5.767   2.856  25.799  0.00  0.00    +0.090 C 
ATOM      2  N   UNL     1      -5.433   3.606  25.718  0.00  0.00    -0.269 NA
ATOM      3  C   UNL     1      -5.884   4.229  25.422  0.00  0.00    +0.090 C 
ENDBRANCH   4   2
ENDBRANCH   5   4
ENDBRANCH   6   5
ENDBRANCH   8   6
BRANCH  21  22
ATOM     22  C   UNL     1       1.541   0.464  23.090  0.00  0.00    +0.087 C 
BRANCH  22  23
ATOM     23  C   UNL     1       1.953   0.048  22.508  0.00  0.00    +0.242 C 
ATOM     24  O   UNL     1       1.541  -0.324  21.897  0.00  0.00    -0.273 OA
ATOM     25  N   UNL     1       2.776   0.005  22.537  0.00  0.00    -0.199 NA
BRANCH  25  26
ATOM     26  C   UNL     1       3.188   0.377  23.147  0.00  0.00    +0.160 C 
BRANCH  26  27
ATOM     27  C   UNL     1       3.983   0.199  23.278  0.00  0.00    +0.081 A 
ATOM     28  C   UNL     1       4.561   0.774  23.152  0.00  0.00    +0.017 A 
ATOM     29  C   UNL     1       5.356   0.594  23.284  0.00  0.00    +0.003 A 
ATOM     30  C   UNL     1       5.572  -0.159  23.540  0.00  0.00    +0.021 A 
ATOM     31  C   UNL     1       4.994  -0.734  23.666  0.00  0.00    +0.099 A 
ATOM     32  N   UNL     1       4.200  -0.555  23.535  0.00  0.00    -0.246 NA
ENDBRANCH  26  27
ENDBRANCH  25  26
ENDBRANCH  22  23
ENDBRANCH  21  22
TORSDOF 8
ENDMDL
MODEL 2
REMARK VINA RESULT:      -8.9      1.353      6.806
REMARK  Name = 
REMARK  8 active torsions:
REMARK  status: ('A' for Active; 'I' for Inactive)
REMARK    1  A    between atoms: N_2  and  C_4
REMARK    2  A    between atoms: C_4  and  C_5
REMARK    3  A    between atoms: C_5  and  N_6
REMARK    4  A    between atoms: N_6  and  C_8
REMARK    5  A    between atoms: C_21  and  C_22
REMARK    6  A    between atoms: C_22  and  C_23
REMARK    7  A    between atoms: N_25  and  C_26
REMARK    8  A    between atoms: C_26  and  C_27
REMARK                            x       y       z     vdW  Elec       q    Type
REMARK                         _______ _______ _______ _____ _____    ______ ____
ROOT
ATOM      8  C   UNL     1       1.176   0.026  22.909  0.00  0.00    +0.048 A 
ATOM      9  C   UNL     1       0.835  -0.676  23.176  0.00  0.00    +0.015 A 
ATOM     10  C   UNL     1       0.097  -0.661  23.545  0.00  0.00    +0.030 A 
ATOM     11  C   UNL     1      -0.299   0.056  23.647  0.00  0.00    +0.136 A 
ATOM     12  O   UNL     1      -0.245   0.929  23.502  0.00  0.00    -0.476 OA
ATOM     13  C   UNL     1      -0.914   1.320  23.785  0.00  0.00    +0.205 C 
ATOM     14  C   UNL     1      -1.418   0.757  24.115  0.00  0.00    +0.047 C 
ATOM     15  C   UNL     1      -2.219   0.696  24.527  0.00  0.00    +0.006 C 
ATOM     16  C   UNL     1      -2.532  -0.024  24.782  0.00  0.00    +0.021 C 
ATOM     17  C   UNL     1      -2.110  -0.722  24.664  0.00  0.00    +0.093 C 
ATOM     18  N   UNL     1      -2.423  -1.442  24.920  0.00  0.00    -0.278 N 
ATOM     19  C   UNL     1      -3.159  -1.463  25.292  0.00  0.00    +0.093 C 
ATOM     20  C   UNL     1      -3.581  -0.764  25.410  0.00  0.00    +0.022 C 
ATOM     21  C   UNL     1      -3.268  -0.045  25.155  0.00  0.00    +0.012 C 
ATOM     33  C   UNL     1      -2.001  -2.141  24.802  0.00  0.00    +0.243 C 
ATOM     34  O   UNL     1      -2.314  -2.860  25.057  0.00  0.00    -0.273 OA
ATOM     35  C   UNL     1      -1.265  -2.120  24.429  0.00  0.00    +0.174 C 
ATOM     36  N   UNL     1      -0.951  -1.401  24.173  0.00  0.00    -0.204 NA
ATOM     37  C   UNL     1      -0.216  -1.380  23.800  0.00  0.00    +0.119 C 
ATOM     38  C   UNL     1       0.043   0.758  23.380  0.00  0.00    +0.038 A 
ATOM     39  C   UNL     1       0.780   0.743  23.011  0.00  0.00    +0.018 A 
ENDROOT
BRANCH   8   6
ATOM      6  N   UNL     1       1.914   0.011  22.540  0.00  0.00    -0.304 N 
ATOM      7  C   UNL     1       1.983  -0.271  21.768  0.00  0.00    +0.112 C 
BRANCH   6   5
ATOM      5  C   UNL     1       2.582   0.278  22.943  0.00  0.00    +0.108 C 
BRANCH   5   4
ATOM      4  C   UNL     1       3.323   0.245  22.581  0.00  0.00    +0.094 C 
BRANCH   4   2
ATOM      1  C   UNL     1       4.225   1.292  22.939  0.00  0.00    +0.090 C 
ATOM      2  N   UNL     1       3.993   0.503  22.988  0.00  0.00    -0.269 NA
ATOM      3  C   UNL     1       4.430  -0.029  23.442  0.00  0.00    +0.090 C 
ENDBRANCH   4   2
ENDBRANCH   5   4
ENDBRANCH   6   5
ENDBRANCH   8   6
BRANCH  21  22
ATOM     22  C   UNL     1      -3.691   0.654  25.273  0.00  0.00    +0.087 C 
BRANCH  22  23
ATOM     23  C   UNL     1      -4.474   0.710  25.017  0.00  0.00    +0.242 C 
ATOM     24  O   UNL     1      -4.842   0.060  24.668  0.00  0.00    -0.273 OA
ATOM     25  N   UNL     1      -4.888   1.418  25.110  0.00  0.00    -0.199 NA
BRANCH  25  26
ATOM     26  C   UNL     1      -4.519   2.069  25.459  0.00  0.00    +0.160 C 
BRANCH  26  27
ATOM     27  C   UNL     1      -4.894   2.804  25.460  0.00  0.00    +0.081 A 
ATOM     28  C   UNL     1      -4.537   3.451  25.093  0.00  0.00    +0.017 A 
ATOM     29  C   UNL     1      -4.913   4.186  25.095  0.00  0.00    +0.003 A 
ATOM     30  C   UNL     1      -5.645   4.273  25.464  0.00  0.00    +0.021 A 
ATOM     31  C   UNL     1      -6.003   3.627  25.831  0.00  0.00    +0.099 A 
ATOM     32  N   UNL     1      -5.627   2.892  25.829  0.00  0.00    -0.246 NA
ENDBRANCH  26  27
ENDBRANCH  25  26
ENDBRANCH  22  23
ENDBRANCH  21  22
TORSDOF 8
ENDMDL
MODEL 3
REMARK VINA RESULT:      -7.8      1.686      6.678
REMARK  Name = 
REMARK  8 active torsions:
REMARK  status: ('A' for Active; 'I' for Inactive)
REMARK    1  A    between atoms: N_2  and  C_4
REMARK    2  A    between atoms: C_4  and  C_5
REMARK    3  A    between atoms: C_5  and  N_6
REMARK    4  A    between atoms: N_6  and  C_8
REMARK    5  A    between atoms: C_21  and  C_22
REMARK    6  A    between atoms: C_22  and  C_23
REMARK    7  A    between atoms: N_25  and  C_26
REMARK    8  A    between atoms: C_26  and  C_27
REMARK                            x       y       z     vdW  Elec       q    Type
REMARK                         _______ _______ _______ _____ _____    ______ ____
ROOT
ATOM      8  C   UNL     1       2.165   0.449  23.033  0.00  0.00    +0.048 A 
ATOM      9  C   UNL     1       1.910   1.199  23.267  0.00  0.00    +0.015 A 
ATOM     10  C   UNL     1       1.156   1.295  23.586  0.00  0.00    +0.030 A 
ATOM     11  C   UNL     1       0.657   0.644  23.671  0.00  0.00    +0.136 A 
ATOM     12  O   UNL     1       0.596  -0.232  23.542  0.00  0.00    -0.476 OA
ATOM     13  C   UNL     1      -0.138  -0.519  23.785  0.00  0.00    +0.205 C 
ATOM     14  C   UNL     1      -0.577   0.117  24.073  0.00  0.00    +0.047 C 
ATOM     15  C   UNL     1      -1.387   0.298  24.429  0.00  0.00    +0.006 C 
ATOM     16  C   UNL     1      -1.611   1.061  24.653  0.00  0.00    +0.021 C 
ATOM     17  C   UNL     1      -1.088   1.691  24.554  0.00  0.00    +0.093 C 
ATOM     18  N   UNL     1      -1.313   2.452  24.778  0.00  0.00    -0.278 N 
ATOM     19  C   UNL     1      -2.060   2.585  25.101  0.00  0.00    +0.093 C 
ATOM     20  C   UNL     1      -2.584   1.955  25.200  0.00  0.00    +0.022 C 
ATOM     21  C   UNL     1      -2.359   1.193  24.976  0.00  0.00    +0.012 C 
ATOM     33  C   UNL     1      -0.789   3.082  24.679  0.00  0.00    +0.243 C 
ATOM     34  O   UNL     1      -1.013   3.844  24.903  0.00  0.00    -0.273 OA
ATOM     35  C   UNL     1      -0.041   2.951  24.356  0.00  0.00    +0.174 C 
ATOM     36  N   UNL     1       0.184   2.189  24.132  0.00  0.00    -0.204 NA
ATOM     37  C   UNL     1       0.931   2.057  23.810  0.00  0.00    +0.119 C 
ATOM     38  C   UNL     1       0.913  -0.106  23.437  0.00  0.00    +0.038 A 
ATOM     39  C   UNL     1       1.666  -0.202  23.118  0.00  0.00    +0.018 A 
ENDROOT
BRANCH   8   6
ATOM      6  N   UNL     1       2.920   0.353  22.713  0.00  0.00    -0.304 N 
ATOM      7  C   UNL     1       3.016   0.273  21.898  0.00  0.00    +0.112 C 
BRANCH   6   5
ATOM      5  C   UNL     1       3.579   0.335  23.210  0.00  0.00    +0.108 C 
BRANCH   5   4
ATOM      4  C   UNL     1       4.323   0.158  22.901  0.00  0.00    +0.094 C 
BRANCH   4   2
ATOM      1  C   UNL     1       5.123  -0.696  23.720  0.00  0.00    +0.090 C 
ATOM      2  N   UNL     1       4.965   0.050  23.408  0.00  0.00    -0.269 NA
ATOM      3  C   UNL     1       5.449   0.690  23.602  0.00  0.00    +0.090 C 
ENDBRANCH   4   2
ENDBRANCH   5   4
ENDBRANCH   6   5
ENDBRANCH   8   6
BRANCH  21  22
ATOM     22  C   UNL     1      -2.883   0.563  25.075  0.00  0.00    +0.087 C 
BRANCH  22  23
ATOM     23  C   UNL     1      -3.617   0.574  24.698  0.00  0.00    +0.242 C 
ATOM     24  O   UNL     1      -3.895   1.271  24.355  0.00  0.00    -0.273 OA
ATOM     25  N   UNL     1      -4.074  -0.112  24.665  0.00  0.00    -0.199 NA
BRANCH  25  26
ATOM     26  C   UNL     1      -3.797  -0.809  25.008  0.00  0.00    +0.160 C 
BRANCH  26  27
ATOM     27  C   UNL     1      -3.922  -1.534  24.632  0.00  0.00    +0.081 A 
ATOM     28  C   UNL     1      -3.534  -2.211  24.900  0.00  0.00    +0.017 A 
ATOM     29  C   UNL     1      -3.661  -2.934  24.523  0.00  0.00    +0.003 A 
ATOM     30  C   UNL     1      -4.174  -2.980  23.880  0.00  0.00    +0.021 A 
ATOM     31  C   UNL     1      -4.562  -2.303  23.612  0.00  0.00    +0.099 A 
ATOM     32  N   UNL     1      -4.436  -1.580  23.988  0.00  0.00    -0.246 NA
ENDBRANCH  26  27
ENDBRANCH  25  26
ENDBRANCH  22  23
ENDBRANCH  21  22
TORSDOF 8
ENDMDL
MODEL 4
REMARK VINA RESULT:      -6.5      1.386      7.205
REMARK  Name = 
REMARK  8 active torsions:
REMARK  status: ('A' for Active; 'I' for Inactive)
REMARK    1  A    between atoms: N_2  and  C_4
REMARK    2  A    between atoms: C_4  and  C_5
REMARK    3  A    between atoms: C_5  and  N_6
REMARK    4  A    between atoms: N_6  and  C_8
REMARK    5  A    between atoms: C_21  and  C_22
REMARK    6  A    between atoms: C_22  and  C_23
REMARK    7  A    between atoms: N_25  and  C_26
REMARK    8  A    between atoms: C_26  and  C_27
REMARK                            x       y       z     vdW  Elec       q    Type
REMARK                         _______ _______ _______ _____ _____    ______ ____
ROOT
ATOM      8  C   UNL     1       0.837   0.703  23.487  0.00  0.00    +0.048 A 
ATOM      9  C   UNL     1       0.926   1.522  23.521  0.00  0.00    +0.015 A 
ATOM     10  C   UNL     1       0.353   1.983  23.896  0.00  0.00    +0.030 A 
ATOM     11  C   UNL     1      -0.307   1.624  24.237  0.00  0.00    +0.136 A 
ATOM     12  O   UNL     1      -0.702   0.843  24.381  0.00  0.00    -0.476 OA
ATOM     13  C   UNL     1      -1.409   0.937  24.795  0.00  0.00    +0.205 C 
ATOM     14  C   UNL     1      -1.514   1.743  24.939  0.00  0.00    +0.047 C 
ATOM     15  C   UNL     1      -2.097   2.309  25.331  0.00  0.00    +0.006 C 
ATOM     16  C   UNL     1      -1.978   3.126  25.348  0.00  0.00    +0.021 C 
ATOM     17  C   UNL     1      -1.307   3.452  24.998  0.00  0.00    +0.093 C 
ATOM     18  N   UNL     1      -1.188   4.269  25.015  0.00  0.00    -0.278 N 
ATOM     19  C   UNL     1      -1.741   4.759  25.382  0.00  0.00    +0.093 C 
ATOM     20  C   UNL     1      -2.413   4.432  25.732  0.00  0.00    +0.022 C 
ATOM     21  C   UNL     1      -2.532   3.616  25.716  0.00  0.00    +0.012 C 
ATOM     33  C   UNL     1      -0.516   4.595  24.665  0.00  0.00    +0.243 C 
ATOM     34  O   UNL     1      -0.397   5.411  24.682  0.00  0.00    -0.273 OA
ATOM     35  C   UNL     1       0.037   4.106  24.298  0.00  0.00    +0.174 C 
ATOM     36  N   UNL     1      -0.081   3.289  24.281  0.00  0.00    -0.204 NA
ATOM     37  C   UNL     1       0.472   2.799  23.913  0.00  0.00    +0.119 C 
ATOM     38  C   UNL     1      -0.396   0.804  24.202  0.00  0.00    +0.038 A 
ATOM     39  C   UNL     1       0.176   0.344  23.827  0.00  0.00    +0.018 A 
ENDROOT
BRANCH   8   6
ATOM      6  N   UNL     1       1.409   0.242  23.112  0.00  0.00    -0.304 N 
ATOM      7  C   UNL     1       1.183  -0.411  22.661  0.00  0.00    +0.112 C 
BRANCH   6   5
ATOM      5  C   UNL     1       2.208   0.435  23.187  0.00  0.00    +0.108 C 
BRANCH   5   4
ATOM      4  C   UNL     1       2.769   0.063  22.709  0.00  0.00    +0.094 C 
BRANCH   4   2
ATOM      1  C   UNL     1       3.926   0.860  22.454  0.00  0.00    +0.090 C 
ATOM      2  N   UNL     1       3.572   0.213  22.822  0.00  0.00    -0.269 NA
ATOM      3  C   UNL     1       4.021  -0.284  23.305  0.00  0.00    +0.090 C 
ENDBRANCH   4   2
ENDBRANCH   5   4
ENDBRANCH   6   5
ENDBRANCH   8   6
BRANCH  21  22
ATOM     22  C   UNL     1      -3.204   3.289  26.066  0.00  0.00    +0.087 C 
BRANCH  22  23
ATOM     23  C   UNL     1      -3.894   3.738  26.130  0.00  0.00    +0.242 C 
ATOM     24  O   UNL     1      -3.853   4.526  26.370  0.00  0.00    -0.273 OA
ATOM     25  N   UNL     1      -4.625   3.397  25.956  0.00  0.00    -0.199 NA
BRANCH  25  26
ATOM     26  C   UNL     1      -4.665   2.608  25.716  0.00  0.00    +0.160 C 
BRANCH  26  27
ATOM     27  C   UNL     1      -5.397   2.266  25.545  0.00  0.00    +0.081 A 
ATOM     28  C   UNL     1      -5.610   2.117  24.762  0.00  0.00    +0.017 A 
ATOM     29  C   UNL     1      -6.342   1.775  24.592  0.00  0.00    +0.003 A 
ATOM     30  C   UNL     1      -6.858   1.581  25.205  0.00  0.00    +0.021 A 
ATOM     31  C   UNL     1      -6.645   1.729  25.988  0.00  0.00    +0.099 A 
ATOM     32  N   UNL     1      -5.914   2.071  26.158  0.00  0.00    -0.246 NA
ENDBRANCH  26  27
ENDBRANCH  25  26
ENDBRANCH  22  23
ENDBRANCH  21  22
TORSDOF 8
ENDMDL
MODEL 5
REMARK VINA RESULT:      -6.1      1.663      2.363
REMARK  Name = 
REMARK  8 active torsions:
REMARK  status: ('A' for Active; 'I' for Inactive)
REMARK    1  A    between atoms: N_2  and  C_4
REMARK    2  A    between atoms: C_4  and  C_5
REMARK    3  A    between atoms: C_5  and  N_6
REMARK    4  A    between atoms: N_6  and  C_8
REMARK    5  A    between atoms: C_21  and  C_22
REMARK    6  A    between atoms: C_22  and  C_23
REMARK    7  A    between atoms: N_25  and  C_26
REMARK    8  A    between atoms: C_26  and  C_27
REMARK                            x       y       z     vdW  Elec       q    Type
REMARK                         _______ _______ _______ _____ _____    ______ ____
ROOT
ATOM      8  C   UNL     1      -4.841   2.000  25.015  0.00  0.00    +0.048 A 
ATOM      9  C   UNL     1      -4.882   1.189  25.159  0.00  0.00    +0.015 A 
ATOM     10  C   UNL     1      -4.227   0.710  25.010  0.00  0.00    +0.030 A 
ATOM     11  C   UNL     1      -3.531   1.043  24.718  0.00  0.00    +0.136 A 
ATOM     12  O   UNL     1      -3.154   1.806  24.466  0.00  0.00    -0.476 OA
ATOM     13  C   UNL     1      -2.376   1.687  24.218  0.00  0.00    +0.205 C 
ATOM     14  C   UNL     1      -2.207   0.883  24.288  0.00  0.00    +0.047 C 
ATOM     15  C   UNL     1      -1.532   0.299  24.150  0.00  0.00    +0.006 C 
ATOM     16  C   UNL     1      -1.607  -0.509  24.305  0.00  0.00    +0.021 C 
ATOM     17  C   UNL     1      -2.316  -0.809  24.597  0.00  0.00    +0.093 C 
ATOM     18  N   UNL     1      -2.390  -1.616  24.752  0.00  0.00    -0.278 N 
ATOM     19  C   UNL     1      -1.754  -2.123  24.615  0.00  0.00    +0.093 C 
ATOM     20  C   UNL     1      -1.044  -1.822  24.322  0.00  0.00    +0.022 C 
ATOM     21  C   UNL     1      -0.970  -1.016  24.167  0.00  0.00    +0.012 C 
ATOM     33  C   UNL     1      -3.101  -1.917  25.045  0.00  0.00    +0.243 C 
ATOM     34  O   UNL     1      -3.175  -2.723  25.200  0.00  0.00    -0.273 OA
ATOM     35  C   UNL     1      -3.737  -1.410  25.182  0.00  0.00    +0.174 C 
ATOM     36  N   UNL     1      -3.664  -0.603  25.028  0.00  0.00    -0.204 NA
ATOM     37  C   UNL     1      -4.301  -0.097  25.165  0.00  0.00    +0.119 C 
ATOM     38  C   UNL     1      -3.490   1.855  24.574  0.00  0.00    +0.038 A 
ATOM     39  C   UNL     1      -4.145   2.333  24.722  0.00  0.00    +0.018 A 
ENDROOT
BRANCH   8   6
ATOM      6  N   UNL     1      -5.497   2.478  25.164  0.00  0.00    -0.304 N 
ATOM      7  C   UNL     1      -6.258   2.171  25.082  0.00  0.00    +0.112 C 
BRANCH   6   5
ATOM      5  C   UNL     1      -5.391   3.263  25.394  0.00  0.00    +0.108 C 
BRANCH   5   4
ATOM      4  C   UNL     1      -6.046   3.732  25.574  0.00  0.00    +0.094 C 
BRANCH   4   2
ATOM      1  C   UNL     1      -6.509   5.071  25.395  0.00  0.00    +0.090 C 
ATOM      2  N   UNL     1      -5.952   4.543  25.695  0.00  0.00    -0.269 NA
ATOM      3  C   UNL     1      -5.301   4.824  26.116  0.00  0.00    +0.090 C 
ENDBRANCH   4   2
ENDBRANCH   5   4
ENDBRANCH   6   5
ENDBRANCH   8   6
BRANCH  21  22
ATOM     22  C   UNL     1      -0.259  -0.715  23.875  0.00  0.00    +0.087 C 
BRANCH  22  23
ATOM     23  C   UNL     1       0.459  -1.024  24.139  0.00  0.00    +0.242 C 
ATOM     24  O   UNL     1       0.470  -1.582  24.747  0.00  0.00    -0.273 OA
ATOM     25  N   UNL     1       1.167  -0.775  23.795  0.00  0.00    -0.199 NA
BRANCH  25  26
ATOM     26  C   UNL     1       1.156  -0.217  23.188  0.00  0.00    +0.160 C 
BRANCH  26  27
ATOM     27  C   UNL     1       1.865   0.060  22.869  0.00  0.00    +0.081 A 
ATOM     28  C   UNL     1       2.301   0.635  23.270  0.00  0.00    +0.017 A 
ATOM     29  C   UNL     1       3.011   0.911  22.950  0.00  0.00    +0.003 A 
ATOM     30  C   UNL     1       3.283   0.613  22.231  0.00  0.00    +0.021 A 
ATOM     31  C   UNL     1       2.847   0.039  21.830  0.00  0.00    +0.099 A 
ATOM     32  N   UNL     1       2.138  -0.238  22.150  0.00  0.00    -0.246 NA
ENDBRANCH  26  27
ENDBRANCH  25  26
ENDBRANCH  22  23
ENDBRANCH  21  22
TORSDOF 8
ENDMDL
