MODEL 1
REMARK VINA RESULT:      -7.6      0.000      0.000
REMARK  Name = 
REMARK  2 active torsions:
REMARK  status: ('A' for Active; 'I' for Inactive)
REMARK    1  A    between atoms: C_5  and  C_6
REMARK    2  A    between atoms: C_6  and  N_7
REMARK                            x       y       z     vdW  Elec       q    Type
REMARK                         _______ _______ _______ _____ _____    ______ ____
ROOT
ATOM      7  N   UNL     1      -3.943   0.846  24.796  0.00  0.00    -0.186 NA
ATOM      8  C   UNL     1      -4.338   1.563  24.695  0.00  0.00    +0.323 C 
ATOM      9  O   UNL     1      -5.154   1.571  24.567  0.00  0.00    -0.251 OA
ATOM     10  N   UNL     1      -3.918   2.273  24.723  0.00  0.00    -0.258 N 
ATOM     11  C   UNL     1      -4.313   2.990  24.623  0.00  0.00    +0.127 C 
ATOM     12  C   UNL     1      -3.893   3.699  24.651  0.00  0.00    +0.164 C 
ATOM     13  O   UNL     1      -3.078   3.691  24.779  0.00  0.00    -0.350 OA
ATOM     14  C   UNL     1      -2.683   2.974  24.879  0.00  0.00    +0.164 C 
ATOM     15  C   UNL     1      -3.103   2.265  24.851  0.00  0.00    +0.127 C 
ENDROOT
BRANCH   7   6
ATOM      6  C   UNL     1      -4.364   0.136  24.768  0.00  0.00    +0.149 C 
BRANCH   6   5
ATOM      1  N   UNL     1      -3.445  -2.619  24.762  0.00  0.00    -0.127 NA
ATOM      2  C   UNL     1      -3.575  -1.835  24.986  0.00  0.00    +0.154 C 
ATOM      3  C   UNL     1      -3.291  -1.473  25.671  0.00  0.00    +0.164 C 
ATOM      4  O   UNL     1      -3.552  -0.691  25.672  0.00  0.00    -0.350 OA
ATOM      5  C   UNL     1      -3.997  -0.570  24.988  0.00  0.00    +0.169 C 
ATOM     16  C   UNL     1      -4.011  -1.276  24.564  0.00  0.00    +0.201 C 
ATOM     17  O   UNL     1      -4.395  -1.403  23.845  0.00  0.00    -0.219 OA
ENDBRANCH   6   5
ENDBRANCH   7   6
TORSDOF 2
ENDMDL
MODEL 2
REMARK VINA RESULT:      -7.4      0.955      4.277
REMARK  Name = 
REMARK  2 active torsions:
REMARK  status: ('A' for Active; 'I' for Inactive)
REMARK    1  A    between atoms: C_5  and  C_6
REMARK    2  A    between atoms: C_6  and  N_7
REMARK                            x       y       z     vdW  Elec       q    Type
REMARK                         _______ _______ _______ _____ _____    ______ ____
ROOT
ATOM      7  N   UNL     1      -3.530   0.213  24.672  0.00  0.00    -0.186 NA
ATOM      8  C   UNL     1      -3.200  -0.483  24.969  0.00  0.00    +0.323 C 
ATOM      9  O   UNL     1      -2.612  -0.446  25.547  0.00  0.00    -0.251 OA
ATOM     10  N   UNL     1      -3.457  -1.214  24.688  0.00  0.00    -0.258 N 
ATOM     11  C   UNL     1      -3.127  -1.910  24.984  0.00  0.00    +0.127 C 
ATOM     12  C   UNL     1      -3.384  -2.641  24.703  0.00  0.00    +0.164 C 
ATOM     13  O   UNL     1      -3.971  -2.677  24.124  0.00  0.00    -0.350 OA
ATOM     14  C   UNL     1      -4.301  -1.982  23.828  0.00  0.00    +0.164 C 
ATOM     15  C   UNL     1      -4.044  -1.251  24.109  0.00  0.00    +0.127 C 
ENDROOT
BRANCH   7   6
ATOM      6  C   UNL     1      -3.272   0.944  24.954  0.00  0.00    +0.149 C 
BRANCH   6   5
ATOM      1  N   UNL     1      -3.833   3.710  24.268  0.00  0.00    -0.127 NA
ATOM      2  C   UNL     1      -3.927   2.905  24.419  0.00  0.00    +0.154 C 
ATOM      3  C   UNL     1      -4.635   2.482  24.373  0.00  0.00    +0.164 C 
ATOM      4  O   UNL     1      -4.475   1.697  24.567  0.00  0.00    -0.350 OA
ATOM      5  C   UNL     1      -3.670   1.634  24.734  0.00  0.00    +0.169 C 
ATOM     16  C   UNL     1      -3.331   2.380  24.642  0.00  0.00    +0.201 C 
ATOM     17  O   UNL     1      -2.535   2.569  24.754  0.00  0.00    -0.219 OA
ENDBRANCH   6   5
ENDBRANCH   7   6
TORSDOF 2
ENDMDL
MODEL 3
REMARK VINA RESULT:      -7.3      1.205      3.947
REMARK  Name = 
REMARK  2 active torsions:
REMARK  status: ('A' for Active; 'I' for Inactive)
REMARK    1  A    between atoms: C_5  and  C_6
REMARK    2  A    between atoms: C_6  and  N_7
REMARK                            x       y       z     vdW  Elec       q    Type
REMARK                         _______ _______ _______ _____ _____    ______ ____
ROOT
ATOM      7  N   UNL     1      -3.885   0.270  24.842  0.00  0.00    -0.186 NA
ATOM      8  C   UNL     1      -3.889  -0.521  24.608  0.00  0.00    +0.323 C 
ATOM      9  O   UNL     1      -4.570  -0.850  24.277  0.00  0.00    -0.251 OA
ATOM     10  N   UNL     1      -3.213  -0.983  24.703  0.00  0.00    -0.258 N 
ATOM     11  C   UNL     1      -3.216  -1.773  24.468  0.00  0.00    +0.127 C 
ATOM     12  C   UNL     1      -2.540  -2.235  24.564  0.00  0.00    +0.164 C 
ATOM     13  O   UNL     1      -1.858  -1.906  24.894  0.00  0.00    -0.350 OA
ATOM     14  C   UNL     1      -1.855  -1.115  25.128  0.00  0.00    +0.164 C 
ATOM     15  C   UNL     1      -2.531  -0.654  25.033  0.00  0.00    +0.127 C 
ENDROOT
BRANCH   7   6
ATOM      6  C   UNL     1      -4.563   0.732  24.747  0.00  0.00    +0.149 C 
BRANCH   6   5
ATOM      1  N   UNL     1      -5.393   3.412  25.496  0.00  0.00    -0.127 NA
ATOM      2  C   UNL     1      -4.927   2.766  25.283  0.00  0.00    +0.154 C 
ATOM      3  C   UNL     1      -4.107   2.771  25.185  0.00  0.00    +0.164 C 
ATOM      4  O   UNL     1      -3.871   2.010  24.972  0.00  0.00    -0.350 OA
ATOM      5  C   UNL     1      -4.545   1.535  24.939  0.00  0.00    +0.169 C 
ATOM     16  C   UNL     1      -5.197   2.002  25.131  0.00  0.00    +0.201 C 
ATOM     17  O   UNL     1      -5.982   1.749  25.165  0.00  0.00    -0.219 OA
ENDBRANCH   6   5
ENDBRANCH   7   6
TORSDOF 2
ENDMDL
MODEL 4
REMARK VINA RESULT:      -7.1      1.919      2.186
REMARK  Name = 
REMARK  2 active torsions:
REMARK  status: ('A' for Active; 'I' for Inactive)
REMARK    1  A    between atoms: C_5  and  C_6
REMARK    2  A    between atoms: C_6  and  N_7
REMARK                            x       y       z     vdW  Elec       q    Type
REMARK                         _______ _______ _______ _____ _____    ______ ____
ROOT
ATOM      7  N   UNL     1      -3.315   0.857  24.804  0.00  0.00    -0.186 NA
ATOM      8  C   UNL     1      -4.134   0.901  24.896  0.00  0.00    +0.323 C 
ATOM      9  O   UNL     1      -4.589   0.212  24.883  0.00  0.00    -0.251 OA
ATOM     10  N   UNL     1      -4.499   1.633  25.002  0.00  0.00    -0.258 N 
ATOM     11  C   UNL     1      -5.317   1.677  25.094  0.00  0.00    +0.127 C 
ATOM     12  C   UNL     1      -5.682   2.409  25.200  0.00  0.00    +0.164 C 
ATOM     13  O   UNL     1      -5.228   3.098  25.213  0.00  0.00    -0.350 OA
ATOM     14  C   UNL     1      -4.409   3.054  25.121  0.00  0.00    +0.164 C 
ATOM     15  C   UNL     1      -4.045   2.322  25.015  0.00  0.00    +0.127 C 
ENDROOT
BRANCH   7   6
ATOM      6  C   UNL     1      -2.951   0.124  24.698  0.00  0.00    +0.149 C 
BRANCH   6   5
ATOM      1  N   UNL     1      -0.242  -0.905  24.515  0.00  0.00    -0.127 NA
ATOM      2  C   UNL     1      -0.888  -0.392  24.517  0.00  0.00    +0.154 C 
ATOM      3  C   UNL     1      -0.860   0.422  24.386  0.00  0.00    +0.164 C 
ATOM      4  O   UNL     1      -1.630   0.714  24.438  0.00  0.00    -0.350 OA
ATOM      5  C   UNL     1      -2.132   0.081  24.601  0.00  0.00    +0.169 C 
ATOM     16  C   UNL     1      -1.674  -0.603  24.649  0.00  0.00    +0.201 C 
ATOM     17  O   UNL     1      -1.953  -1.364  24.803  0.00  0.00    -0.219 OA
ENDBRANCH   6   5
ENDBRANCH   7   6
TORSDOF 2
ENDMDL
MODEL 5
REMARK VINA RESULT:      -7.0      2.136      3.887
REMARK  Name = 
REMARK  2 active torsions:
REMARK  status: ('A' for Active; 'I' for Inactive)
REMARK    1  A    between atoms: C_5  and  C_6
REMARK    2  A    between atoms: C_6  and  N_7
REMARK                            x       y       z     vdW  Elec       q    Type
REMARK                         _______ _______ _______ _____ _____    ______ ____
ROOT
ATOM      7  N   UNL     1      -2.903   1.656  24.641  0.00  0.00    -0.186 NA
ATOM      8  C   UNL     1      -2.232   1.478  24.193  0.00  0.00    +0.323 C 
ATOM      9  O   UNL     1      -2.104   1.858  23.472  0.00  0.00    -0.251 OA
ATOM     10  N   UNL     1      -1.690   0.920  24.467  0.00  0.00    -0.258 N 
ATOM     11  C   UNL     1      -1.020   0.741  24.020  0.00  0.00    +0.127 C 
ATOM     12  C   UNL     1      -0.478   0.183  24.294  0.00  0.00    +0.164 C 
ATOM     13  O   UNL     1      -0.606  -0.197  25.015  0.00  0.00    -0.350 OA
ATOM     14  C   UNL     1      -1.276  -0.019  25.462  0.00  0.00    +0.164 C 
ATOM     15  C   UNL     1      -1.818   0.539  25.188  0.00  0.00    +0.127 C 
ENDROOT
BRANCH   7   6
ATOM      6  C   UNL     1      -3.445   2.214  24.366  0.00  0.00    +0.149 C 
BRANCH   6   5
ATOM      1  N   UNL     1      -5.675   3.532  25.678  0.00  0.00    -0.127 NA
ATOM      2  C   UNL     1      -5.173   2.949  25.381  0.00  0.00    +0.154 C 
ATOM      3  C   UNL     1      -5.286   2.134  25.443  0.00  0.00    +0.164 C 
ATOM      4  O   UNL     1      -4.653   1.760  25.070  0.00  0.00    -0.350 OA
ATOM      5  C   UNL     1      -4.148   2.344  24.778  0.00  0.00    +0.169 C 
ATOM     16  C   UNL     1      -4.470   3.078  24.970  0.00  0.00    +0.201 C 
ATOM     17  O   UNL     1      -4.145   3.814  24.784  0.00  0.00    -0.219 OA
ENDBRANCH   6   5
ENDBRANCH   7   6
TORSDOF 2
ENDMDL
MODEL 6
REMARK VINA RESULT:      -6.9      2.056      2.625
REMARK  Name = 
REMARK  2 active torsions:
REMARK  status: ('A' for Active; 'I' for Inactive)
REMARK    1  A    between atoms: C_5  and  C_6
REMARK    2  A    between atoms: C_6  and  N_7
REMARK                            x       y       z     vdW  Elec       q    Type
REMARK                         _______ _______ _______ _____ _____    ______ ____
ROOT
ATOM      7  N   UNL     1      -2.570   1.666  24.910  0.00  0.00    -0.186 NA
ATOM      8  C   UNL     1      -2.844   2.428  25.071  0.00  0.00    +0.323 C 
ATOM      9  O   UNL     1      -2.308   3.036  25.224  0.00  0.00    -0.251 OA
ATOM     10  N   UNL     1      -3.654   2.580  25.079  0.00  0.00    -0.258 N 
ATOM     11  C   UNL     1      -3.929   3.341  25.241  0.00  0.00    +0.127 C 
ATOM     12  C   UNL     1      -4.740   3.494  25.249  0.00  0.00    +0.164 C 
ATOM     13  O   UNL     1      -5.276   2.885  25.096  0.00  0.00    -0.350 OA
ATOM     14  C   UNL     1      -5.001   2.125  24.935  0.00  0.00    +0.164 C 
ATOM     15  C   UNL     1      -4.191   1.972  24.927  0.00  0.00    +0.127 C 
ENDROOT
BRANCH   7   6
ATOM      6  C   UNL     1      -1.758   1.514  24.901  0.00  0.00    +0.149 C 
BRANCH   6   5
ATOM      1  N   UNL     1      -0.165  -0.813  24.210  0.00  0.00    -0.127 NA
ATOM      2  C   UNL     1      -0.753  -0.333  24.531  0.00  0.00    +0.154 C 
ATOM      3  C   UNL     1      -1.380  -0.585  25.006  0.00  0.00    +0.164 C 
ATOM      4  O   UNL     1      -1.832   0.076  25.202  0.00  0.00    -0.350 OA
ATOM      5  C   UNL     1      -1.485   0.737  24.849  0.00  0.00    +0.169 C 
ATOM     16  C   UNL     1      -0.819   0.484  24.435  0.00  0.00    +0.201 C 
ATOM     17  O   UNL     1      -0.307   0.963  23.999  0.00  0.00    -0.219 OA
ENDBRANCH   6   5
ENDBRANCH   7   6
TORSDOF 2
ENDMDL
MODEL 7
REMARK VINA RESULT:      -6.8      1.807      4.163
REMARK  Name = 
REMARK  2 active torsions:
REMARK  status: ('A' for Active; 'I' for Inactive)
REMARK    1  A    between atoms: C_5  and  C_6
REMARK    2  A    between atoms: C_6  and  N_7
REMARK                            x       y       z     vdW  Elec       q    Type
REMARK                         _______ _______ _______ _____ _____    ______ ____
ROOT
ATOM      7  N   UNL     1      -2.631   0.148  24.694  0.00  0.00    -0.186 NA
ATOM      8  C   UNL     1      -3.283  -0.171  24.300  0.00  0.00    +0.323 C 
ATOM      9  O   UNL     1      -3.790   0.323  23.874  0.00  0.00    -0.251 OA
ATOM     10  N   UNL     1      -3.427  -0.982  24.331  0.00  0.00    -0.258 N 
ATOM     11  C   UNL     1      -4.078  -1.301  23.937  0.00  0.00    +0.127 C 
ATOM     12  C   UNL     1      -4.222  -2.112  23.968  0.00  0.00    +0.164 C 
ATOM     13  O   UNL     1      -3.715  -2.605  24.394  0.00  0.00    -0.350 OA
ATOM     14  C   UNL     1      -3.065  -2.287  24.787  0.00  0.00    +0.164 C 
ATOM     15  C   UNL     1      -2.920  -1.476  24.756  0.00  0.00    +0.127 C 
ENDROOT
BRANCH   7   6
ATOM      6  C   UNL     1      -2.487   0.960  24.662  0.00  0.00    +0.149 C 
BRANCH   6   5
ATOM      1  N   UNL     1      -0.594   2.824  25.835  0.00  0.00    -0.127 NA
ATOM      2  C   UNL     1      -0.942   2.130  25.557  0.00  0.00    +0.154 C 
ATOM      3  C   UNL     1      -0.603   1.377  25.575  0.00  0.00    +0.164 C 
ATOM      4  O   UNL     1      -1.140   0.848  25.242  0.00  0.00    -0.350 OA
ATOM      5  C   UNL     1      -1.811   1.273  25.018  0.00  0.00    +0.169 C 
ATOM     16  C   UNL     1      -1.689   2.065  25.213  0.00  0.00    +0.201 C 
ATOM     17  O   UNL     1      -2.220   2.684  25.087  0.00  0.00    -0.219 OA
ENDBRANCH   6   5
ENDBRANCH   7   6
TORSDOF 2
ENDMDL
MODEL 8
REMARK VINA RESULT:      -6.8      1.904      2.491
REMARK  Name = 
REMARK  2 active torsions:
REMARK  status: ('A' for Active; 'I' for Inactive)
REMARK    1  A    between atoms: C_5  and  C_6
REMARK    2  A    between atoms: C_6  and  N_7
REMARK                            x       y       z     vdW  Elec       q    Type
REMARK                         _______ _______ _______ _____ _____    ______ ____
ROOT
ATOM      7  N   UNL     1      -2.061   0.409  25.044  0.00  0.00    -0.186 NA
ATOM      8  C   UNL     1      -1.344   0.667  25.362  0.00  0.00    +0.323 C 
ATOM      9  O   UNL     1      -0.793   0.117  25.637  0.00  0.00    -0.251 OA
ATOM     10  N   UNL     1      -1.178   1.474  25.404  0.00  0.00    -0.258 N 
ATOM     11  C   UNL     1      -0.462   1.731  25.721  0.00  0.00    +0.127 C 
ATOM     12  C   UNL     1      -0.296   2.538  25.763  0.00  0.00    +0.164 C 
ATOM     13  O   UNL     1      -0.847   3.088  25.487  0.00  0.00    -0.350 OA
ATOM     14  C   UNL     1      -1.563   2.830  25.170  0.00  0.00    +0.164 C 
ATOM     15  C   UNL     1      -1.729   2.023  25.128  0.00  0.00    +0.127 C 
ENDROOT
BRANCH   7   6
ATOM      6  C   UNL     1      -2.227  -0.398  25.003  0.00  0.00    +0.149 C 
BRANCH   6   5
ATOM      1  N   UNL     1      -4.315  -2.069  23.870  0.00  0.00    -0.127 NA
ATOM      2  C   UNL     1      -3.914  -1.423  24.190  0.00  0.00    +0.154 C 
ATOM      3  C   UNL     1      -4.235  -0.675  24.332  0.00  0.00    +0.164 C 
ATOM      4  O   UNL     1      -3.642  -0.201  24.653  0.00  0.00    -0.350 OA
ATOM      5  C   UNL     1      -2.955  -0.655  24.710  0.00  0.00    +0.169 C 
ATOM     16  C   UNL     1      -3.124  -1.410  24.424  0.00  0.00    +0.201 C 
ATOM     17  O   UNL     1      -2.594  -2.041  24.380  0.00  0.00    -0.219 OA
ENDBRANCH   6   5
ENDBRANCH   7   6
TORSDOF 2
ENDMDL
MODEL 9
REMARK VINA RESULT:      -5.2     14.895     16.362
REMARK  Name = 
REMARK  2 active torsions:
REMARK  status: ('A' for Active; 'I' for Inactive)
REMARK    1  A    between atoms: C_5  and  C_6
REMARK    2  A    between atoms: C_6  and  N_7
REMARK                            x       y       z     vdW  Elec       q    Type
REMARK                         _______ _______ _______ _____ _____    ______ ____
ROOT
ATOM      7  N   UNL     1      -2.815 -10.452  13.024  0.00  0.00    -0.186 NA
ATOM      8  C   UNL     1      -2.552 -10.385  12.244  0.00  0.00    +0.323 C 
ATOM      9  O   UNL     1      -1.766 -10.558  12.057  0.00  0.00    -0.251 OA
ATOM     10  N   UNL     1      -3.074 -10.147  11.652  0.00  0.00    -0.258 N 
ATOM     11  C   UNL     1      -2.811 -10.081  10.873  0.00  0.00    +0.127 C 
ATOM     12  C   UNL     1      -3.333  -9.842  10.281  0.00  0.00    +0.164 C 
ATOM     13  O   UNL     1      -4.118  -9.669  10.468  0.00  0.00    -0.350 OA
ATOM     14  C   UNL     1      -4.381  -9.735  11.247  0.00  0.00    +0.164 C 
ATOM     15  C   UNL     1      -3.859  -9.974  11.839  0.00  0.00    +0.127 C 
ENDROOT
BRANCH   7   6
ATOM      6  C   UNL     1      -2.291 -10.691  13.616  0.00  0.00    +0.149 C 
BRANCH   6   5
ATOM      1  N   UNL     1      -2.286 -10.777  16.519  0.00  0.00    -0.127 NA
ATOM      2  C   UNL     1      -2.542 -10.762  15.735  0.00  0.00    +0.154 C 
ATOM      3  C   UNL     1      -3.327 -10.781  15.481  0.00  0.00    +0.164 C 
ATOM      4  O   UNL     1      -3.328 -10.756  14.657  0.00  0.00    -0.350 OA
ATOM      5  C   UNL     1      -2.545 -10.722  14.401  0.00  0.00    +0.169 C 
ATOM     16  C   UNL     1      -2.059 -10.726  15.067  0.00  0.00    +0.201 C 
ATOM     17  O   UNL     1      -1.234 -10.698  15.067  0.00  0.00    -0.219 OA
ENDBRANCH   6   5
ENDBRANCH   7   6
TORSDOF 2
ENDMDL
MODEL 10
REMARK VINA RESULT:      -4.9     13.339     13.589
REMARK  Name = 
REMARK  2 active torsions:
REMARK  status: ('A' for Active; 'I' for Inactive)
REMARK    1  A    between atoms: C_5  and  C_6
REMARK    2  A    between atoms: C_6  and  N_7
REMARK                            x       y       z     vdW  Elec       q    Type
REMARK                         _______ _______ _______ _____ _____    ______ ____
ROOT
ATOM      7  N   UNL     1      -7.855  -9.509  17.264  0.00  0.00    -0.186 NA
ATOM      8  C   UNL     1      -8.591  -9.646  17.614  0.00  0.00    +0.323 C 
ATOM      9  O   UNL     1      -8.701 -10.306  18.098  0.00  0.00    -0.251 OA
ATOM     10  N   UNL     1      -9.215  -9.125  17.480  0.00  0.00    -0.258 N 
ATOM     11  C   UNL     1      -9.949  -9.261  17.829  0.00  0.00    +0.127 C 
ATOM     12  C   UNL     1     -10.573  -8.739  17.695  0.00  0.00    +0.164 C 
ATOM     13  O   UNL     1     -10.463  -8.080  17.210  0.00  0.00    -0.350 OA
ATOM     14  C   UNL     1      -9.729  -7.943  16.861  0.00  0.00    +0.164 C 
ATOM     15  C   UNL     1      -9.105  -8.465  16.996  0.00  0.00    +0.127 C 
ENDROOT
BRANCH   7   6
ATOM      6  C   UNL     1      -7.231 -10.032  17.399  0.00  0.00    +0.149 C 
BRANCH   6   5
ATOM      1  N   UNL     1      -4.433 -10.202  16.642  0.00  0.00    -0.127 NA
ATOM      2  C   UNL     1      -5.238 -10.024  16.634  0.00  0.00    +0.154 C 
ATOM      3  C   UNL     1      -5.636  -9.601  16.047  0.00  0.00    +0.164 C 
ATOM      4  O   UNL     1      -6.430  -9.553  16.263  0.00  0.00    -0.350 OA
ATOM      5  C   UNL     1      -6.524  -9.946  16.982  0.00  0.00    +0.169 C 
ATOM     16  C   UNL     1      -5.787 -10.236  17.212  0.00  0.00    +0.201 C 
ATOM     17  O   UNL     1      -5.627 -10.665  17.899  0.00  0.00    -0.219 OA
ENDBRANCH   6   5
ENDBRANCH   7   6
TORSDOF 2
ENDMDL
