MODEL 1
REMARK VINA RESULT:     -12.7      0.000      0.000
REMARK  Name = 
REMARK  7 active torsions:
REMARK  status: ('A' for Active; 'I' for Inactive)
REMARK    1  A    between atoms: O_2  and  C_3
REMARK    2  A    between atoms: C_3  and  C_5
REMARK    3  A    between atoms: C_18  and  N_29
REMARK    4  A    between atoms: C_20  and  C_22
REMARK    5  A    between atoms: N_29  and  C_30
REMARK    6  A    between atoms: C_30  and  C_31
REMARK    7  A    between atoms: C_31  and  N_32
REMARK                            x       y       z     vdW  Elec       q    Type
REMARK                         _______ _______ _______ _____ _____    ______ ____
ROOT
ATOM      5  C   UNL     1      -2.944   1.521  24.859  0.00  0.00    +0.162 C 
ATOM      6  C   UNL     1      -2.942   2.330  25.016  0.00  0.00    +0.055 C 
ATOM      7  C   UNL     1      -2.242   2.762  24.948  0.00  0.00    -0.004 A 
ATOM      8  C   UNL     1      -1.544   2.384  24.723  0.00  0.00    +0.070 A 
ATOM      9  N   UNL     1      -0.943   2.948  24.702  0.00  0.00    -0.249 NA
ATOM     10  C   UNL     1      -1.269   3.676  24.914  0.00  0.00    +0.081 A 
ATOM     11  C   UNL     1      -2.072   3.560  25.066  0.00  0.00    +0.015 A 
ATOM     12  C   UNL     1      -2.544   4.198  25.293  0.00  0.00    +0.001 A 
ATOM     13  C   UNL     1      -2.214   4.951  25.368  0.00  0.00    +0.000 A 
ATOM     14  C   UNL     1      -1.411   5.066  25.216  0.00  0.00    +0.002 A 
ATOM     15  C   UNL     1      -0.938   4.428  24.989  0.00  0.00    +0.019 A 
ATOM     16  C   UNL     1      -1.546   1.574  24.566  0.00  0.00    +0.100 C 
ATOM     17  C   UNL     1      -0.849   1.195  24.340  0.00  0.00    +0.040 C 
ATOM     18  C   UNL     1      -0.852   0.386  24.183  0.00  0.00    +0.076 C 
ATOM     19  C   UNL     1      -1.552  -0.046  24.252  0.00  0.00    +0.038 C 
ATOM     20  C   UNL     1      -2.249   0.333  24.477  0.00  0.00    +0.084 C 
ATOM     21  N   UNL     1      -2.246   1.142  24.634  0.00  0.00    -0.258 NA
ENDROOT
BRANCH  20  22
ATOM     22  C   UNL     1      -2.949  -0.099  24.545  0.00  0.00    +0.020 A 
ATOM     23  C   UNL     1      -3.208  -0.352  25.286  0.00  0.00    -0.001 A 
ATOM     24  C   UNL     1      -3.907  -0.784  25.353  0.00  0.00    -0.000 A 
ATOM     25  C   UNL     1      -4.348  -0.963  24.678  0.00  0.00    +0.002 A 
ATOM     26  C   UNL     1      -4.089  -0.711  23.937  0.00  0.00    +0.029 A 
ATOM     27  C   UNL     1      -3.389  -0.279  23.870  0.00  0.00    +0.137 A 
ATOM     28  F   UNL     1      -3.610  -0.296  22.964  0.00  0.00    -0.204 F 
ENDBRANCH  20  22
BRANCH   5   3
ATOM      3  C   UNL     1      -3.785   1.247  24.989  0.00  0.00    +0.332 C 
ATOM      4  O   UNL     1      -4.430   0.670  25.471  0.00  0.00    -0.249 OA
BRANCH   3   2
ATOM      1  C   UNL     1      -5.323   1.957  24.865  0.00  0.00    +0.256 C 
ATOM      2  O   UNL     1      -4.652   1.423  24.646  0.00  0.00    -0.443 OA
ENDBRANCH   3   2
ENDBRANCH   5   3
BRANCH  18  29
ATOM     29  N   UNL     1      -0.147  -0.047  23.946  0.00  0.00    -0.217 NA
BRANCH  29  30
ATOM     30  C   UNL     1       0.438   0.319  23.434  0.00  0.00    +0.112 C 
BRANCH  30  31
ATOM     31  C   UNL     1       1.055  -0.061  23.002  0.00  0.00    +0.134 C 
BRANCH  31  32
ATOM     32  N   UNL     1       1.873   0.178  23.070  0.00  0.00    -0.204 NA
ATOM     33  C   UNL     1       2.348   0.087  22.363  0.00  0.00    +0.242 C 
ATOM     34  C   UNL     1       3.156   0.321  22.425  0.00  0.00    +0.096 C 
ATOM     35  O   UNL     1       2.071  -0.215  21.620  0.00  0.00    -0.273 OA
ENDBRANCH  31  32
ENDBRANCH  30  31
ENDBRANCH  29  30
ENDBRANCH  18  29
TORSDOF 7
ENDMDL
MODEL 2
REMARK VINA RESULT:     -12.4      1.380      3.608
REMARK  Name = 
REMARK  7 active torsions:
REMARK  status: ('A' for Active; 'I' for Inactive)
REMARK    1  A    between atoms: O_2  and  C_3
REMARK    2  A    between atoms: C_3  and  C_5
REMARK    3  A    between atoms: C_18  and  N_29
REMARK    4  A    between atoms: C_20  and  C_22
REMARK    5  A    between atoms: N_29  and  C_30
REMARK    6  A    between atoms: C_30  and  C_31
REMARK    7  A    between atoms: C_31  and  N_32
REMARK                            x       y       z     vdW  Elec       q    Type
REMARK                         _______ _______ _______ _____ _____    ______ ____
ROOT
ATOM      5  C   UNL     1      -3.314   1.008  24.518  0.00  0.00    +0.162 C 
ATOM      6  C   UNL     1      -3.655   0.258  24.546  0.00  0.00    +0.055 C 
ATOM      7  C   UNL     1      -3.177  -0.413  24.514  0.00  0.00    -0.004 A 
ATOM      8  C   UNL     1      -2.358  -0.335  24.453  0.00  0.00    +0.070 A 
ATOM      9  N   UNL     1      -2.031  -1.091  24.432  0.00  0.00    -0.249 NA
ATOM     10  C   UNL     1      -2.646  -1.639  24.479  0.00  0.00    +0.081 A 
ATOM     11  C   UNL     1      -3.356  -1.219  24.530  0.00  0.00    +0.015 A 
ATOM     12  C   UNL     1      -4.072  -1.625  24.584  0.00  0.00    +0.001 A 
ATOM     13  C   UNL     1      -4.079  -2.450  24.588  0.00  0.00    +0.000 A 
ATOM     14  C   UNL     1      -3.369  -2.869  24.537  0.00  0.00    +0.002 A 
ATOM     15  C   UNL     1      -2.653  -2.463  24.483  0.00  0.00    +0.019 A 
ATOM     16  C   UNL     1      -2.017   0.416  24.425  0.00  0.00    +0.100 C 
ATOM     17  C   UNL     1      -1.199   0.495  24.364  0.00  0.00    +0.040 C 
ATOM     18  C   UNL     1      -0.858   1.245  24.336  0.00  0.00    +0.076 C 
ATOM     19  C   UNL     1      -1.336   1.917  24.369  0.00  0.00    +0.038 C 
ATOM     20  C   UNL     1      -2.154   1.838  24.429  0.00  0.00    +0.084 C 
ATOM     21  N   UNL     1      -2.495   1.088  24.458  0.00  0.00    -0.258 NA
ENDROOT
BRANCH  20  22
ATOM     22  C   UNL     1      -2.632   2.510  24.462  0.00  0.00    +0.020 A 
ATOM     23  C   UNL     1      -3.061   2.744  23.798  0.00  0.00    -0.001 A 
ATOM     24  C   UNL     1      -3.538   3.417  23.832  0.00  0.00    -0.000 A 
ATOM     25  C   UNL     1      -3.585   3.855  24.530  0.00  0.00    +0.002 A 
ATOM     26  C   UNL     1      -3.156   3.621  25.193  0.00  0.00    +0.029 A 
ATOM     27  C   UNL     1      -2.679   2.948  25.160  0.00  0.00    +0.137 A 
ATOM     28  F   UNL     1      -2.502   3.181  26.047  0.00  0.00    -0.204 F 
ENDBRANCH  20  22
BRANCH   5   3
ATOM      3  C   UNL     1      -3.992   1.589  24.566  0.00  0.00    +0.332 C 
ATOM      4  O   UNL     1      -4.525   2.314  24.152  0.00  0.00    -0.249 OA
BRANCH   3   2
ATOM      1  C   UNL     1      -5.530   1.640  25.285  0.00  0.00    +0.256 C 
ATOM      2  O   UNL     1      -4.675   1.839  25.176  0.00  0.00    -0.443 OA
ENDBRANCH   3   2
ENDBRANCH   5   3
BRANCH  18  29
ATOM     29  N   UNL     1      -0.009   1.371  24.273  0.00  0.00    -0.217 NA
BRANCH  29  30
ATOM     30  C   UNL     1       0.450   0.959  23.676  0.00  0.00    +0.112 C 
BRANCH  30  31
ATOM     31  C   UNL     1       1.282   1.008  23.539  0.00  0.00    +0.134 C 
BRANCH  31  32
ATOM     32  N   UNL     1       1.691   0.467  23.018  0.00  0.00    -0.204 NA
ATOM     33  C   UNL     1       2.519   0.636  22.882  0.00  0.00    +0.242 C 
ATOM     34  C   UNL     1       2.928   0.106  22.370  0.00  0.00    +0.096 C 
ATOM     35  O   UNL     1       2.951   1.285  23.219  0.00  0.00    -0.273 OA
ENDBRANCH  31  32
ENDBRANCH  30  31
ENDBRANCH  29  30
ENDBRANCH  18  29
TORSDOF 7
ENDMDL
MODEL 3
REMARK VINA RESULT:     -11.2      2.441      3.147
REMARK  Name = 
REMARK  7 active torsions:
REMARK  status: ('A' for Active; 'I' for Inactive)
REMARK    1  A    between atoms: O_2  and  C_3
REMARK    2  A    between atoms: C_3  and  C_5
REMARK    3  A    between atoms: C_18  and  N_29
REMARK    4  A    between atoms: C_20  and  C_22
REMARK    5  A    between atoms: N_29  and  C_30
REMARK    6  A    between atoms: C_30  and  C_31
REMARK    7  A    between atoms: C_31  and  N_32
REMARK                            x       y       z     vdW  Elec       q    Type
REMARK                         _______ _______ _______ _____ _____    ______ ____
ROOT
ATOM      5  C   UNL     1      -4.007   3.063  25.301  0.00  0.00    +0.162 C 
ATOM      6  C   UNL     1      -3.498   3.711  25.336  0.00  0.00    +0.055 C 
ATOM      7  C   UNL     1      -2.713   3.633  25.094  0.00  0.00    -0.004 A 
ATOM      8  C   UNL     1      -2.437   2.907  24.816  0.00  0.00    +0.070 A 
ATOM      9  N   UNL     1      -1.642   2.996  24.617  0.00  0.00    -0.249 NA
ATOM     10  C   UNL     1      -1.425   3.777  24.771  0.00  0.00    +0.081 A 
ATOM     11  C   UNL     1      -2.088   4.171  25.066  0.00  0.00    +0.015 A 
ATOM     12  C   UNL     1      -2.037   4.968  25.271  0.00  0.00    +0.001 A 
ATOM     13  C   UNL     1      -1.322   5.372  25.182  0.00  0.00    +0.000 A 
ATOM     14  C   UNL     1      -0.659   4.977  24.886  0.00  0.00    +0.002 A 
ATOM     15  C   UNL     1      -0.711   4.180  24.681  0.00  0.00    +0.019 A 
ATOM     16  C   UNL     1      -2.946   2.258  24.781  0.00  0.00    +0.100 C 
ATOM     17  C   UNL     1      -2.671   1.532  24.503  0.00  0.00    +0.040 C 
ATOM     18  C   UNL     1      -3.180   0.884  24.468  0.00  0.00    +0.076 C 
ATOM     19  C   UNL     1      -3.964   0.962  24.710  0.00  0.00    +0.038 C 
ATOM     20  C   UNL     1      -4.239   1.688  24.988  0.00  0.00    +0.084 C 
ATOM     21  N   UNL     1      -3.731   2.336  25.023  0.00  0.00    -0.258 NA
ENDROOT
BRANCH  20  22
ATOM     22  C   UNL     1      -5.025   1.765  25.230  0.00  0.00    +0.020 A 
ATOM     23  C   UNL     1      -5.212   1.758  26.033  0.00  0.00    -0.001 A 
ATOM     24  C   UNL     1      -5.997   1.835  26.274  0.00  0.00    -0.000 A 
ATOM     25  C   UNL     1      -6.595   1.920  25.712  0.00  0.00    +0.002 A 
ATOM     26  C   UNL     1      -6.408   1.927  24.909  0.00  0.00    +0.029 A 
ATOM     27  C   UNL     1      -5.623   1.850  24.668  0.00  0.00    +0.137 A 
ATOM     28  F   UNL     1      -6.006   1.921  23.819  0.00  0.00    -0.204 F 
ENDBRANCH  20  22
BRANCH   5   3
ATOM      3  C   UNL     1      -4.796   3.353  25.603  0.00  0.00    +0.332 C 
ATOM      4  O   UNL     1      -5.515   3.316  26.284  0.00  0.00    -0.249 OA
BRANCH   3   2
ATOM      1  C   UNL     1      -5.668   4.810  25.566  0.00  0.00    +0.256 C 
ATOM      2  O   UNL     1      -5.470   3.973  25.355  0.00  0.00    -0.443 OA
ENDBRANCH   3   2
ENDBRANCH   5   3
BRANCH  18  29
ATOM     29  N   UNL     1      -2.932   0.110  24.185  0.00  0.00    -0.217 NA
BRANCH  29  30
ATOM     30  C   UNL     1      -2.686  -0.498  24.738  0.00  0.00    +0.112 C 
BRANCH  30  31
ATOM     31  C   UNL     1      -2.488  -1.301  24.568  0.00  0.00    +0.134 C 
BRANCH  31  32
ATOM     32  N   UNL     1      -3.044  -1.942  24.680  0.00  0.00    -0.204 NA
ATOM     33  C   UNL     1      -2.747  -2.726  24.508  0.00  0.00    +0.242 C 
ATOM     34  C   UNL     1      -3.291  -3.361  24.617  0.00  0.00    +0.096 C 
ATOM     35  O   UNL     1      -1.962  -2.908  24.242  0.00  0.00    -0.273 OA
ENDBRANCH  31  32
ENDBRANCH  30  31
ENDBRANCH  29  30
ENDBRANCH  18  29
TORSDOF 7
ENDMDL
MODEL 4
REMARK VINA RESULT:     -11.0      2.135      4.543
REMARK  Name = 
REMARK  7 active torsions:
REMARK  status: ('A' for Active; 'I' for Inactive)
REMARK    1  A    between atoms: O_2  and  C_3
REMARK    2  A    between atoms: C_3  and  C_5
REMARK    3  A    between atoms: C_18  and  N_29
REMARK    4  A    between atoms: C_20  and  C_22
REMARK    5  A    between atoms: N_29  and  C_30
REMARK    6  A    between atoms: C_30  and  C_31
REMARK    7  A    between atoms: C_31  and  N_32
REMARK                            x       y       z     vdW  Elec       q    Type
REMARK                         _______ _______ _______ _____ _____    ______ ____
ROOT
ATOM      5  C   UNL     1      -2.029  -0.483  24.625  0.00  0.00    +0.162 C 
ATOM      6  C   UNL     1      -1.338  -0.039  24.554  0.00  0.00    +0.055 C 
ATOM      7  C   UNL     1      -1.379   0.784  24.521  0.00  0.00    -0.004 A 
ATOM      8  C   UNL     1      -2.110   1.164  24.560  0.00  0.00    +0.070 A 
ATOM      9  N   UNL     1      -1.979   1.976  24.515  0.00  0.00    -0.249 NA
ATOM     10  C   UNL     1      -1.166   2.101  24.448  0.00  0.00    +0.081 A 
ATOM     11  C   UNL     1      -0.795   1.363  24.453  0.00  0.00    +0.015 A 
ATOM     12  C   UNL     1       0.026   1.315  24.393  0.00  0.00    +0.001 A 
ATOM     13  C   UNL     1       0.477   2.003  24.329  0.00  0.00    +0.000 A 
ATOM     14  C   UNL     1       0.105   2.741  24.325  0.00  0.00    +0.002 A 
ATOM     15  C   UNL     1      -0.716   2.789  24.385  0.00  0.00    +0.019 A 
ATOM     16  C   UNL     1      -2.802   0.719  24.631  0.00  0.00    +0.100 C 
ATOM     17  C   UNL     1      -3.534   1.097  24.669  0.00  0.00    +0.040 C 
ATOM     18  C   UNL     1      -4.225   0.653  24.740  0.00  0.00    +0.076 C 
ATOM     19  C   UNL     1      -4.184  -0.171  24.773  0.00  0.00    +0.038 C 
ATOM     20  C   UNL     1      -3.452  -0.549  24.735  0.00  0.00    +0.084 C 
ATOM     21  N   UNL     1      -2.761  -0.104  24.663  0.00  0.00    -0.258 NA
ENDROOT
BRANCH  20  22
ATOM     22  C   UNL     1      -3.413  -1.373  24.767  0.00  0.00    +0.020 A 
ATOM     23  C   UNL     1      -3.333  -1.810  24.073  0.00  0.00    -0.001 A 
ATOM     24  C   UNL     1      -3.293  -2.633  24.106  0.00  0.00    -0.000 A 
ATOM     25  C   UNL     1      -3.333  -3.019  24.835  0.00  0.00    +0.002 A 
ATOM     26  C   UNL     1      -3.413  -2.582  25.529  0.00  0.00    +0.029 A 
ATOM     27  C   UNL     1      -3.452  -1.758  25.496  0.00  0.00    +0.137 A 
ATOM     28  F   UNL     1      -3.524  -1.847  26.422  0.00  0.00    -0.204 F 
ENDBRANCH  20  22
BRANCH   5   3
ATOM      3  C   UNL     1      -1.771  -1.339  24.643  0.00  0.00    +0.332 C 
ATOM      4  O   UNL     1      -1.790  -2.244  24.241  0.00  0.00    -0.249 OA
BRANCH   3   2
ATOM      1  C   UNL     1      -0.377  -2.121  25.217  0.00  0.00    +0.256 C 
ATOM      2  O   UNL     1      -1.236  -1.911  25.178  0.00  0.00    -0.443 OA
ENDBRANCH   3   2
ENDBRANCH   5   3
BRANCH  18  29
ATOM     29  N   UNL     1      -5.007   1.008  24.784  0.00  0.00    -0.217 NA
BRANCH  29  30
ATOM     30  C   UNL     1      -5.102   1.860  24.734  0.00  0.00    +0.112 C 
BRANCH  30  31
ATOM     31  C   UNL     1      -5.604   2.352  25.203  0.00  0.00    +0.134 C 
BRANCH  31  32
ATOM     32  N   UNL     1      -5.701   3.187  25.046  0.00  0.00    -0.204 NA
ATOM     33  C   UNL     1      -5.712   3.696  25.733  0.00  0.00    +0.242 C 
ATOM     34  C   UNL     1      -5.807   4.520  25.584  0.00  0.00    +0.096 C 
ATOM     35  O   UNL     1      -5.636   3.438  26.538  0.00  0.00    -0.273 OA
ENDBRANCH  31  32
ENDBRANCH  30  31
ENDBRANCH  29  30
ENDBRANCH  18  29
TORSDOF 7
ENDMDL
MODEL 5
REMARK VINA RESULT:     -10.9      1.470      2.015
REMARK  Name = 
REMARK  7 active torsions:
REMARK  status: ('A' for Active; 'I' for Inactive)
REMARK    1  A    between atoms: O_2  and  C_3
REMARK    2  A    between atoms: C_3  and  C_5
REMARK    3  A    between atoms: C_18  and  N_29
REMARK    4  A    between atoms: C_20  and  C_22
REMARK    5  A    between atoms: N_29  and  C_30
REMARK    6  A    between atoms: C_30  and  C_31
REMARK    7  A    between atoms: C_31  and  N_32
REMARK                            x       y       z     vdW  Elec       q    Type
REMARK                         _______ _______ _______ _____ _____    ______ ____
ROOT
ATOM      5  C   UNL     1      -1.512   0.472  24.897  0.00  0.00    +0.162 C 
ATOM      6  C   UNL     1      -1.746   1.219  25.153  0.00  0.00    +0.055 C 
ATOM      7  C   UNL     1      -1.321   1.887  24.920  0.00  0.00    -0.004 A 
ATOM      8  C   UNL     1      -0.661   1.807  24.431  0.00  0.00    +0.070 A 
ATOM      9  N   UNL     1      -0.353   2.559  24.293  0.00  0.00    -0.249 NA
ATOM     10  C   UNL     1      -0.822   3.106  24.696  0.00  0.00    +0.081 A 
ATOM     11  C   UNL     1      -1.421   2.689  25.083  0.00  0.00    +0.015 A 
ATOM     12  C   UNL     1      -1.979   3.096  25.535  0.00  0.00    +0.001 A 
ATOM     13  C   UNL     1      -1.938   3.918  25.600  0.00  0.00    +0.000 A 
ATOM     14  C   UNL     1      -1.339   4.333  25.212  0.00  0.00    +0.002 A 
ATOM     15  C   UNL     1      -0.781   3.927  24.760  0.00  0.00    +0.019 A 
ATOM     16  C   UNL     1      -0.426   1.058  24.175  0.00  0.00    +0.100 C 
ATOM     17  C   UNL     1       0.233   0.977  23.687  0.00  0.00    +0.040 C 
ATOM     18  C   UNL     1       0.468   0.229  23.432  0.00  0.00    +0.076 C 
ATOM     19  C   UNL     1       0.043  -0.439  23.664  0.00  0.00    +0.038 C 
ATOM     20  C   UNL     1      -0.617  -0.357  24.153  0.00  0.00    +0.084 C 
ATOM     21  N   UNL     1      -0.851   0.390  24.408  0.00  0.00    -0.258 NA
ENDROOT
BRANCH  20  22
ATOM     22  C   UNL     1      -1.042  -1.026  24.385  0.00  0.00    +0.020 A 
ATOM     23  C   UNL     1      -1.743  -1.224  23.999  0.00  0.00    -0.001 A 
ATOM     24  C   UNL     1      -2.167  -1.893  24.232  0.00  0.00    -0.000 A 
ATOM     25  C   UNL     1      -1.889  -2.362  24.852  0.00  0.00    +0.002 A 
ATOM     26  C   UNL     1      -1.188  -2.164  25.238  0.00  0.00    +0.029 A 
ATOM     27  C   UNL     1      -0.764  -1.496  25.005  0.00  0.00    +0.137 A 
ATOM     28  F   UNL     1      -0.194  -1.771  25.690  0.00  0.00    -0.204 F 
ENDBRANCH  20  22
BRANCH   5   3
ATOM      3  C   UNL     1      -2.094  -0.105  25.254  0.00  0.00    +0.332 C 
ATOM      4  O   UNL     1      -2.286  -0.840  25.890  0.00  0.00    -0.249 OA
BRANCH   3   2
ATOM      1  C   UNL     1      -3.765  -0.074  25.556  0.00  0.00    +0.256 C 
ATOM      2  O   UNL     1      -3.011  -0.334  25.173  0.00  0.00    -0.443 OA
ENDBRANCH   3   2
ENDBRANCH   5   3
BRANCH  18  29
ATOM     29  N   UNL     1       1.149   0.101  22.922  0.00  0.00    -0.217 NA
BRANCH  29  30
ATOM     30  C   UNL     1       1.946   0.195  23.228  0.00  0.00    +0.112 C 
BRANCH  30  31
ATOM     31  C   UNL     1       2.665   0.244  22.788  0.00  0.00    +0.134 C 
BRANCH  31  32
ATOM     32  N   UNL     1       3.431   0.136  23.153  0.00  0.00    -0.204 NA
ATOM     33  C   UNL     1       4.095   0.478  22.734  0.00  0.00    +0.242 C 
ATOM     34  C   UNL     1       4.852   0.374  23.089  0.00  0.00    +0.096 C 
ATOM     35  O   UNL     1       4.047   0.906  22.002  0.00  0.00    -0.273 OA
ENDBRANCH  31  32
ENDBRANCH  30  31
ENDBRANCH  29  30
ENDBRANCH  18  29
TORSDOF 7
ENDMDL
MODEL 6
REMARK VINA RESULT:     -10.6      2.433      4.301
REMARK  Name = 
REMARK  7 active torsions:
REMARK  status: ('A' for Active; 'I' for Inactive)
REMARK    1  A    between atoms: O_2  and  C_3
REMARK    2  A    between atoms: C_3  and  C_5
REMARK    3  A    between atoms: C_18  and  N_29
REMARK    4  A    between atoms: C_20  and  C_22
REMARK    5  A    between atoms: N_29  and  C_30
REMARK    6  A    between atoms: C_30  and  C_31
REMARK    7  A    between atoms: C_31  and  N_32
REMARK                            x       y       z     vdW  Elec       q    Type
REMARK                         _______ _______ _______ _____ _____    ______ ____
ROOT
ATOM      5  C   UNL     1      -3.507   1.359  24.709  0.00  0.00    +0.162 C 
ATOM      6  C   UNL     1      -3.744   0.578  24.588  0.00  0.00    +0.055 C 
ATOM      7  C   UNL     1      -3.211  -0.039  24.716  0.00  0.00    -0.004 A 
ATOM      8  C   UNL     1      -2.442   0.125  24.966  0.00  0.00    +0.070 A 
ATOM      9  N   UNL     1      -2.043  -0.592  25.047  0.00  0.00    -0.249 NA
ATOM     10  C   UNL     1      -2.564  -1.200  24.848  0.00  0.00    +0.081 A 
ATOM     11  C   UNL     1      -3.287  -0.857  24.643  0.00  0.00    +0.015 A 
ATOM     12  C   UNL     1      -3.920  -1.335  24.416  0.00  0.00    +0.001 A 
ATOM     13  C   UNL     1      -3.830  -2.156  24.394  0.00  0.00    +0.000 A 
ATOM     14  C   UNL     1      -3.107  -2.497  24.599  0.00  0.00    +0.002 A 
ATOM     15  C   UNL     1      -2.474  -2.019  24.825  0.00  0.00    +0.019 A 
ATOM     16  C   UNL     1      -2.206   0.906  25.088  0.00  0.00    +0.100 C 
ATOM     17  C   UNL     1      -1.437   1.071  25.338  0.00  0.00    +0.040 C 
ATOM     18  C   UNL     1      -1.201   1.851  25.459  0.00  0.00    +0.076 C 
ATOM     19  C   UNL     1      -1.733   2.468  25.331  0.00  0.00    +0.038 C 
ATOM     20  C   UNL     1      -2.502   2.303  25.081  0.00  0.00    +0.084 C 
ATOM     21  N   UNL     1      -2.738   1.523  24.960  0.00  0.00    -0.258 NA
ENDROOT
BRANCH  20  22
ATOM     22  C   UNL     1      -3.034   2.921  24.953  0.00  0.00    +0.020 A 
ATOM     23  C   UNL     1      -3.207   3.164  24.184  0.00  0.00    -0.001 A 
ATOM     24  C   UNL     1      -3.739   3.782  24.057  0.00  0.00    -0.000 A 
ATOM     25  C   UNL     1      -4.098   4.156  24.699  0.00  0.00    +0.002 A 
ATOM     26  C   UNL     1      -3.925   3.913  25.467  0.00  0.00    +0.029 A 
ATOM     27  C   UNL     1      -3.393   3.296  25.595  0.00  0.00    +0.137 A 
ATOM     28  F   UNL     1      -3.592   3.473  26.489  0.00  0.00    -0.204 F 
ENDBRANCH  20  22
BRANCH   5   3
ATOM      3  C   UNL     1      -4.219   1.864  24.518  0.00  0.00    +0.332 C 
ATOM      4  O   UNL     1      -4.660   2.530  23.932  0.00  0.00    -0.249 OA
BRANCH   3   2
ATOM      1  C   UNL     1      -5.889   1.683  24.774  0.00  0.00    +0.256 C 
ATOM      2  O   UNL     1      -5.084   2.039  24.868  0.00  0.00    -0.443 OA
ENDBRANCH   3   2
ENDBRANCH   5   3
BRANCH  18  29
ATOM     29  N   UNL     1      -0.409   2.065  25.719  0.00  0.00    -0.217 NA
BRANCH  29  30
ATOM     30  C   UNL     1      -0.282   2.396  26.501  0.00  0.00    +0.112 C 
BRANCH  30  31
ATOM     31  C   UNL     1       0.445   2.449  26.927  0.00  0.00    +0.134 C 
BRANCH  31  32
ATOM     32  N   UNL     1       0.490   2.321  27.771  0.00  0.00    -0.204 NA
ATOM     33  C   UNL     1       1.220   2.563  28.147  0.00  0.00    +0.242 C 
ATOM     34  C   UNL     1       1.268   2.439  28.979  0.00  0.00    +0.096 C 
ATOM     35  O   UNL     1       1.885   2.912  27.751  0.00  0.00    -0.273 OA
ENDBRANCH  31  32
ENDBRANCH  30  31
ENDBRANCH  29  30
ENDBRANCH  18  29
TORSDOF 7
ENDMDL
MODEL 7
REMARK VINA RESULT:     -10.5      2.416      4.223
REMARK  Name = 
REMARK  7 active torsions:
REMARK  status: ('A' for Active; 'I' for Inactive)
REMARK    1  A    between atoms: O_2  and  C_3
REMARK    2  A    between atoms: C_3  and  C_5
REMARK    3  A    between atoms: C_18  and  N_29
REMARK    4  A    between atoms: C_20  and  C_22
REMARK    5  A    between atoms: N_29  and  C_30
REMARK    6  A    between atoms: C_30  and  C_31
REMARK    7  A    between atoms: C_31  and  N_32
REMARK                            x       y       z     vdW  Elec       q    Type
REMARK                         _______ _______ _______ _____ _____    ______ ____
ROOT
ATOM      5  C   UNL     1      -2.428   2.518  25.065  0.00  0.00    +0.162 C 
ATOM      6  C   UNL     1      -3.216   2.761  25.056  0.00  0.00    +0.055 C 
ATOM      7  C   UNL     1      -3.821   2.201  25.072  0.00  0.00    -0.004 A 
ATOM      8  C   UNL     1      -3.639   1.397  25.097  0.00  0.00    +0.070 A 
ATOM      9  N   UNL     1      -4.347   0.975  25.109  0.00  0.00    -0.249 NA
ATOM     10  C   UNL     1      -4.969   1.517  25.092  0.00  0.00    +0.081 A 
ATOM     11  C   UNL     1      -4.643   2.276  25.069  0.00  0.00    +0.015 A 
ATOM     12  C   UNL     1      -5.137   2.936  25.047  0.00  0.00    +0.001 A 
ATOM     13  C   UNL     1      -5.957   2.839  25.049  0.00  0.00    +0.000 A 
ATOM     14  C   UNL     1      -6.282   2.080  25.072  0.00  0.00    +0.002 A 
ATOM     15  C   UNL     1      -5.788   1.420  25.093  0.00  0.00    +0.019 A 
ATOM     16  C   UNL     1      -2.851   1.153  25.106  0.00  0.00    +0.100 C 
ATOM     17  C   UNL     1      -2.667   0.349  25.132  0.00  0.00    +0.040 C 
ATOM     18  C   UNL     1      -1.880   0.106  25.140  0.00  0.00    +0.076 C 
ATOM     19  C   UNL     1      -1.274   0.666  25.124  0.00  0.00    +0.038 C 
ATOM     20  C   UNL     1      -1.458   1.470  25.099  0.00  0.00    +0.084 C 
ATOM     21  N   UNL     1      -2.245   1.713  25.090  0.00  0.00    -0.258 NA
ENDROOT
BRANCH  20  22
ATOM     22  C   UNL     1      -0.852   2.030  25.083  0.00  0.00    +0.020 A 
ATOM     23  C   UNL     1      -0.641   2.390  24.371  0.00  0.00    -0.001 A 
ATOM     24  C   UNL     1      -0.035   2.949  24.356  0.00  0.00    -0.000 A 
ATOM     25  C   UNL     1       0.360   3.149  25.053  0.00  0.00    +0.002 A 
ATOM     26  C   UNL     1       0.150   2.789  25.764  0.00  0.00    +0.029 A 
ATOM     27  C   UNL     1      -0.456   2.229  25.779  0.00  0.00    +0.137 A 
ATOM     28  F   UNL     1      -0.247   2.209  26.688  0.00  0.00    -0.204 F 
ENDBRANCH  20  22
BRANCH   5   3
ATOM      3  C   UNL     1      -1.939   3.266  25.043  0.00  0.00    +0.332 C 
ATOM      4  O   UNL     1      -1.260   3.827  24.590  0.00  0.00    -0.249 OA
BRANCH   3   2
ATOM      1  C   UNL     1      -2.112   4.882  25.533  0.00  0.00    +0.256 C 
ATOM      2  O   UNL     1      -1.812   4.050  25.561  0.00  0.00    -0.443 OA
ENDBRANCH   3   2
ENDBRANCH   5   3
BRANCH  18  29
ATOM     29  N   UNL     1      -1.647  -0.722  25.166  0.00  0.00    -0.217 NA
BRANCH  29  30
ATOM     30  C   UNL     1      -1.956  -1.281  24.593  0.00  0.00    +0.112 C 
BRANCH  30  31
ATOM     31  C   UNL     1      -2.247  -2.060  24.737  0.00  0.00    +0.134 C 
BRANCH  31  32
ATOM     32  N   UNL     1      -2.745  -2.472  24.177  0.00  0.00    -0.204 NA
ATOM     33  C   UNL     1      -3.387  -2.928  24.514  0.00  0.00    +0.242 C 
ATOM     34  C   UNL     1      -3.881  -3.335  23.966  0.00  0.00    +0.096 C 
ATOM     35  O   UNL     1      -3.558  -2.998  25.342  0.00  0.00    -0.273 OA
ENDBRANCH  31  32
ENDBRANCH  30  31
ENDBRANCH  29  30
ENDBRANCH  18  29
TORSDOF 7
ENDMDL
