MODEL 1
REMARK VINA RESULT:     -12.2      0.000      0.000
REMARK  Name = 
REMARK  4 active torsions:
REMARK  status: ('A' for Active; 'I' for Inactive)
REMARK    1  A    between atoms: N_2  and  C_4
REMARK    2  A    between atoms: C_7  and  C_10
REMARK    3  A    between atoms: C_13  and  C_15
REMARK    4  A    between atoms: C_20  and  C_22
REMARK                            x       y       z     vdW  Elec       q    Type
REMARK                         _______ _______ _______ _____ _____    ______ ____
ROOT
ATOM     10  C   UNL     1      -4.200   0.710  24.817  0.00  0.00    +0.250 A 
ATOM     11  N   UNL     1      -4.925   1.101  24.859  0.00  0.00    -0.107 NA
ATOM     12  N   UNL     1      -4.777   1.906  24.963  0.00  0.00    -0.111 NA
ATOM     13  C   UNL     1      -3.959   2.012  24.985  0.00  0.00    +0.228 A 
ATOM     14  O   UNL     1      -3.603   1.273  24.894  0.00  0.00    -0.419 OA
ENDROOT
BRANCH  13  15
ATOM     15  C   UNL     1      -3.566   2.731  25.081  0.00  0.00    +0.100 C 
ATOM     16  C   UNL     1      -3.922   3.473  25.148  0.00  0.00    +0.033 C 
ATOM     17  C   UNL     1      -3.323   4.035  25.235  0.00  0.00    +0.094 C 
ATOM     18  N   UNL     1      -2.599   3.641  25.222  0.00  0.00    -0.276 N 
ATOM     19  C   UNL     1      -2.749   2.835  25.127  0.00  0.00    +0.103 C 
ATOM     20  C   UNL     1      -1.855   3.991  25.292  0.00  0.00    +0.251 C 
ATOM     21  O   UNL     1      -1.792   4.809  25.384  0.00  0.00    -0.270 OA
BRANCH  20  22
ATOM     22  C   UNL     1      -1.176   3.524  25.269  0.00  0.00    +0.073 A 
ATOM     23  C   UNL     1      -0.877   3.196  25.965  0.00  0.00    +0.008 A 
ATOM     24  C   UNL     1      -0.197   2.729  25.942  0.00  0.00    +0.021 A 
ATOM     25  C   UNL     1       0.183   2.590  25.224  0.00  0.00    +0.099 A 
ATOM     26  N   UNL     1      -0.115   2.918  24.528  0.00  0.00    -0.242 NA
ATOM     27  C   UNL     1      -0.795   3.385  24.550  0.00  0.00    +0.103 A 
ENDBRANCH  20  22
ENDBRANCH  13  15
BRANCH  10   7
ATOM      4  C   UNL     1      -3.874  -1.724  24.509  0.00  0.00    +0.048 A 
ATOM      5  C   UNL     1      -3.783  -1.386  25.257  0.00  0.00    +0.015 A 
ATOM      6  C   UNL     1      -3.891  -0.575  25.359  0.00  0.00    +0.006 A 
ATOM      7  C   UNL     1      -4.092  -0.101  24.714  0.00  0.00    +0.055 A 
ATOM      8  C   UNL     1      -4.183  -0.438  23.967  0.00  0.00    +0.006 A 
ATOM      9  C   UNL     1      -4.075  -1.249  23.865  0.00  0.00    +0.015 A 
BRANCH   4   2
ATOM      1  C   UNL     1      -4.197  -2.939  23.832  0.00  0.00    +0.112 C 
ATOM      2  N   UNL     1      -3.766  -2.535  24.407  0.00  0.00    -0.304 N 
ATOM      3  C   UNL     1      -3.225  -2.942  24.879  0.00  0.00    +0.112 C 
ENDBRANCH   4   2
ENDBRANCH  10   7
TORSDOF 4
ENDMDL
MODEL 2
REMARK VINA RESULT:     -11.2      1.392      2.567
REMARK  Name = 
REMARK  4 active torsions:
REMARK  status: ('A' for Active; 'I' for Inactive)
REMARK    1  A    between atoms: N_2  and  C_4
REMARK    2  A    between atoms: C_7  and  C_10
REMARK    3  A    between atoms: C_13  and  C_15
REMARK    4  A    between atoms: C_20  and  C_22
REMARK                            x       y       z     vdW  Elec       q    Type
REMARK                         _______ _______ _______ _____ _____    ______ ____
ROOT
ATOM     10  C   UNL     1      -1.650  -0.080  25.289  0.00  0.00    +0.250 A 
ATOM     11  N   UNL     1      -0.909  -0.134  25.646  0.00  0.00    -0.107 NA
ATOM     12  N   UNL     1      -0.621   0.631  25.756  0.00  0.00    -0.111 NA
ATOM     13  C   UNL     1      -1.185   1.159  25.465  0.00  0.00    +0.228 A 
ATOM     14  O   UNL     1      -1.821   0.719  25.177  0.00  0.00    -0.419 OA
ENDROOT
BRANCH  13  15
ATOM     15  C   UNL     1      -1.124   1.981  25.463  0.00  0.00    +0.100 C 
ATOM     16  C   UNL     1      -0.424   2.416  25.519  0.00  0.00    +0.033 C 
ATOM     17  C   UNL     1      -0.620   3.218  25.495  0.00  0.00    +0.094 C 
ATOM     18  N   UNL     1      -1.440   3.278  25.425  0.00  0.00    -0.276 N 
ATOM     19  C   UNL     1      -1.751   2.514  25.406  0.00  0.00    +0.103 C 
ATOM     20  C   UNL     1      -1.872   3.980  25.383  0.00  0.00    +0.251 C 
ATOM     21  O   UNL     1      -1.482   4.706  25.409  0.00  0.00    -0.270 OA
BRANCH  20  22
ATOM     22  C   UNL     1      -2.694   3.954  25.314  0.00  0.00    +0.073 A 
ATOM     23  C   UNL     1      -3.165   3.958  25.991  0.00  0.00    +0.008 A 
ATOM     24  C   UNL     1      -3.987   3.932  25.922  0.00  0.00    +0.021 A 
ATOM     25  C   UNL     1      -4.337   3.903  25.175  0.00  0.00    +0.099 A 
ATOM     26  N   UNL     1      -3.866   3.899  24.499  0.00  0.00    -0.242 NA
ATOM     27  C   UNL     1      -3.044   3.925  24.567  0.00  0.00    +0.103 A 
ENDBRANCH  20  22
ENDBRANCH  13  15
BRANCH  10   7
ATOM      4  C   UNL     1      -3.106  -1.981  24.663  0.00  0.00    +0.048 A 
ATOM      5  C   UNL     1      -2.318  -1.965  24.416  0.00  0.00    +0.015 A 
ATOM      6  C   UNL     1      -1.833  -1.332  24.625  0.00  0.00    +0.006 A 
ATOM      7  C   UNL     1      -2.135  -0.714  25.080  0.00  0.00    +0.055 A 
ATOM      8  C   UNL     1      -2.922  -0.729  25.327  0.00  0.00    +0.006 A 
ATOM      9  C   UNL     1      -3.407  -1.363  25.118  0.00  0.00    +0.015 A 
BRANCH   4   2
ATOM      1  C   UNL     1      -3.485  -3.350  24.811  0.00  0.00    +0.112 C 
ATOM      2  N   UNL     1      -3.591  -2.615  24.454  0.00  0.00    -0.304 N 
ATOM      3  C   UNL     1      -4.182  -2.512  23.887  0.00  0.00    +0.112 C 
ENDBRANCH   4   2
ENDBRANCH  10   7
TORSDOF 4
ENDMDL
MODEL 3
REMARK VINA RESULT:     -10.6      1.581      2.303
REMARK  Name = 
REMARK  4 active torsions:
REMARK  status: ('A' for Active; 'I' for Inactive)
REMARK    1  A    between atoms: N_2  and  C_4
REMARK    2  A    between atoms: C_7  and  C_10
REMARK    3  A    between atoms: C_13  and  C_15
REMARK    4  A    between atoms: C_20  and  C_22
REMARK                            x       y       z     vdW  Elec       q    Type
REMARK                         _______ _______ _______ _____ _____    ______ ____
ROOT
ATOM     10  C   UNL     1      -3.908  -0.231  24.752  0.00  0.00    +0.250 A 
ATOM     11  N   UNL     1      -4.672  -0.434  24.514  0.00  0.00    -0.107 NA
ATOM     12  N   UNL     1      -5.152   0.231  24.602  0.00  0.00    -0.111 NA
ATOM     13  C   UNL     1      -4.685   0.845  24.895  0.00  0.00    +0.228 A 
ATOM     14  O   UNL     1      -3.917   0.559  24.988  0.00  0.00    -0.419 OA
ENDROOT
BRANCH  13  15
ATOM     15  C   UNL     1      -4.942   1.610  25.066  0.00  0.00    +0.100 C 
ATOM     16  C   UNL     1      -5.724   1.845  25.182  0.00  0.00    +0.033 C 
ATOM     17  C   UNL     1      -5.727   2.655  25.339  0.00  0.00    +0.094 C 
ATOM     18  N   UNL     1      -4.946   2.921  25.319  0.00  0.00    -0.276 N 
ATOM     19  C   UNL     1      -4.461   2.275  25.151  0.00  0.00    +0.103 C 
ATOM     20  C   UNL     1      -4.695   3.697  25.446  0.00  0.00    +0.251 C 
ATOM     21  O   UNL     1      -5.247   4.287  25.610  0.00  0.00    -0.270 OA
BRANCH  20  22
ATOM     22  C   UNL     1      -3.892   3.881  25.409  0.00  0.00    +0.073 A 
ATOM     23  C   UNL     1      -3.443   3.912  26.101  0.00  0.00    +0.008 A 
ATOM     24  C   UNL     1      -2.640   4.096  26.064  0.00  0.00    +0.021 A 
ATOM     25  C   UNL     1      -2.285   4.250  25.335  0.00  0.00    +0.099 A 
ATOM     26  N   UNL     1      -2.733   4.220  24.643  0.00  0.00    -0.242 NA
ATOM     27  C   UNL     1      -3.537   4.035  24.680  0.00  0.00    +0.103 A 
ENDBRANCH  20  22
ENDBRANCH  13  15
BRANCH  10   7
ATOM      4  C   UNL     1      -1.940  -1.731  24.758  0.00  0.00    +0.048 A 
ATOM      5  C   UNL     1      -2.694  -2.040  24.890  0.00  0.00    +0.015 A 
ATOM      6  C   UNL     1      -3.351  -1.540  24.888  0.00  0.00    +0.006 A 
ATOM      7  C   UNL     1      -3.252  -0.731  24.754  0.00  0.00    +0.055 A 
ATOM      8  C   UNL     1      -2.499  -0.423  24.622  0.00  0.00    +0.006 A 
ATOM      9  C   UNL     1      -1.843  -0.923  24.624  0.00  0.00    +0.015 A 
BRANCH   4   2
ATOM      1  C   UNL     1      -1.275  -2.902  24.281  0.00  0.00    +0.112 C 
ATOM      2  N   UNL     1      -1.284  -2.231  24.760  0.00  0.00    -0.304 N 
ATOM      3  C   UNL     1      -0.636  -2.060  25.242  0.00  0.00    +0.112 C 
ENDBRANCH   4   2
ENDBRANCH  10   7
TORSDOF 4
ENDMDL
MODEL 4
REMARK VINA RESULT:     -10.4      1.914      5.742
REMARK  Name = 
REMARK  4 active torsions:
REMARK  status: ('A' for Active; 'I' for Inactive)
REMARK    1  A    between atoms: N_2  and  C_4
REMARK    2  A    between atoms: C_7  and  C_10
REMARK    3  A    between atoms: C_13  and  C_15
REMARK    4  A    between atoms: C_20  and  C_22
REMARK                            x       y       z     vdW  Elec       q    Type
REMARK                         _______ _______ _______ _____ _____    ______ ____
ROOT
ATOM     10  C   UNL     1      -0.635   1.652  24.613  0.00  0.00    +0.250 A 
ATOM     11  N   UNL     1       0.058   1.412  24.236  0.00  0.00    -0.107 NA
ATOM     12  N   UNL     1       0.062   0.587  24.208  0.00  0.00    -0.111 NA
ATOM     13  C   UNL     1      -0.629   0.318  24.570  0.00  0.00    +0.228 A 
ATOM     14  O   UNL     1      -1.059   0.976  24.820  0.00  0.00    -0.419 OA
ENDROOT
BRANCH  13  15
ATOM     15  C   UNL     1      -0.850  -0.471  24.665  0.00  0.00    +0.100 C 
ATOM     16  C   UNL     1      -0.340  -1.105  24.800  0.00  0.00    +0.033 C 
ATOM     17  C   UNL     1      -0.796  -1.791  24.860  0.00  0.00    +0.094 C 
ATOM     18  N   UNL     1      -1.587  -1.580  24.762  0.00  0.00    -0.276 N 
ATOM     19  C   UNL     1      -1.621  -0.764  24.642  0.00  0.00    +0.103 C 
ATOM     20  C   UNL     1      -2.232  -2.095  24.781  0.00  0.00    +0.251 C 
ATOM     21  O   UNL     1      -2.112  -2.901  24.908  0.00  0.00    -0.270 OA
BRANCH  20  22
ATOM     22  C   UNL     1      -2.996  -1.803  24.674  0.00  0.00    +0.073 A 
ATOM     23  C   UNL     1      -3.361  -1.863  23.936  0.00  0.00    +0.008 A 
ATOM     24  C   UNL     1      -4.125  -1.571  23.829  0.00  0.00    +0.021 A 
ATOM     25  C   UNL     1      -4.524  -1.219  24.460  0.00  0.00    +0.099 A 
ATOM     26  N   UNL     1      -4.160  -1.159  25.197  0.00  0.00    -0.242 NA
ATOM     27  C   UNL     1      -3.395  -1.451  25.305  0.00  0.00    +0.103 A 
ENDBRANCH  20  22
ENDBRANCH  13  15
BRANCH  10   7
ATOM      4  C   UNL     1      -1.318   3.990  25.050  0.00  0.00    +0.048 A 
ATOM      5  C   UNL     1      -0.657   3.675  25.431  0.00  0.00    +0.015 A 
ATOM      6  C   UNL     1      -0.429   2.896  25.286  0.00  0.00    +0.006 A 
ATOM      7  C   UNL     1      -0.862   2.431  24.759  0.00  0.00    +0.055 A 
ATOM      8  C   UNL     1      -1.523   2.746  24.378  0.00  0.00    +0.006 A 
ATOM      9  C   UNL     1      -1.751   3.525  24.524  0.00  0.00    +0.015 A 
BRANCH   4   2
ATOM      1  C   UNL     1      -1.055   5.392  24.969  0.00  0.00    +0.112 C 
ATOM      2  N   UNL     1      -1.546   4.770  25.196  0.00  0.00    -0.304 N 
ATOM      3  C   UNL     1      -2.266   4.926  25.568  0.00  0.00    +0.112 C 
ENDBRANCH   4   2
ENDBRANCH  10   7
TORSDOF 4
ENDMDL
MODEL 5
REMARK VINA RESULT:     -10.1      1.606      4.993
REMARK  Name = 
REMARK  4 active torsions:
REMARK  status: ('A' for Active; 'I' for Inactive)
REMARK    1  A    between atoms: N_2  and  C_4
REMARK    2  A    between atoms: C_7  and  C_10
REMARK    3  A    between atoms: C_13  and  C_15
REMARK    4  A    between atoms: C_20  and  C_22
REMARK                            x       y       z     vdW  Elec       q    Type
REMARK                         _______ _______ _______ _____ _____    ______ ____
ROOT
ATOM     10  C   UNL     1      -3.484   2.116  24.850  0.00  0.00    +0.250 A 
ATOM     11  N   UNL     1      -4.307   2.073  24.886  0.00  0.00    -0.107 NA
ATOM     12  N   UNL     1      -4.526   1.283  24.792  0.00  0.00    -0.111 NA
ATOM     13  C   UNL     1      -3.838   0.838  24.697  0.00  0.00    +0.228 A 
ATOM     14  O   UNL     1      -3.194   1.353  24.733  0.00  0.00    -0.419 OA
ENDROOT
BRANCH  13  15
ATOM     15  C   UNL     1      -3.800   0.021  24.587  0.00  0.00    +0.100 C 
ATOM     16  C   UNL     1      -4.432  -0.471  24.386  0.00  0.00    +0.033 C 
ATOM     17  C   UNL     1      -4.146  -1.243  24.333  0.00  0.00    +0.094 C 
ATOM     18  N   UNL     1      -3.339  -1.228  24.499  0.00  0.00    -0.276 N 
ATOM     19  C   UNL     1      -3.125  -0.447  24.656  0.00  0.00    +0.103 C 
ATOM     20  C   UNL     1      -2.833  -1.881  24.507  0.00  0.00    +0.251 C 
ATOM     21  O   UNL     1      -3.128  -2.632  24.338  0.00  0.00    -0.270 OA
BRANCH  20  22
ATOM     22  C   UNL     1      -2.034  -1.781  24.685  0.00  0.00    +0.073 A 
ATOM     23  C   UNL     1      -1.785  -1.757  25.471  0.00  0.00    +0.008 A 
ATOM     24  C   UNL     1      -0.986  -1.657  25.649  0.00  0.00    +0.021 A 
ATOM     25  C   UNL     1      -0.435  -1.581  25.039  0.00  0.00    +0.099 A 
ATOM     26  N   UNL     1      -0.683  -1.605  24.253  0.00  0.00    -0.242 NA
ATOM     27  C   UNL     1      -1.483  -1.705  24.075  0.00  0.00    +0.103 A 
ENDBRANCH  20  22
ENDBRANCH  13  15
BRANCH  10   7
ATOM      4  C   UNL     1      -2.124   4.174  25.055  0.00  0.00    +0.048 A 
ATOM      5  C   UNL     1      -1.895   3.486  25.450  0.00  0.00    +0.015 A 
ATOM      6  C   UNL     1      -2.348   2.800  25.382  0.00  0.00    +0.006 A 
ATOM      7  C   UNL     1      -3.031   2.802  24.918  0.00  0.00    +0.055 A 
ATOM      8  C   UNL     1      -3.259   3.488  24.523  0.00  0.00    +0.006 A 
ATOM      9  C   UNL     1      -2.806   4.174  24.591  0.00  0.00    +0.015 A 
BRANCH   4   2
ATOM      1  C   UNL     1      -0.856   4.829  24.999  0.00  0.00    +0.112 C 
ATOM      2  N   UNL     1      -1.671   4.859  25.123  0.00  0.00    -0.304 N 
ATOM      3  C   UNL     1      -2.033   5.575  25.316  0.00  0.00    +0.112 C 
ENDBRANCH   4   2
ENDBRANCH  10   7
TORSDOF 4
ENDMDL
MODEL 6
REMARK VINA RESULT:      -9.9      2.412      4.266
REMARK  Name = 
REMARK  4 active torsions:
REMARK  status: ('A' for Active; 'I' for Inactive)
REMARK    1  A    between atoms: N_2  and  C_4
REMARK    2  A    between atoms: C_7  and  C_10
REMARK    3  A    between atoms: C_13  and  C_15
REMARK    4  A    between atoms: C_20  and  C_22
REMARK                            x       y       z     vdW  Elec       q    Type
REMARK                         _______ _______ _______ _____ _____    ______ ____
ROOT
ATOM     10  C   UNL     1      -1.234  -0.028  24.558  0.00  0.00    +0.250 A 
ATOM     11  N   UNL     1      -1.320  -0.351  25.312  0.00  0.00    -0.107 NA
ATOM     12  N   UNL     1      -2.106  -0.253  25.545  0.00  0.00    -0.111 NA
ATOM     13  C   UNL     1      -2.506   0.131  24.933  0.00  0.00    +0.228 A 
ATOM     14  O   UNL     1      -1.967   0.269  24.324  0.00  0.00    -0.419 OA
ENDROOT
BRANCH  13  15
ATOM     15  C   UNL     1      -3.303   0.339  24.932  0.00  0.00    +0.100 C 
ATOM     16  C   UNL     1      -3.942  -0.184  24.942  0.00  0.00    +0.033 C 
ATOM     17  C   UNL     1      -4.637   0.261  24.936  0.00  0.00    +0.094 C 
ATOM     18  N   UNL     1      -4.428   1.059  24.922  0.00  0.00    -0.276 N 
ATOM     19  C   UNL     1      -3.604   1.107  24.919  0.00  0.00    +0.103 C 
ATOM     20  C   UNL     1      -4.952   1.697  24.912  0.00  0.00    +0.251 C 
ATOM     21  O   UNL     1      -5.766   1.562  24.916  0.00  0.00    -0.270 OA
BRANCH  20  22
ATOM     22  C   UNL     1      -4.661   2.469  24.898  0.00  0.00    +0.073 A 
ATOM     23  C   UNL     1      -4.425   2.808  24.183  0.00  0.00    +0.008 A 
ATOM     24  C   UNL     1      -4.135   3.580  24.169  0.00  0.00    +0.021 A 
ATOM     25  C   UNL     1      -4.080   4.013  24.870  0.00  0.00    +0.099 A 
ATOM     26  N   UNL     1      -4.316   3.674  25.584  0.00  0.00    -0.242 NA
ATOM     27  C   UNL     1      -4.607   2.901  25.598  0.00  0.00    +0.103 A 
ENDBRANCH  20  22
ENDBRANCH  13  15
BRANCH  10   7
ATOM      4  C   UNL     1       0.855   0.035  23.232  0.00  0.00    +0.048 A 
ATOM      5  C   UNL     1       0.492   0.739  23.465  0.00  0.00    +0.015 A 
ATOM      6  C   UNL     1      -0.204   0.718  23.907  0.00  0.00    +0.006 A 
ATOM      7  C   UNL     1      -0.538  -0.007  24.116  0.00  0.00    +0.055 A 
ATOM      8  C   UNL     1      -0.176  -0.710  23.883  0.00  0.00    +0.006 A 
ATOM      9  C   UNL     1       0.520  -0.689  23.441  0.00  0.00    +0.015 A 
BRANCH   4   2
ATOM      1  C   UNL     1       2.219   0.433  23.091  0.00  0.00    +0.112 C 
ATOM      2  N   UNL     1       1.551   0.056  22.790  0.00  0.00    -0.304 N 
ATOM      3  C   UNL     1       1.577  -0.300  22.046  0.00  0.00    +0.112 C 
ENDBRANCH   4   2
ENDBRANCH  10   7
TORSDOF 4
ENDMDL
MODEL 7
REMARK VINA RESULT:      -9.8      1.933      5.082
REMARK  Name = 
REMARK  4 active torsions:
REMARK  status: ('A' for Active; 'I' for Inactive)
REMARK    1  A    between atoms: N_2  and  C_4
REMARK    2  A    between atoms: C_7  and  C_10
REMARK    3  A    between atoms: C_13  and  C_15
REMARK    4  A    between atoms: C_20  and  C_22
REMARK                            x       y       z     vdW  Elec       q    Type
REMARK                         _______ _______ _______ _____ _____    ______ ____
ROOT
ATOM     10  C   UNL     1      -2.703   1.962  24.557  0.00  0.00    +0.250 A 
ATOM     11  N   UNL     1      -2.113   2.178  24.023  0.00  0.00    -0.107 NA
ATOM     12  N   UNL     1      -1.573   1.556  23.972  0.00  0.00    -0.111 NA
ATOM     13  C   UNL     1      -1.830   0.955  24.475  0.00  0.00    +0.228 A 
ATOM     14  O   UNL     1      -2.528   1.206  24.836  0.00  0.00    -0.419 OA
ENDROOT
BRANCH  13  15
ATOM     15  C   UNL     1      -1.455   0.230  24.595  0.00  0.00    +0.100 C 
ATOM     16  C   UNL     1      -0.645   0.115  24.700  0.00  0.00    +0.033 C 
ATOM     17  C   UNL     1      -0.514  -0.694  24.801  0.00  0.00    +0.094 C 
ATOM     18  N   UNL     1      -1.242  -1.078  24.759  0.00  0.00    -0.276 N 
ATOM     19  C   UNL     1      -1.825  -0.507  24.631  0.00  0.00    +0.103 C 
ATOM     20  C   UNL     1      -1.368  -1.890  24.832  0.00  0.00    +0.251 C 
ATOM     21  O   UNL     1      -0.728  -2.396  24.959  0.00  0.00    -0.270 OA
BRANCH  20  22
ATOM     22  C   UNL     1      -2.132  -2.196  24.777  0.00  0.00    +0.073 A 
ATOM     23  C   UNL     1      -2.621  -2.205  25.441  0.00  0.00    +0.008 A 
ATOM     24  C   UNL     1      -3.385  -2.511  25.386  0.00  0.00    +0.021 A 
ATOM     25  C   UNL     1      -3.660  -2.809  24.667  0.00  0.00    +0.099 A 
ATOM     26  N   UNL     1      -3.171  -2.800  24.003  0.00  0.00    -0.242 NA
ATOM     27  C   UNL     1      -2.406  -2.494  24.058  0.00  0.00    +0.103 A 
ENDBRANCH  20  22
ENDBRANCH  13  15
BRANCH  10   7
ATOM      4  C   UNL     1      -4.653   3.340  25.208  0.00  0.00    +0.048 A 
ATOM      5  C   UNL     1      -3.909   3.500  25.528  0.00  0.00    +0.015 A 
ATOM      6  C   UNL     1      -3.259   3.041  25.311  0.00  0.00    +0.006 A 
ATOM      7  C   UNL     1      -3.353   2.421  24.774  0.00  0.00    +0.055 A 
ATOM      8  C   UNL     1      -4.095   2.261  24.454  0.00  0.00    +0.006 A 
ATOM      9  C   UNL     1      -4.746   2.720  24.671  0.00  0.00    +0.015 A 
BRANCH   4   2
ATOM      1  C   UNL     1      -5.280   4.617  25.329  0.00  0.00    +0.112 C 
ATOM      2  N   UNL     1      -5.303   3.799  25.425  0.00  0.00    -0.304 N 
ATOM      3  C   UNL     1      -5.976   3.438  25.738  0.00  0.00    +0.112 C 
ENDBRANCH   4   2
ENDBRANCH  10   7
TORSDOF 4
ENDMDL
MODEL 8
REMARK VINA RESULT:      -9.8      1.998      3.453
REMARK  Name = 
REMARK  4 active torsions:
REMARK  status: ('A' for Active; 'I' for Inactive)
REMARK    1  A    between atoms: N_2  and  C_4
REMARK    2  A    between atoms: C_7  and  C_10
REMARK    3  A    between atoms: C_13  and  C_15
REMARK    4  A    between atoms: C_20  and  C_22
REMARK                            x       y       z     vdW  Elec       q    Type
REMARK                         _______ _______ _______ _____ _____    ______ ____
ROOT
ATOM     10  C   UNL     1      -1.107   1.218  25.195  0.00  0.00    +0.250 A 
ATOM     11  N   UNL     1      -0.513   1.790  25.206  0.00  0.00    -0.107 NA
ATOM     12  N   UNL     1      -0.871   2.532  25.251  0.00  0.00    -0.111 NA
ATOM     13  C   UNL     1      -1.688   2.419  25.267  0.00  0.00    +0.228 A 
ATOM     14  O   UNL     1      -1.834   1.607  25.232  0.00  0.00    -0.419 OA
ENDROOT
BRANCH  13  15
ATOM     15  C   UNL     1      -2.259   3.012  25.310  0.00  0.00    +0.100 C 
ATOM     16  C   UNL     1      -2.113   3.820  25.394  0.00  0.00    +0.033 C 
ATOM     17  C   UNL     1      -2.841   4.210  25.412  0.00  0.00    +0.094 C 
ATOM     18  N   UNL     1      -3.435   3.643  25.340  0.00  0.00    -0.276 N 
ATOM     19  C   UNL     1      -3.076   2.903  25.276  0.00  0.00    +0.103 C 
ATOM     20  C   UNL     1      -4.247   3.790  25.331  0.00  0.00    +0.251 C 
ATOM     21  O   UNL     1      -4.526   4.564  25.400  0.00  0.00    -0.270 OA
BRANCH  20  22
ATOM     22  C   UNL     1      -4.779   3.165  25.254  0.00  0.00    +0.073 A 
ATOM     23  C   UNL     1      -5.191   2.889  25.915  0.00  0.00    +0.008 A 
ATOM     24  C   UNL     1      -5.723   2.264  25.838  0.00  0.00    +0.021 A 
ATOM     25  C   UNL     1      -5.843   1.913  25.100  0.00  0.00    +0.099 A 
ATOM     26  N   UNL     1      -5.432   2.188  24.441  0.00  0.00    -0.242 NA
ATOM     27  C   UNL     1      -4.900   2.814  24.517  0.00  0.00    +0.103 A 
ENDBRANCH  20  22
ENDBRANCH  13  15
BRANCH  10   7
ATOM      4  C   UNL     1      -0.771  -1.230  25.070  0.00  0.00    +0.048 A 
ATOM      5  C   UNL     1      -0.425  -0.737  24.506  0.00  0.00    +0.015 A 
ATOM      6  C   UNL     1      -0.537   0.079  24.548  0.00  0.00    +0.006 A 
ATOM      7  C   UNL     1      -0.995   0.402  25.153  0.00  0.00    +0.055 A 
ATOM      8  C   UNL     1      -1.341  -0.090  25.717  0.00  0.00    +0.006 A 
ATOM      9  C   UNL     1      -1.229  -0.907  25.675  0.00  0.00    +0.015 A 
BRANCH   4   2
ATOM      1  C   UNL     1       0.063  -2.375  25.253  0.00  0.00    +0.112 C 
ATOM      2  N   UNL     1      -0.659  -2.047  25.029  0.00  0.00    -0.304 N 
ATOM      3  C   UNL     1      -1.270  -2.534  24.763  0.00  0.00    +0.112 C 
ENDBRANCH   4   2
ENDBRANCH  10   7
TORSDOF 4
ENDMDL
MODEL 9
REMARK VINA RESULT:      -9.6      2.216      4.684
REMARK  Name = 
REMARK  4 active torsions:
REMARK  status: ('A' for Active; 'I' for Inactive)
REMARK    1  A    between atoms: N_2  and  C_4
REMARK    2  A    between atoms: C_7  and  C_10
REMARK    3  A    between atoms: C_13  and  C_15
REMARK    4  A    between atoms: C_20  and  C_22
REMARK                            x       y       z     vdW  Elec       q    Type
REMARK                         _______ _______ _______ _____ _____    ______ ____
ROOT
ATOM     10  C   UNL     1      -4.648   0.578  24.714  0.00  0.00    +0.250 A 
ATOM     11  N   UNL     1      -5.206   0.074  24.374  0.00  0.00    -0.107 NA
ATOM     12  N   UNL     1      -4.864  -0.673  24.299  0.00  0.00    -0.111 NA
ATOM     13  C   UNL     1      -4.095  -0.631  24.593  0.00  0.00    +0.228 A 
ATOM     14  O   UNL     1      -3.961   0.142  24.850  0.00  0.00    -0.419 OA
ENDROOT
BRANCH  13  15
ATOM     15  C   UNL     1      -3.554  -1.253  24.625  0.00  0.00    +0.100 C 
ATOM     16  C   UNL     1      -3.739  -2.054  24.699  0.00  0.00    +0.033 C 
ATOM     17  C   UNL     1      -3.032  -2.479  24.709  0.00  0.00    +0.094 C 
ATOM     18  N   UNL     1      -2.410  -1.942  24.641  0.00  0.00    -0.276 N 
ATOM     19  C   UNL     1      -2.732  -1.184  24.590  0.00  0.00    +0.103 C 
ATOM     20  C   UNL     1      -1.606  -2.129  24.628  0.00  0.00    +0.251 C 
ATOM     21  O   UNL     1      -1.365  -2.916  24.685  0.00  0.00    -0.270 OA
BRANCH  20  22
ATOM     22  C   UNL     1      -1.044  -1.529  24.557  0.00  0.00    +0.073 A 
ATOM     23  C   UNL     1      -0.735  -1.339  23.816  0.00  0.00    +0.008 A 
ATOM     24  C   UNL     1      -0.173  -0.739  23.745  0.00  0.00    +0.021 A 
ATOM     25  C   UNL     1       0.080  -0.330  24.415  0.00  0.00    +0.099 A 
ATOM     26  N   UNL     1      -0.229  -0.520  25.156  0.00  0.00    -0.242 NA
ATOM     27  C   UNL     1      -0.791  -1.120  25.227  0.00  0.00    +0.103 A 
ENDBRANCH  20  22
ENDBRANCH  13  15
BRANCH  10   7
ATOM      4  C   UNL     1      -4.977   2.975  25.236  0.00  0.00    +0.048 A 
ATOM      5  C   UNL     1      -4.423   2.748  24.667  0.00  0.00    +0.015 A 
ATOM      6  C   UNL     1      -4.314   1.949  24.493  0.00  0.00    +0.006 A 
ATOM      7  C   UNL     1      -4.758   1.377  24.888  0.00  0.00    +0.055 A 
ATOM      8  C   UNL     1      -5.310   1.602  25.456  0.00  0.00    +0.006 A 
ATOM      9  C   UNL     1      -5.420   2.401  25.630  0.00  0.00    +0.015 A 
BRANCH   4   2
ATOM      1  C   UNL     1      -5.842   4.059  25.578  0.00  0.00    +0.112 C 
ATOM      2  N   UNL     1      -5.087   3.773  25.410  0.00  0.00    -0.304 N 
ATOM      3  C   UNL     1      -4.440   4.286  25.415  0.00  0.00    +0.112 C 
ENDBRANCH   4   2
ENDBRANCH  10   7
TORSDOF 4
ENDMDL
