MODEL 1
REMARK VINA RESULT:      -6.8      0.000      0.000
REMARK  Name = 
REMARK  5 active torsions:
REMARK  status: ('A' for Active; 'I' for Inactive)
REMARK    1  A    between atoms: O_2  and  C_3
REMARK    2  A    between atoms: C_3  and  C_4
REMARK    3  A    between atoms: N_9  and  S_16
REMARK    4  A    between atoms: C_10  and  C_12
REMARK    5  A    between atoms: C_12  and  O_14
REMARK                            x       y       z     vdW  Elec       q    Type
REMARK                         _______ _______ _______ _____ _____    ______ ____
ROOT
ATOM      4  C   UNL     1      -3.508   0.080  24.352  0.00  0.00    +0.256 C 
ATOM      5  O   UNL     1      -2.702   0.015  24.187  0.00  0.00    -0.272 OA
ATOM      6  N   UNL     1      -3.827   0.808  24.570  0.00  0.00    -0.274 N 
ATOM      7  C   UNL     1      -4.632   0.874  24.735  0.00  0.00    +0.113 C 
ATOM      8  C   UNL     1      -4.950   1.603  24.953  0.00  0.00    +0.118 C 
ATOM      9  N   UNL     1      -4.464   2.267  25.006  0.00  0.00    -0.147 NA
ATOM     10  C   UNL     1      -3.658   2.202  24.841  0.00  0.00    +0.197 C 
ATOM     11  C   UNL     1      -3.339   1.473  24.623  0.00  0.00    +0.123 C 
ENDROOT
BRANCH   9  16
ATOM     16  S   UNL     1      -4.783   2.997  25.224  0.00  0.00    +0.046 S 
ATOM     17  C   UNL     1      -5.101   3.725  25.442  0.00  0.00    +0.196 C 
ATOM     18  O   UNL     1      -4.683   2.802  26.021  0.00  0.00    -0.157 OA
ATOM     19  O   UNL     1      -4.881   3.191  24.429  0.00  0.00    -0.157 OA
ENDBRANCH   9  16
BRANCH  10  12
ATOM     12  C   UNL     1      -3.170   2.865  24.894  0.00  0.00    +0.335 C 
ATOM     13  O   UNL     1      -3.183   3.435  24.296  0.00  0.00    -0.248 OA
BRANCH  12  14
ATOM     14  O   UNL     1      -2.670   2.960  25.542  0.00  0.00    -0.443 OA
ATOM     15  C   UNL     1      -1.937   3.326  25.448  0.00  0.00    +0.256 C 
ENDBRANCH  12  14
ENDBRANCH  10  12
BRANCH   4   3
ATOM      3  C   UNL     1      -3.995  -0.584  24.299  0.00  0.00    +0.227 C 
BRANCH   3   2
ATOM      1  C   UNL     1      -4.179  -1.957  23.952  0.00  0.00    +0.175 C 
ATOM      2  O   UNL     1      -3.685  -1.304  24.043  0.00  0.00    -0.342 OA
ENDBRANCH   3   2
ENDBRANCH   4   3
TORSDOF 5
ENDMDL
MODEL 2
REMARK VINA RESULT:      -6.7      1.215      2.063
REMARK  Name = 
REMARK  5 active torsions:
REMARK  status: ('A' for Active; 'I' for Inactive)
REMARK    1  A    between atoms: O_2  and  C_3
REMARK    2  A    between atoms: C_3  and  C_4
REMARK    3  A    between atoms: N_9  and  S_16
REMARK    4  A    between atoms: C_10  and  C_12
REMARK    5  A    between atoms: C_12  and  O_14
REMARK                            x       y       z     vdW  Elec       q    Type
REMARK                         _______ _______ _______ _____ _____    ______ ____
ROOT
ATOM      4  C   UNL     1      -3.342  -0.399  24.921  0.00  0.00    +0.256 C 
ATOM      5  O   UNL     1      -3.965  -0.816  25.268  0.00  0.00    -0.272 OA
ATOM      6  N   UNL     1      -3.413   0.411  24.787  0.00  0.00    -0.274 N 
ATOM      7  C   UNL     1      -2.792   0.828  24.440  0.00  0.00    +0.113 C 
ATOM      8  C   UNL     1      -2.862   1.639  24.306  0.00  0.00    +0.118 C 
ATOM      9  N   UNL     1      -3.554   2.033  24.520  0.00  0.00    -0.147 NA
ATOM     10  C   UNL     1      -4.177   1.617  24.867  0.00  0.00    +0.197 C 
ATOM     11  C   UNL     1      -4.106   0.806  25.001  0.00  0.00    +0.123 C 
ENDROOT
BRANCH   9  16
ATOM     16  S   UNL     1      -3.625   2.845  24.386  0.00  0.00    +0.046 S 
ATOM     17  C   UNL     1      -3.695   3.655  24.252  0.00  0.00    +0.196 C 
ATOM     18  O   UNL     1      -3.921   2.694  23.630  0.00  0.00    -0.157 OA
ATOM     19  O   UNL     1      -3.329   2.995  25.141  0.00  0.00    -0.157 OA
ENDBRANCH   9  16
BRANCH  10  12
ATOM     12  C   UNL     1      -4.869   2.011  25.081  0.00  0.00    +0.335 C 
ATOM     13  O   UNL     1      -4.876   2.503  25.745  0.00  0.00    -0.248 OA
BRANCH  12  14
ATOM     14  O   UNL     1      -5.555   1.914  24.633  0.00  0.00    -0.443 OA
ATOM     15  C   UNL     1      -6.291   1.900  25.003  0.00  0.00    +0.256 C 
ENDBRANCH  12  14
ENDBRANCH  10  12
BRANCH   4   3
ATOM      3  C   UNL     1      -2.651  -0.794  24.707  0.00  0.00    +0.227 C 
BRANCH   3   2
ATOM      1  C   UNL     1      -1.890  -2.000  24.624  0.00  0.00    +0.175 C 
ATOM      2  O   UNL     1      -2.583  -1.607  24.834  0.00  0.00    -0.342 OA
ENDBRANCH   3   2
ENDBRANCH   4   3
TORSDOF 5
ENDMDL
MODEL 3
REMARK VINA RESULT:      -6.6      1.818      2.247
REMARK  Name = 
REMARK  5 active torsions:
REMARK  status: ('A' for Active; 'I' for Inactive)
REMARK    1  A    between atoms: O_2  and  C_3
REMARK    2  A    between atoms: C_3  and  C_4
REMARK    3  A    between atoms: N_9  and  S_16
REMARK    4  A    between atoms: C_10  and  C_12
REMARK    5  A    between atoms: C_12  and  O_14
REMARK                            x       y       z     vdW  Elec       q    Type
REMARK                         _______ _______ _______ _____ _____    ______ ____
ROOT
ATOM      4  C   UNL     1      -1.119   1.113  25.182  0.00  0.00    +0.256 C 
ATOM      5  O   UNL     1      -0.400   1.401  25.469  0.00  0.00    -0.272 OA
ATOM      6  N   UNL     1      -1.760   1.622  25.091  0.00  0.00    -0.274 N 
ATOM      7  C   UNL     1      -2.478   1.334  24.804  0.00  0.00    +0.113 C 
ATOM      8  C   UNL     1      -3.121   1.844  24.714  0.00  0.00    +0.118 C 
ATOM      9  N   UNL     1      -3.045   2.641  24.910  0.00  0.00    -0.147 NA
ATOM     10  C   UNL     1      -2.327   2.930  25.198  0.00  0.00    +0.197 C 
ATOM     11  C   UNL     1      -1.685   2.420  25.288  0.00  0.00    +0.123 C 
ENDROOT
BRANCH   9  16
ATOM     16  S   UNL     1      -3.688   3.151  24.820  0.00  0.00    +0.046 S 
ATOM     17  C   UNL     1      -4.330   3.660  24.729  0.00  0.00    +0.196 C 
ATOM     18  O   UNL     1      -3.464   3.295  24.038  0.00  0.00    -0.157 OA
ATOM     19  O   UNL     1      -3.912   3.007  25.601  0.00  0.00    -0.157 OA
ENDBRANCH   9  16
BRANCH  10  12
ATOM     12  C   UNL     1      -2.251   3.727  25.395  0.00  0.00    +0.335 C 
ATOM     13  O   UNL     1      -2.573   4.010  26.101  0.00  0.00    -0.248 OA
BRANCH  12  14
ATOM     14  O   UNL     1      -1.855   4.242  24.888  0.00  0.00    -0.443 OA
ATOM     15  C   UNL     1      -1.416   4.868  25.196  0.00  0.00    +0.256 C 
ENDBRANCH  12  14
ENDBRANCH  10  12
BRANCH   4   3
ATOM      3  C   UNL     1      -1.193   0.315  24.985  0.00  0.00    +0.227 C 
BRANCH   3   2
ATOM      1  C   UNL     1      -0.623  -0.990  24.871  0.00  0.00    +0.175 C 
ATOM      2  O   UNL     1      -0.556  -0.198  25.090  0.00  0.00    -0.342 OA
ENDBRANCH   3   2
ENDBRANCH   4   3
TORSDOF 5
ENDMDL
MODEL 4
REMARK VINA RESULT:      -6.6      1.192      3.318
REMARK  Name = 
REMARK  5 active torsions:
REMARK  status: ('A' for Active; 'I' for Inactive)
REMARK    1  A    between atoms: O_2  and  C_3
REMARK    2  A    between atoms: C_3  and  C_4
REMARK    3  A    between atoms: N_9  and  S_16
REMARK    4  A    between atoms: C_10  and  C_12
REMARK    5  A    between atoms: C_12  and  O_14
REMARK                            x       y       z     vdW  Elec       q    Type
REMARK                         _______ _______ _______ _____ _____    ______ ____
ROOT
ATOM      4  C   UNL     1      -2.160   3.172  25.011  0.00  0.00    +0.256 C 
ATOM      5  O   UNL     1      -1.548   2.628  24.902  0.00  0.00    -0.272 OA
ATOM      6  N   UNL     1      -2.943   2.917  25.013  0.00  0.00    -0.274 N 
ATOM      7  C   UNL     1      -3.554   3.460  25.122  0.00  0.00    +0.113 C 
ATOM      8  C   UNL     1      -4.339   3.204  25.124  0.00  0.00    +0.118 C 
ATOM      9  N   UNL     1      -4.511   2.405  25.018  0.00  0.00    -0.147 NA
ATOM     10  C   UNL     1      -3.901   1.861  24.909  0.00  0.00    +0.197 C 
ATOM     11  C   UNL     1      -3.117   2.117  24.907  0.00  0.00    +0.123 C 
ENDROOT
BRANCH   9  16
ATOM     16  S   UNL     1      -5.297   2.149  25.020  0.00  0.00    +0.046 S 
ATOM     17  C   UNL     1      -6.080   1.893  25.022  0.00  0.00    +0.196 C 
ATOM     18  O   UNL     1      -5.260   2.042  25.838  0.00  0.00    -0.157 OA
ATOM     19  O   UNL     1      -5.334   2.255  24.203  0.00  0.00    -0.157 OA
ENDBRANCH   9  16
BRANCH  10  12
ATOM     12  C   UNL     1      -4.073   1.061  24.802  0.00  0.00    +0.335 C 
ATOM     13  O   UNL     1      -4.336   0.607  25.440  0.00  0.00    -0.248 OA
BRANCH  12  14
ATOM     14  O   UNL     1      -3.984   0.715  24.059  0.00  0.00    -0.443 OA
ATOM     15  C   UNL     1      -3.750  -0.074  23.997  0.00  0.00    +0.256 C 
ENDBRANCH  12  14
ENDBRANCH  10  12
BRANCH   4   3
ATOM      3  C   UNL     1      -1.986   3.972  25.118  0.00  0.00    +0.227 C 
BRANCH   3   2
ATOM      1  C   UNL     1      -1.046   5.043  25.029  0.00  0.00    +0.175 C 
ATOM      2  O   UNL     1      -1.206   4.235  25.064  0.00  0.00    -0.342 OA
ENDBRANCH   3   2
ENDBRANCH   4   3
TORSDOF 5
ENDMDL
MODEL 5
REMARK VINA RESULT:      -6.6      1.694      3.801
REMARK  Name = 
REMARK  5 active torsions:
REMARK  status: ('A' for Active; 'I' for Inactive)
REMARK    1  A    between atoms: O_2  and  C_3
REMARK    2  A    between atoms: C_3  and  C_4
REMARK    3  A    between atoms: N_9  and  S_16
REMARK    4  A    between atoms: C_10  and  C_12
REMARK    5  A    between atoms: C_12  and  O_14
REMARK                            x       y       z     vdW  Elec       q    Type
REMARK                         _______ _______ _______ _____ _____    ______ ____
ROOT
ATOM      4  C   UNL     1      -3.354   1.837  24.907  0.00  0.00    +0.256 C 
ATOM      5  O   UNL     1      -2.630   2.234  24.933  0.00  0.00    -0.272 OA
ATOM      6  N   UNL     1      -3.374   1.014  24.933  0.00  0.00    -0.274 N 
ATOM      7  C   UNL     1      -4.097   0.617  24.907  0.00  0.00    +0.113 C 
ATOM      8  C   UNL     1      -4.117  -0.207  24.933  0.00  0.00    +0.118 C 
ATOM      9  N   UNL     1      -3.414  -0.635  24.987  0.00  0.00    -0.147 NA
ATOM     10  C   UNL     1      -2.690  -0.239  25.014  0.00  0.00    +0.197 C 
ATOM     11  C   UNL     1      -2.670   0.585  24.987  0.00  0.00    +0.123 C 
ENDROOT
BRANCH   9  16
ATOM     16  S   UNL     1      -3.434  -1.460  25.014  0.00  0.00    +0.046 S 
ATOM     17  C   UNL     1      -3.454  -2.284  25.041  0.00  0.00    +0.196 C 
ATOM     18  O   UNL     1      -3.396  -1.488  24.189  0.00  0.00    -0.157 OA
ATOM     19  O   UNL     1      -3.472  -1.433  25.838  0.00  0.00    -0.157 OA
ENDBRANCH   9  16
BRANCH  10  12
ATOM     12  C   UNL     1      -1.986  -0.667  25.068  0.00  0.00    +0.335 C 
ATOM     13  O   UNL     1      -1.763  -1.004  25.788  0.00  0.00    -0.248 OA
BRANCH  12  14
ATOM     14  O   UNL     1      -1.507  -0.758  24.403  0.00  0.00    -0.443 OA
ATOM     15  C   UNL     1      -0.687  -0.786  24.487  0.00  0.00    +0.256 C 
ENDBRANCH  12  14
ENDBRANCH  10  12
BRANCH   4   3
ATOM      3  C   UNL     1      -4.057   2.266  24.853  0.00  0.00    +0.227 C 
BRANCH   3   2
ATOM      1  C   UNL     1      -4.747   3.504  25.026  0.00  0.00    +0.175 C 
ATOM      2  O   UNL     1      -4.044   3.088  24.913  0.00  0.00    -0.342 OA
ENDBRANCH   3   2
ENDBRANCH   4   3
TORSDOF 5
ENDMDL
MODEL 6
REMARK VINA RESULT:      -6.5      2.125      3.529
REMARK  Name = 
REMARK  5 active torsions:
REMARK  status: ('A' for Active; 'I' for Inactive)
REMARK    1  A    between atoms: O_2  and  C_3
REMARK    2  A    between atoms: C_3  and  C_4
REMARK    3  A    between atoms: N_9  and  S_16
REMARK    4  A    between atoms: C_10  and  C_12
REMARK    5  A    between atoms: C_12  and  O_14
REMARK                            x       y       z     vdW  Elec       q    Type
REMARK                         _______ _______ _______ _____ _____    ______ ____
ROOT
ATOM      4  C   UNL     1      -3.611   1.659  24.617  0.00  0.00    +0.256 C 
ATOM      5  O   UNL     1      -3.405   2.408  24.337  0.00  0.00    -0.272 OA
ATOM      6  N   UNL     1      -3.028   1.089  24.737  0.00  0.00    -0.274 N 
ATOM      7  C   UNL     1      -3.233   0.341  25.018  0.00  0.00    +0.113 C 
ATOM      8  C   UNL     1      -2.649  -0.229  25.138  0.00  0.00    +0.118 C 
ATOM      9  N   UNL     1      -1.860  -0.051  24.977  0.00  0.00    -0.147 NA
ATOM     10  C   UNL     1      -1.654   0.697  24.697  0.00  0.00    +0.197 C 
ATOM     11  C   UNL     1      -2.238   1.267  24.577  0.00  0.00    +0.123 C 
ENDROOT
BRANCH   9  16
ATOM     16  S   UNL     1      -1.276  -0.622  25.098  0.00  0.00    +0.046 S 
ATOM     17  C   UNL     1      -0.693  -1.192  25.217  0.00  0.00    +0.196 C 
ATOM     18  O   UNL     1      -1.197  -0.377  25.882  0.00  0.00    -0.157 OA
ATOM     19  O   UNL     1      -1.354  -0.868  24.314  0.00  0.00    -0.157 OA
ENDBRANCH   9  16
BRANCH  10  12
ATOM     12  C   UNL     1      -0.864   0.875  24.536  0.00  0.00    +0.335 C 
ATOM     13  O   UNL     1      -0.505   0.578  23.854  0.00  0.00    -0.248 OA
BRANCH  12  14
ATOM     14  O   UNL     1      -0.434   1.349  25.056  0.00  0.00    -0.443 OA
ATOM     15  C   UNL     1       0.128   1.877  24.763  0.00  0.00    +0.256 C 
ENDBRANCH  12  14
ENDBRANCH  10  12
BRANCH   4   3
ATOM      3  C   UNL     1      -4.401   1.482  24.778  0.00  0.00    +0.227 C 
BRANCH   3   2
ATOM      1  C   UNL     1      -5.752   1.918  24.936  0.00  0.00    +0.175 C 
ATOM      2  O   UNL     1      -4.982   2.058  24.675  0.00  0.00    -0.342 OA
ENDBRANCH   3   2
ENDBRANCH   4   3
TORSDOF 5
ENDMDL
