MODEL 1
REMARK VINA RESULT:     -11.8      0.000      0.000
REMARK  Name = 
REMARK  7 active torsions:
REMARK  status: ('A' for Active; 'I' for Inactive)
REMARK    1  A    between atoms: O_2  and  C_3
REMARK    2  A    between atoms: C_8  and  N_9
REMARK    3  A    between atoms: N_12  and  C_13
REMARK    4  A    between atoms: C_13  and  C_14
REMARK    5  A    between atoms: C_21  and  C_22
REMARK    6  A    between atoms: C_22  and  N_23
REMARK    7  A    between atoms: C_24  and  C_26
REMARK                            x       y       z     vdW  Elec       q    Type
REMARK                         _______ _______ _______ _____ _____    ______ ____
ROOT
ATOM     14  C   UNL     1      -4.506   1.743  24.968  0.00  0.00    +0.032 C 
ATOM     15  C   UNL     1      -3.788   1.458  24.870  0.00  0.00    +0.073 C 
ATOM     16  N   UNL     1      -4.486   1.020  24.887  0.00  0.00    -0.272 NA
ATOM     17  C   UNL     1      -5.273   1.697  25.035  0.00  0.00    +0.072 C 
ATOM     18  C   UNL     1      -5.911   1.820  25.108  0.00  0.00    +0.017 C 
ATOM     19  C   UNL     1      -5.187   1.305  24.984  0.00  0.00    +0.005 C 
ATOM     20  C   UNL     1      -5.336   0.444  24.904  0.00  0.00    +0.018 C 
ATOM     21  C   UNL     1      -4.649   0.126  24.805  0.00  0.00    +0.079 C 
ENDROOT
BRANCH  14  13
ATOM     13  C   UNL     1      -4.579   2.559  25.064  0.00  0.00    +0.074 C 
BRANCH  13  12
ATOM      9  N   UNL     1      -2.568   4.001  24.988  0.00  0.00    -0.302 N 
ATOM     10  C   UNL     1      -2.853   3.728  25.713  0.00  0.00    +0.108 C 
ATOM     11  C   UNL     1      -3.523   3.247  25.738  0.00  0.00    +0.094 C 
ATOM     12  N   UNL     1      -3.909   3.039  25.039  0.00  0.00    -0.270 NA
ATOM     35  C   UNL     1      -3.624   3.312  24.314  0.00  0.00    +0.094 C 
ATOM     36  C   UNL     1      -2.954   3.793  24.289  0.00  0.00    +0.108 C 
BRANCH   9   8
ATOM      3  C   UNL     1      -1.152   4.143  24.863  0.00  0.00    +0.152 A 
ATOM      4  C   UNL     1      -0.482   4.623  24.837  0.00  0.00    +0.038 A 
ATOM      5  C   UNL     1      -0.558   5.441  24.912  0.00  0.00    +0.003 A 
ATOM      6  C   UNL     1      -1.304   5.779  25.012  0.00  0.00    +0.001 A 
ATOM      7  C   UNL     1      -1.974   5.299  25.037  0.00  0.00    +0.018 A 
ATOM      8  C   UNL     1      -1.898   4.481  24.963  0.00  0.00    +0.082 A 
BRANCH   3   2
ATOM      1  C   UNL     1      -0.328   2.985  24.716  0.00  0.00    +0.253 C 
ATOM      2  O   UNL     1      -1.077   3.325  24.788  0.00  0.00    -0.470 OA
ENDBRANCH   3   2
ENDBRANCH   9   8
ENDBRANCH  13  12
ENDBRANCH  14  13
BRANCH  21  22
ATOM     22  C   UNL     1      -4.275  -0.599  24.690  0.00  0.00    +0.131 C 
BRANCH  22  23
ATOM     23  N   UNL     1      -4.592  -1.150  24.164  0.00  0.00    -0.200 NA
ATOM     24  C   UNL     1      -4.184  -1.848  24.000  0.00  0.00    +0.265 C 
ATOM     25  O   UNL     1      -4.501  -2.398  23.474  0.00  0.00    -0.268 OA
BRANCH  24  26
ATOM     26  C   UNL     1      -3.458  -1.997  24.365  0.00  0.00    +0.058 A 
ATOM     27  C   UNL     1      -3.430  -2.425  25.069  0.00  0.00    +0.008 A 
ATOM     28  C   UNL     1      -2.704  -2.573  25.433  0.00  0.00    +0.040 A 
ATOM     29  C   UNL     1      -2.007  -2.293  25.092  0.00  0.00    +0.176 A 
ATOM     30  O   UNL     1      -1.217  -2.354  25.322  0.00  0.00    -0.435 OA
ATOM     31  C   UNL     1      -0.757  -1.963  24.760  0.00  0.00    +0.429 C 
ATOM     32  O   UNL     1      -1.263  -1.661  24.182  0.00  0.00    -0.435 OA
ATOM     33  C   UNL     1      -2.036  -1.866  24.387  0.00  0.00    +0.177 A 
ATOM     34  C   UNL     1      -2.761  -1.717  24.024  0.00  0.00    +0.045 A 
ENDBRANCH  24  26
ENDBRANCH  22  23
ENDBRANCH  21  22
TORSDOF 7
ENDMDL
MODEL 2
REMARK VINA RESULT:     -11.2      0.981      5.375
REMARK  Name = 
REMARK  7 active torsions:
REMARK  status: ('A' for Active; 'I' for Inactive)
REMARK    1  A    between atoms: O_2  and  C_3
REMARK    2  A    between atoms: C_8  and  N_9
REMARK    3  A    between atoms: N_12  and  C_13
REMARK    4  A    between atoms: C_13  and  C_14
REMARK    5  A    between atoms: C_21  and  C_22
REMARK    6  A    between atoms: C_22  and  N_23
REMARK    7  A    between atoms: C_24  and  C_26
REMARK                            x       y       z     vdW  Elec       q    Type
REMARK                         _______ _______ _______ _____ _____    ______ ____
ROOT
ATOM     14  C   UNL     1      -4.642   1.506  24.895  0.00  0.00    +0.032 C 
ATOM     15  C   UNL     1      -3.865   1.511  24.878  0.00  0.00    +0.073 C 
ATOM     16  N   UNL     1      -4.353   2.167  24.984  0.00  0.00    -0.272 NA
ATOM     17  C   UNL     1      -5.343   1.824  24.957  0.00  0.00    +0.072 C 
ATOM     18  C   UNL     1      -5.985   1.940  24.988  0.00  0.00    +0.017 C 
ATOM     19  C   UNL     1      -5.115   2.156  24.999  0.00  0.00    +0.005 C 
ATOM     20  C   UNL     1      -4.930   3.005  25.117  0.00  0.00    +0.018 C 
ATOM     21  C   UNL     1      -4.169   3.052  25.106  0.00  0.00    +0.079 C 
ENDROOT
BRANCH  14  13
ATOM     13  C   UNL     1      -5.018   0.777  24.799  0.00  0.00    +0.074 C 
BRANCH  13  12
ATOM      9  N   UNL     1      -3.675  -1.293  24.608  0.00  0.00    -0.302 N 
ATOM     10  C   UNL     1      -3.851  -0.983  25.352  0.00  0.00    +0.108 C 
ATOM     11  C   UNL     1      -4.299  -0.292  25.416  0.00  0.00    +0.094 C 
ATOM     12  N   UNL     1      -4.571   0.088  24.736  0.00  0.00    -0.270 NA
ATOM     35  C   UNL     1      -4.394  -0.223  23.992  0.00  0.00    +0.094 C 
ATOM     36  C   UNL     1      -3.947  -0.913  23.928  0.00  0.00    +0.108 C 
BRANCH   9   8
ATOM      3  C   UNL     1      -2.404  -1.941  24.542  0.00  0.00    +0.152 A 
ATOM      4  C   UNL     1      -1.956  -2.631  24.478  0.00  0.00    +0.038 A 
ATOM      5  C   UNL     1      -2.332  -3.363  24.418  0.00  0.00    +0.003 A 
ATOM      6  C   UNL     1      -3.156  -3.404  24.421  0.00  0.00    +0.001 A 
ATOM      7  C   UNL     1      -3.604  -2.715  24.485  0.00  0.00    +0.018 A 
ATOM      8  C   UNL     1      -3.228  -1.983  24.545  0.00  0.00    +0.082 A 
BRANCH   3   2
ATOM      1  C   UNL     1      -1.204  -1.170  24.617  0.00  0.00    +0.253 C 
ATOM      2  O   UNL     1      -2.028  -1.210  24.602  0.00  0.00    -0.470 OA
ENDBRANCH   3   2
ENDBRANCH   9   8
ENDBRANCH  13  12
ENDBRANCH  14  13
BRANCH  21  22
ATOM     22  C   UNL     1      -3.545   3.588  25.169  0.00  0.00    +0.131 C 
BRANCH  22  23
ATOM     23  N   UNL     1      -3.573   4.190  25.733  0.00  0.00    -0.200 NA
ATOM     24  C   UNL     1      -2.873   4.521  26.019  0.00  0.00    +0.265 C 
ATOM     25  O   UNL     1      -2.901   5.122  26.582  0.00  0.00    -0.268 OA
BRANCH  24  26
ATOM     26  C   UNL     1      -2.144   4.251  25.739  0.00  0.00    +0.058 A 
ATOM     27  C   UNL     1      -1.792   4.616  25.088  0.00  0.00    +0.008 A 
ATOM     28  C   UNL     1      -1.064   4.346  24.808  0.00  0.00    +0.040 A 
ATOM     29  C   UNL     1      -0.689   3.711  25.180  0.00  0.00    +0.176 A 
ATOM     30  O   UNL     1       0.026   3.327  25.029  0.00  0.00    -0.435 OA
ATOM     31  C   UNL     1       0.114   2.726  25.587  0.00  0.00    +0.429 C 
ATOM     32  O   UNL     1      -0.546   2.738  26.082  0.00  0.00    -0.435 OA
ATOM     33  C   UNL     1      -1.042   3.347  25.831  0.00  0.00    +0.177 A 
ATOM     34  C   UNL     1      -1.770   3.617  26.110  0.00  0.00    +0.045 A 
ENDBRANCH  24  26
ENDBRANCH  22  23
ENDBRANCH  21  22
TORSDOF 7
ENDMDL
MODEL 3
REMARK VINA RESULT:     -10.5      1.753      6.254
REMARK  Name = 
REMARK  7 active torsions:
REMARK  status: ('A' for Active; 'I' for Inactive)
REMARK    1  A    between atoms: O_2  and  C_3
REMARK    2  A    between atoms: C_8  and  N_9
REMARK    3  A    between atoms: N_12  and  C_13
REMARK    4  A    between atoms: C_13  and  C_14
REMARK    5  A    between atoms: C_21  and  C_22
REMARK    6  A    between atoms: C_22  and  N_23
REMARK    7  A    between atoms: C_24  and  C_26
REMARK                            x       y       z     vdW  Elec       q    Type
REMARK                         _______ _______ _______ _____ _____    ______ ____
ROOT
ATOM     14  C   UNL     1      -0.332   1.244  24.643  0.00  0.00    +0.032 C 
ATOM     15  C   UNL     1      -1.014   1.323  25.009  0.00  0.00    +0.073 C 
ATOM     16  N   UNL     1      -0.482   1.928  24.840  0.00  0.00    -0.272 NA
ATOM     17  C   UNL     1       0.334   1.495  24.344  0.00  0.00    +0.072 C 
ATOM     18  C   UNL     1       0.916   1.550  24.053  0.00  0.00    +0.017 C 
ATOM     19  C   UNL     1       0.186   1.846  24.481  0.00  0.00    +0.005 C 
ATOM     20  C   UNL     1       0.158   2.708  24.646  0.00  0.00    +0.018 C 
ATOM     21  C   UNL     1      -0.503   2.825  25.008  0.00  0.00    +0.079 C 
ENDROOT
BRANCH  14  13
ATOM     13  C   UNL     1      -0.117   0.486  24.400  0.00  0.00    +0.074 C 
BRANCH  13  12
ATOM      9  N   UNL     1      -1.746  -1.372  24.556  0.00  0.00    -0.302 N 
ATOM     10  C   UNL     1      -1.792  -0.833  23.933  0.00  0.00    +0.108 C 
ATOM     11  C   UNL     1      -1.249  -0.214  23.880  0.00  0.00    +0.094 C 
ATOM     12  N   UNL     1      -0.660  -0.133  24.452  0.00  0.00    -0.270 NA
ATOM     35  C   UNL     1      -0.613  -0.671  25.075  0.00  0.00    +0.094 C 
ATOM     36  C   UNL     1      -1.156  -1.291  25.128  0.00  0.00    +0.108 C 
BRANCH   9   8
ATOM      3  C   UNL     1      -2.999  -1.883  25.014  0.00  0.00    +0.152 A 
ATOM      4  C   UNL     1      -3.541  -2.502  25.066  0.00  0.00    +0.038 A 
ATOM      5  C   UNL     1      -3.374  -3.228  24.712  0.00  0.00    +0.003 A 
ATOM      6  C   UNL     1      -2.664  -3.336  24.306  0.00  0.00    +0.001 A 
ATOM      7  C   UNL     1      -2.121  -2.717  24.254  0.00  0.00    +0.018 A 
ATOM      8  C   UNL     1      -2.288  -1.991  24.608  0.00  0.00    +0.082 A 
BRANCH   3   2
ATOM      1  C   UNL     1      -3.886  -1.043  25.754  0.00  0.00    +0.253 C 
ATOM      2  O   UNL     1      -3.166  -1.157  25.367  0.00  0.00    -0.470 OA
ENDBRANCH   3   2
ENDBRANCH   9   8
ENDBRANCH  13  12
ENDBRANCH  14  13
BRANCH  21  22
ATOM     22  C   UNL     1      -0.966   3.416  25.349  0.00  0.00    +0.131 C 
BRANCH  22  23
ATOM     23  N   UNL     1      -0.848   4.206  25.141  0.00  0.00    -0.200 NA
ATOM     24  C   UNL     1      -1.476   4.740  25.172  0.00  0.00    +0.265 C 
ATOM     25  O   UNL     1      -1.357   5.529  24.964  0.00  0.00    -0.268 OA
BRANCH  24  26
ATOM     26  C   UNL     1      -2.224   4.484  25.411  0.00  0.00    +0.058 A 
ATOM     27  C   UNL     1      -2.402   4.429  26.215  0.00  0.00    +0.008 A 
ATOM     28  C   UNL     1      -3.150   4.173  26.454  0.00  0.00    +0.040 A 
ATOM     29  C   UNL     1      -3.718   3.973  25.889  0.00  0.00    +0.176 A 
ATOM     30  O   UNL     1      -4.495   3.705  25.960  0.00  0.00    -0.435 OA
ATOM     31  C   UNL     1      -4.795   3.595  25.200  0.00  0.00    +0.429 C 
ATOM     32  O   UNL     1      -4.204   3.795  24.660  0.00  0.00    -0.435 OA
ATOM     33  C   UNL     1      -3.538   4.028  25.086  0.00  0.00    +0.177 A 
ATOM     34  C   UNL     1      -2.790   4.284  24.847  0.00  0.00    +0.045 A 
ENDBRANCH  24  26
ENDBRANCH  22  23
ENDBRANCH  21  22
TORSDOF 7
ENDMDL
MODEL 4
REMARK VINA RESULT:      -9.4      1.750      3.368
REMARK  Name = 
REMARK  7 active torsions:
REMARK  status: ('A' for Active; 'I' for Inactive)
REMARK    1  A    between atoms: O_2  and  C_3
REMARK    2  A    between atoms: C_8  and  N_9
REMARK    3  A    between atoms: N_12  and  C_13
REMARK    4  A    between atoms: C_13  and  C_14
REMARK    5  A    between atoms: C_21  and  C_22
REMARK    6  A    between atoms: C_22  and  N_23
REMARK    7  A    between atoms: C_24  and  C_26
REMARK                            x       y       z     vdW  Elec       q    Type
REMARK                         _______ _______ _______ _____ _____    ______ ____
ROOT
ATOM     14  C   UNL     1      -0.177   0.443  24.264  0.00  0.00    +0.032 C 
ATOM     15  C   UNL     1      -0.784   0.527  24.743  0.00  0.00    +0.073 C 
ATOM     16  N   UNL     1      -0.531  -0.178  24.398  0.00  0.00    -0.272 NA
ATOM     17  C   UNL     1       0.307   0.048  23.811  0.00  0.00    +0.072 C 
ATOM     18  C   UNL     1       0.785  -0.141  23.407  0.00  0.00    +0.017 C 
ATOM     19  C   UNL     1       0.064  -0.254  23.929  0.00  0.00    +0.005 C 
ATOM     20  C   UNL     1      -0.245  -1.074  23.987  0.00  0.00    +0.018 C 
ATOM     21  C   UNL     1      -0.847  -1.032  24.453  0.00  0.00    +0.079 C 
ENDROOT
BRANCH  14  13
ATOM     13  C   UNL     1       0.257   1.120  24.081  0.00  0.00    +0.074 C 
BRANCH  13  12
ATOM      9  N   UNL     1      -0.648   3.358  24.628  0.00  0.00    -0.302 N 
ATOM     10  C   UNL     1      -0.169   2.962  25.172  0.00  0.00    +0.108 C 
ATOM     11  C   UNL     1       0.133   2.215  24.989  0.00  0.00    +0.094 C 
ATOM     12  N   UNL     1      -0.044   1.865  24.263  0.00  0.00    -0.270 NA
ATOM     35  C   UNL     1      -0.522   2.262  23.720  0.00  0.00    +0.094 C 
ATOM     36  C   UNL     1      -0.824   3.008  23.903  0.00  0.00    +0.108 C 
BRANCH   9   8
ATOM      3  C   UNL     1      -1.687   4.173  25.172  0.00  0.00    +0.152 A 
ATOM      4  C   UNL     1      -1.989   4.918  25.355  0.00  0.00    +0.038 A 
ATOM      5  C   UNL     1      -1.552   5.595  25.177  0.00  0.00    +0.003 A 
ATOM      6  C   UNL     1      -0.814   5.526  24.815  0.00  0.00    +0.001 A 
ATOM      7  C   UNL     1      -0.512   4.780  24.633  0.00  0.00    +0.018 A 
ATOM      8  C   UNL     1      -0.949   4.103  24.811  0.00  0.00    +0.082 A 
BRANCH   3   2
ATOM      1  C   UNL     1      -2.877   3.566  25.681  0.00  0.00    +0.253 C 
ATOM      2  O   UNL     1      -2.124   3.496  25.351  0.00  0.00    -0.470 OA
ENDBRANCH   3   2
ENDBRANCH   9   8
ENDBRANCH  13  12
ENDBRANCH  14  13
BRANCH  21  22
ATOM     22  C   UNL     1      -1.437  -1.490  24.802  0.00  0.00    +0.131 C 
BRANCH  22  23
ATOM     23  N   UNL     1      -1.713  -2.169  24.421  0.00  0.00    -0.200 NA
ATOM     24  C   UNL     1      -2.521  -2.334  24.403  0.00  0.00    +0.265 C 
ATOM     25  O   UNL     1      -2.795  -3.012  24.023  0.00  0.00    -0.268 OA
BRANCH  24  26
ATOM     26  C   UNL     1      -3.055  -1.820  24.767  0.00  0.00    +0.058 A 
ATOM     27  C   UNL     1      -3.174  -1.858  25.583  0.00  0.00    +0.008 A 
ATOM     28  C   UNL     1      -3.707  -1.344  25.946  0.00  0.00    +0.040 A 
ATOM     29  C   UNL     1      -4.122  -0.792  25.493  0.00  0.00    +0.176 A 
ATOM     30  O   UNL     1      -4.679  -0.218  25.696  0.00  0.00    -0.435 OA
ATOM     31  C   UNL     1      -4.904   0.173  25.007  0.00  0.00    +0.429 C 
ATOM     32  O   UNL     1      -4.486  -0.158  24.377  0.00  0.00    -0.435 OA
ATOM     33  C   UNL     1      -4.003  -0.755  24.678  0.00  0.00    +0.177 A 
ATOM     34  C   UNL     1      -3.469  -1.268  24.315  0.00  0.00    +0.045 A 
ENDBRANCH  24  26
ENDBRANCH  22  23
ENDBRANCH  21  22
TORSDOF 7
ENDMDL
MODEL 5
REMARK VINA RESULT:      -9.4      3.662      5.159
REMARK  Name = 
REMARK  7 active torsions:
REMARK  status: ('A' for Active; 'I' for Inactive)
REMARK    1  A    between atoms: O_2  and  C_3
REMARK    2  A    between atoms: C_8  and  N_9
REMARK    3  A    between atoms: N_12  and  C_13
REMARK    4  A    between atoms: C_13  and  C_14
REMARK    5  A    between atoms: C_21  and  C_22
REMARK    6  A    between atoms: C_22  and  N_23
REMARK    7  A    between atoms: C_24  and  C_26
REMARK                            x       y       z     vdW  Elec       q    Type
REMARK                         _______ _______ _______ _____ _____    ______ ____
ROOT
ATOM     14  C   UNL     1      -0.309   0.503  24.204  0.00  0.00    +0.032 C 
ATOM     15  C   UNL     1       0.170   1.087  24.017  0.00  0.00    +0.073 C 
ATOM     16  N   UNL     1       0.301   0.287  23.873  0.00  0.00    -0.272 NA
ATOM     17  C   UNL     1      -0.528  -0.236  24.245  0.00  0.00    +0.072 C 
ATOM     18  C   UNL     1      -0.844  -0.797  24.352  0.00  0.00    +0.017 C 
ATOM     19  C   UNL     1      -0.171  -0.282  24.059  0.00  0.00    +0.005 C 
ATOM     20  C   UNL     1       0.498  -0.702  23.678  0.00  0.00    +0.018 C 
ATOM     21  C   UNL     1       0.994  -0.157  23.478  0.00  0.00    +0.079 C 
ENDROOT
BRANCH  14  13
ATOM     13  C   UNL     1      -1.015   0.699  24.583  0.00  0.00    +0.074 C 
BRANCH  13  12
ATOM      9  N   UNL     1      -1.577   3.072  25.006  0.00  0.00    -0.302 N 
ATOM     10  C   UNL     1      -1.192   2.630  25.585  0.00  0.00    +0.108 C 
ATOM     11  C   UNL     1      -1.004   1.838  25.445  0.00  0.00    +0.094 C 
ATOM     12  N   UNL     1      -1.203   1.489  24.724  0.00  0.00    -0.270 NA
ATOM     35  C   UNL     1      -1.588   1.932  24.144  0.00  0.00    +0.094 C 
ATOM     36  C   UNL     1      -1.776   2.724  24.285  0.00  0.00    +0.108 C 
BRANCH   9   8
ATOM      3  C   UNL     1      -2.510   4.065  25.436  0.00  0.00    +0.152 A 
ATOM      4  C   UNL     1      -2.697   4.856  25.577  0.00  0.00    +0.038 A 
ATOM      5  C   UNL     1      -2.139   5.445  25.429  0.00  0.00    +0.003 A 
ATOM      6  C   UNL     1      -1.393   5.242  25.140  0.00  0.00    +0.001 A 
ATOM      7  C   UNL     1      -1.206   4.452  24.999  0.00  0.00    +0.018 A 
ATOM      8  C   UNL     1      -1.764   3.863  25.147  0.00  0.00    +0.082 A 
BRANCH   3   2
ATOM      1  C   UNL     1      -3.825   3.681  25.841  0.00  0.00    +0.253 C 
ATOM      2  O   UNL     1      -3.069   3.476  25.584  0.00  0.00    -0.470 OA
ENDBRANCH   3   2
ENDBRANCH   9   8
ENDBRANCH  13  12
ENDBRANCH  14  13
BRANCH  21  22
ATOM     22  C   UNL     1       1.725  -0.040  23.117  0.00  0.00    +0.131 C 
BRANCH  22  23
ATOM     23  N   UNL     1       1.808  -0.150  22.304  0.00  0.00    -0.200 NA
ATOM     24  C   UNL     1       2.542  -0.043  21.943  0.00  0.00    +0.265 C 
ATOM     25  O   UNL     1       2.624  -0.154  21.131  0.00  0.00    -0.268 OA
BRANCH  24  26
ATOM     26  C   UNL     1       3.196   0.176  22.398  0.00  0.00    +0.058 A 
ATOM     27  C   UNL     1       3.380   0.975  22.497  0.00  0.00    +0.008 A 
ATOM     28  C   UNL     1       4.034   1.193  22.951  0.00  0.00    +0.040 A 
ATOM     29  C   UNL     1       4.503   0.614  23.306  0.00  0.00    +0.176 A 
ATOM     30  O   UNL     1       5.175   0.663  23.781  0.00  0.00    -0.435 OA
ATOM     31  C   UNL     1       5.406  -0.104  23.975  0.00  0.00    +0.429 C 
ATOM     32  O   UNL     1       4.876  -0.628  23.620  0.00  0.00    -0.435 OA
ATOM     33  C   UNL     1       4.317  -0.184  23.206  0.00  0.00    +0.177 A 
ATOM     34  C   UNL     1       3.664  -0.402  22.752  0.00  0.00    +0.045 A 
ENDBRANCH  24  26
ENDBRANCH  22  23
ENDBRANCH  21  22
TORSDOF 7
ENDMDL
MODEL 6
REMARK VINA RESULT:      -9.2      1.708      3.558
REMARK  Name = 
REMARK  7 active torsions:
REMARK  status: ('A' for Active; 'I' for Inactive)
REMARK    1  A    between atoms: O_2  and  C_3
REMARK    2  A    between atoms: C_8  and  N_9
REMARK    3  A    between atoms: N_12  and  C_13
REMARK    4  A    between atoms: C_13  and  C_14
REMARK    5  A    between atoms: C_21  and  C_22
REMARK    6  A    between atoms: C_22  and  N_23
REMARK    7  A    between atoms: C_24  and  C_26
REMARK                            x       y       z     vdW  Elec       q    Type
REMARK                         _______ _______ _______ _____ _____    ______ ____
ROOT
ATOM     14  C   UNL     1      -1.257   1.795  24.344  0.00  0.00    +0.032 C 
ATOM     15  C   UNL     1      -1.830   1.283  24.463  0.00  0.00    +0.073 C 
ATOM     16  N   UNL     1      -1.035   1.103  24.343  0.00  0.00    -0.272 NA
ATOM     17  C   UNL     1      -0.527   2.010  24.215  0.00  0.00    +0.072 C 
ATOM     18  C   UNL     1       0.026   2.342  24.109  0.00  0.00    +0.017 C 
ATOM     19  C   UNL     1      -0.477   1.609  24.227  0.00  0.00    +0.005 C 
ATOM     20  C   UNL     1      -0.053   0.841  24.198  0.00  0.00    +0.018 C 
ATOM     21  C   UNL     1      -0.587   0.308  24.311  0.00  0.00    +0.079 C 
ENDROOT
BRANCH  14  13
ATOM     13  C   UNL     1      -1.459   2.595  24.336  0.00  0.00    +0.074 C 
BRANCH  13  12
ATOM      9  N   UNL     1      -3.740   3.302  24.987  0.00  0.00    -0.302 N 
ATOM     10  C   UNL     1      -3.575   3.113  24.201  0.00  0.00    +0.108 C 
ATOM     11  C   UNL     1      -2.814   2.878  23.984  0.00  0.00    +0.094 C 
ATOM     12  N   UNL     1      -2.219   2.830  24.553  0.00  0.00    -0.270 NA
ATOM     35  C   UNL     1      -2.384   3.019  25.339  0.00  0.00    +0.094 C 
ATOM     36  C   UNL     1      -3.145   3.254  25.556  0.00  0.00    +0.108 C 
BRANCH   9   8
ATOM      3  C   UNL     1      -5.073   2.970  25.382  0.00  0.00    +0.152 A 
ATOM      4  C   UNL     1      -5.833   3.206  25.598  0.00  0.00    +0.038 A 
ATOM      5  C   UNL     1      -6.021   4.008  25.636  0.00  0.00    +0.003 A 
ATOM      6  C   UNL     1      -5.449   4.575  25.457  0.00  0.00    +0.001 A 
ATOM      7  C   UNL     1      -4.689   4.339  25.241  0.00  0.00    +0.018 A 
ATOM      8  C   UNL     1      -4.500   3.537  25.203  0.00  0.00    +0.082 A 
BRANCH   3   2
ATOM      1  C   UNL     1      -5.469   1.601  25.472  0.00  0.00    +0.253 C 
ATOM      2  O   UNL     1      -4.884   2.168  25.345  0.00  0.00    -0.470 OA
ENDBRANCH   3   2
ENDBRANCH   9   8
ENDBRANCH  13  12
ENDBRANCH  14  13
BRANCH  21  22
ATOM     22  C   UNL     1      -0.695  -0.507  24.370  0.00  0.00    +0.131 C 
BRANCH  22  23
ATOM     23  N   UNL     1      -0.235  -0.948  24.894  0.00  0.00    -0.200 NA
ATOM     24  C   UNL     1      -0.493  -1.689  25.148  0.00  0.00    +0.265 C 
ATOM     25  O   UNL     1      -0.033  -2.130  25.671  0.00  0.00    -0.268 OA
BRANCH  24  26
ATOM     26  C   UNL     1      -1.214  -1.990  24.879  0.00  0.00    +0.058 A 
ATOM     27  C   UNL     1      -1.246  -2.411  24.170  0.00  0.00    +0.008 A 
ATOM     28  C   UNL     1      -1.966  -2.710  23.901  0.00  0.00    +0.040 A 
ATOM     29  C   UNL     1      -2.654  -2.590  24.341  0.00  0.00    +0.176 A 
ATOM     30  O   UNL     1      -3.437  -2.818  24.215  0.00  0.00    -0.435 OA
ATOM     31  C   UNL     1      -3.887  -2.539  24.847  0.00  0.00    +0.429 C 
ATOM     32  O   UNL     1      -3.383  -2.137  25.363  0.00  0.00    -0.435 OA
ATOM     33  C   UNL     1      -2.621  -2.169  25.050  0.00  0.00    +0.177 A 
ATOM     34  C   UNL     1      -1.901  -1.869  25.319  0.00  0.00    +0.045 A 
ENDBRANCH  24  26
ENDBRANCH  22  23
ENDBRANCH  21  22
TORSDOF 7
ENDMDL
MODEL 7
REMARK VINA RESULT:      -9.0      2.184      4.722
REMARK  Name = 
REMARK  7 active torsions:
REMARK  status: ('A' for Active; 'I' for Inactive)
REMARK    1  A    between atoms: O_2  and  C_3
REMARK    2  A    between atoms: C_8  and  N_9
REMARK    3  A    between atoms: N_12  and  C_13
REMARK    4  A    between atoms: C_13  and  C_14
REMARK    5  A    between atoms: C_21  and  C_22
REMARK    6  A    between atoms: C_22  and  N_23
REMARK    7  A    between atoms: C_24  and  C_26
REMARK                            x       y       z     vdW  Elec       q    Type
REMARK                         _______ _______ _______ _____ _____    ______ ____
ROOT
ATOM     14  C   UNL     1      -2.811  -0.680  24.899  0.00  0.00    +0.032 C 
ATOM     15  C   UNL     1      -2.676   0.082  24.822  0.00  0.00    +0.073 C 
ATOM     16  N   UNL     1      -3.393  -0.265  25.030  0.00  0.00    -0.272 NA
ATOM     17  C   UNL     1      -3.243  -1.302  25.047  0.00  0.00    +0.072 C 
ATOM     18  C   UNL     1      -3.471  -1.908  25.140  0.00  0.00    +0.017 C 
ATOM     19  C   UNL     1      -3.521  -1.013  25.104  0.00  0.00    +0.005 C 
ATOM     20  C   UNL     1      -4.303  -0.663  25.292  0.00  0.00    +0.018 C 
ATOM     21  C   UNL     1      -4.210   0.092  25.227  0.00  0.00    +0.079 C 
ENDROOT
BRANCH  14  13
ATOM     13  C   UNL     1      -2.180  -1.193  24.759  0.00  0.00    +0.074 C 
BRANCH  13  12
ATOM      9  N   UNL     1      -0.059  -0.321  23.828  0.00  0.00    -0.302 N 
ATOM     10  C   UNL     1      -0.080  -0.618  24.598  0.00  0.00    +0.108 C 
ATOM     11  C   UNL     1      -0.788  -0.909  24.908  0.00  0.00    +0.094 C 
ATOM     12  N   UNL     1      -1.473  -0.903  24.450  0.00  0.00    -0.270 NA
ATOM     35  C   UNL     1      -1.451  -0.606  23.680  0.00  0.00    +0.094 C 
ATOM     36  C   UNL     1      -0.744  -0.315  23.369  0.00  0.00    +0.108 C 
BRANCH   9   8
ATOM      3  C   UNL     1       0.878   0.747  23.672  0.00  0.00    +0.152 A 
ATOM      4  C   UNL     1       1.584   1.037  23.363  0.00  0.00    +0.038 A 
ATOM      5  C   UNL     1       2.062   0.551  22.898  0.00  0.00    +0.003 A 
ATOM      6  C   UNL     1       1.833  -0.227  22.744  0.00  0.00    +0.001 A 
ATOM      7  C   UNL     1       1.126  -0.517  23.054  0.00  0.00    +0.018 A 
ATOM      8  C   UNL     1       0.648  -0.031  23.518  0.00  0.00    +0.082 A 
BRANCH   3   2
ATOM      1  C   UNL     1       0.604   2.025  24.250  0.00  0.00    +0.253 C 
ATOM      2  O   UNL     1       0.400   1.233  24.137  0.00  0.00    -0.470 OA
ENDBRANCH   3   2
ENDBRANCH   9   8
ENDBRANCH  13  12
ENDBRANCH  14  13
BRANCH  21  22
ATOM     22  C   UNL     1      -4.612   0.808  25.294  0.00  0.00    +0.131 C 
BRANCH  22  23
ATOM     23  N   UNL     1      -5.401   0.864  25.058  0.00  0.00    -0.200 NA
ATOM     24  C   UNL     1      -5.753   1.604  24.962  0.00  0.00    +0.265 C 
ATOM     25  O   UNL     1      -6.541   1.659  24.726  0.00  0.00    -0.268 OA
BRANCH  24  26
ATOM     26  C   UNL     1      -5.315   2.290  25.103  0.00  0.00    +0.058 A 
ATOM     27  C   UNL     1      -5.338   2.648  25.846  0.00  0.00    +0.008 A 
ATOM     28  C   UNL     1      -4.901   3.334  25.987  0.00  0.00    +0.040 A 
ATOM     29  C   UNL     1      -4.441   3.661  25.385  0.00  0.00    +0.176 A 
ATOM     30  O   UNL     1      -3.956   4.328  25.362  0.00  0.00    -0.435 OA
ATOM     31  C   UNL     1      -3.633   4.381  24.605  0.00  0.00    +0.429 C 
ATOM     32  O   UNL     1      -3.919   3.747  24.160  0.00  0.00    -0.435 OA
ATOM     33  C   UNL     1      -4.419   3.302  24.642  0.00  0.00    +0.177 A 
ATOM     34  C   UNL     1      -4.856   2.617  24.502  0.00  0.00    +0.045 A 
ENDBRANCH  24  26
ENDBRANCH  22  23
ENDBRANCH  21  22
TORSDOF 7
ENDMDL
