MODEL 1
REMARK VINA RESULT:     -11.5      0.000      0.000
REMARK  Name = 
REMARK  5 active torsions:
REMARK  status: ('A' for Active; 'I' for Inactive)
REMARK    1  A    between atoms: C_4  and  C_24
REMARK    2  A    between atoms: C_6  and  C_7
REMARK    3  A    between atoms: C_14  and  C_15
REMARK    4  A    between atoms: C_15  and  N_16
REMARK    5  A    between atoms: C_17  and  C_19
REMARK                            x       y       z     vdW  Elec       q    Type
REMARK                         _______ _______ _______ _____ _____    ______ ____
ROOT
ATOM      7  C   UNL     1      -3.466   2.135  24.756  0.00  0.00    +0.056 C 
ATOM      8  C   UNL     1      -3.626   1.641  25.336  0.00  0.00    +0.078 C 
ATOM      9  N   UNL     1      -3.689   1.483  24.528  0.00  0.00    -0.272 NA
ATOM     10  C   UNL     1      -3.401   2.352  24.018  0.00  0.00    +0.072 C 
ATOM     11  C   UNL     1      -3.298   2.676  23.460  0.00  0.00    +0.018 C 
ATOM     12  C   UNL     1      -3.530   1.972  23.966  0.00  0.00    +0.010 C 
ATOM     13  C   UNL     1      -3.780   1.251  23.533  0.00  0.00    +0.018 C 
ATOM     14  C   UNL     1      -3.948   0.736  24.071  0.00  0.00    +0.079 C 
ENDROOT
BRANCH   7   6
ATOM      1  C   UNL     1      -4.415   3.366  25.656  0.00  0.00    +0.153 C 
ATOM      2  N   UNL     1      -3.644   3.456  25.379  0.00  0.00    -0.253 N 
ATOM      3  N   UNL     1      -3.172   4.128  25.466  0.00  0.00    -0.174 NA
ATOM      4  C   UNL     1      -2.445   3.979  25.106  0.00  0.00    +0.079 A 
ATOM      5  C   UNL     1      -2.467   3.214  24.797  0.00  0.00    +0.031 A 
ATOM      6  C   UNL     1      -3.207   2.892  24.965  0.00  0.00    +0.058 A 
BRANCH   4  24
ATOM     24  C   UNL     1      -1.809   4.502  25.064  0.00  0.00    +0.042 C 
ATOM     25  C   UNL     1      -1.857   5.325  25.061  0.00  0.00    +0.006 C 
ATOM     26  C   UNL     1      -1.090   5.625  25.013  0.00  0.00    +0.000 C 
ATOM     27  C   UNL     1      -0.568   4.987  24.985  0.00  0.00    +0.000 C 
ATOM     28  C   UNL     1      -1.012   4.292  25.017  0.00  0.00    +0.006 C 
ENDBRANCH   4  24
ENDBRANCH   7   6
BRANCH  14  15
ATOM     15  C   UNL     1      -4.209  -0.039  24.177  0.00  0.00    +0.131 C 
BRANCH  15  16
ATOM     16  N   UNL     1      -3.663  -0.645  24.303  0.00  0.00    -0.198 NA
ATOM     17  C   UNL     1      -3.898  -1.432  24.229  0.00  0.00    +0.300 C 
ATOM     18  O   UNL     1      -4.677  -1.614  24.028  0.00  0.00    -0.265 OA
BRANCH  17  19
ATOM     19  C   UNL     1      -3.353  -2.038  24.355  0.00  0.00    +0.200 A 
ATOM     20  C   UNL     1      -3.529  -2.806  24.598  0.00  0.00    +0.046 A 
ATOM     21  C   UNL     1      -2.821  -3.225  24.654  0.00  0.00    +0.044 A 
ATOM     22  C   UNL     1      -2.206  -2.716  24.445  0.00  0.00    +0.180 A 
ATOM     23  O   UNL     1      -2.535  -1.982  24.260  0.00  0.00    -0.446 OA
ENDBRANCH  17  19
ENDBRANCH  15  16
ENDBRANCH  14  15
TORSDOF 5
ENDMDL
MODEL 2
REMARK VINA RESULT:     -11.3      2.036      2.528
REMARK  Name = 
REMARK  5 active torsions:
REMARK  status: ('A' for Active; 'I' for Inactive)
REMARK    1  A    between atoms: C_4  and  C_24
REMARK    2  A    between atoms: C_6  and  C_7
REMARK    3  A    between atoms: C_14  and  C_15
REMARK    4  A    between atoms: C_15  and  N_16
REMARK    5  A    between atoms: C_17  and  C_19
REMARK                            x       y       z     vdW  Elec       q    Type
REMARK                         _______ _______ _______ _____ _____    ______ ____
ROOT
ATOM      7  C   UNL     1      -0.802   1.391  25.240  0.00  0.00    +0.056 C 
ATOM      8  C   UNL     1      -1.189   0.936  25.739  0.00  0.00    +0.078 C 
ATOM      9  N   UNL     1      -0.843   0.696  25.029  0.00  0.00    -0.272 NA
ATOM     10  C   UNL     1      -0.403   1.544  24.597  0.00  0.00    +0.072 C 
ATOM     11  C   UNL     1      -0.065   1.824  24.113  0.00  0.00    +0.018 C 
ATOM     12  C   UNL     1      -0.465   1.148  24.545  0.00  0.00    +0.010 C 
ATOM     13  C   UNL     1      -0.425   0.363  24.154  0.00  0.00    +0.018 C 
ATOM     14  C   UNL     1      -0.797  -0.117  24.617  0.00  0.00    +0.079 C 
ENDROOT
BRANCH   7   6
ATOM      1  C   UNL     1       0.247   2.071  26.529  0.00  0.00    +0.153 C 
ATOM      2  N   UNL     1      -0.246   2.502  26.027  0.00  0.00    -0.253 N 
ATOM      3  N   UNL     1      -0.344   3.321  26.030  0.00  0.00    -0.174 NA
ATOM      4  C   UNL     1      -0.887   3.515  25.440  0.00  0.00    +0.079 A 
ATOM      5  C   UNL     1      -1.124   2.816  25.072  0.00  0.00    +0.031 A 
ATOM      6  C   UNL     1      -0.728   2.190  25.435  0.00  0.00    +0.058 A 
BRANCH   4  24
ATOM     24  C   UNL     1      -1.146   4.275  25.250  0.00  0.00    +0.042 C 
ATOM     25  C   UNL     1      -0.694   4.870  24.901  0.00  0.00    +0.006 C 
ATOM     26  C   UNL     1      -1.172   5.536  24.812  0.00  0.00    +0.000 C 
ATOM     27  C   UNL     1      -1.920   5.353  25.107  0.00  0.00    +0.000 C 
ATOM     28  C   UNL     1      -1.905   4.574  25.378  0.00  0.00    +0.006 C 
ENDBRANCH   4  24
ENDBRANCH   7   6
BRANCH  14  15
ATOM     15  C   UNL     1      -1.023  -0.905  24.697  0.00  0.00    +0.131 C 
BRANCH  15  16
ATOM     16  N   UNL     1      -1.799  -1.131  24.529  0.00  0.00    -0.198 NA
ATOM     17  C   UNL     1      -2.016  -1.925  24.578  0.00  0.00    +0.300 C 
ATOM     18  O   UNL     1      -1.459  -2.493  24.795  0.00  0.00    -0.265 OA
BRANCH  17  19
ATOM     19  C   UNL     1      -2.792  -2.151  24.410  0.00  0.00    +0.200 A 
ATOM     20  C   UNL     1      -3.139  -2.874  24.603  0.00  0.00    +0.046 A 
ATOM     21  C   UNL     1      -3.918  -2.864  24.332  0.00  0.00    +0.044 A 
ATOM     22  C   UNL     1      -4.052  -2.134  23.971  0.00  0.00    +0.180 A 
ATOM     23  O   UNL     1      -3.356  -1.694  24.020  0.00  0.00    -0.446 OA
ENDBRANCH  17  19
ENDBRANCH  15  16
ENDBRANCH  14  15
TORSDOF 5
ENDMDL
MODEL 3
REMARK VINA RESULT:     -10.9      2.678      6.061
REMARK  Name = 
REMARK  5 active torsions:
REMARK  status: ('A' for Active; 'I' for Inactive)
REMARK    1  A    between atoms: C_4  and  C_24
REMARK    2  A    between atoms: C_6  and  C_7
REMARK    3  A    between atoms: C_14  and  C_15
REMARK    4  A    between atoms: C_15  and  N_16
REMARK    5  A    between atoms: C_17  and  C_19
REMARK                            x       y       z     vdW  Elec       q    Type
REMARK                         _______ _______ _______ _____ _____    ______ ____
ROOT
ATOM      7  C   UNL     1      -1.191   0.052  24.750  0.00  0.00    +0.056 C 
ATOM      8  C   UNL     1      -0.958   0.467  24.135  0.00  0.00    +0.078 C 
ATOM      9  N   UNL     1      -0.941   0.713  24.923  0.00  0.00    -0.272 NA
ATOM     10  C   UNL     1      -1.322  -0.075  25.501  0.00  0.00    +0.072 C 
ATOM     11  C   UNL     1      -1.486  -0.326  26.081  0.00  0.00    +0.018 C 
ATOM     12  C   UNL     1      -1.172   0.300  25.521  0.00  0.00    +0.010 C 
ATOM     13  C   UNL     1      -0.907   1.051  25.891  0.00  0.00    +0.018 C 
ATOM     14  C   UNL     1      -0.667   1.490  25.315  0.00  0.00    +0.079 C 
ENDROOT
BRANCH   7   6
ATOM      1  C   UNL     1      -0.210  -1.404  24.375  0.00  0.00    +0.153 C 
ATOM      2  N   UNL     1      -1.033  -1.375  24.433  0.00  0.00    -0.253 N 
ATOM      3  N   UNL     1      -1.549  -2.010  24.329  0.00  0.00    -0.174 NA
ATOM      4  C   UNL     1      -2.319  -1.734  24.437  0.00  0.00    +0.079 A 
ATOM      5  C   UNL     1      -2.278  -0.928  24.608  0.00  0.00    +0.031 A 
ATOM      6  C   UNL     1      -1.484  -0.706  24.606  0.00  0.00    +0.058 A 
BRANCH   4  24
ATOM     24  C   UNL     1      -3.008  -2.185  24.384  0.00  0.00    +0.042 C 
ATOM     25  C   UNL     1      -3.127  -2.929  24.718  0.00  0.00    +0.006 C 
ATOM     26  C   UNL     1      -3.892  -3.174  24.527  0.00  0.00    +0.000 C 
ATOM     27  C   UNL     1      -4.244  -2.581  24.075  0.00  0.00    +0.000 C 
ATOM     28  C   UNL     1      -3.698  -1.969  23.986  0.00  0.00    +0.006 C 
ENDBRANCH   4  24
ENDBRANCH   7   6
BRANCH  14  15
ATOM     15  C   UNL     1      -0.349   2.232  25.146  0.00  0.00    +0.131 C 
BRANCH  15  16
ATOM     16  N   UNL     1      -0.800   2.912  25.265  0.00  0.00    -0.198 NA
ATOM     17  C   UNL     1      -0.578   3.621  24.908  0.00  0.00    +0.300 C 
ATOM     18  O   UNL     1       0.095   3.651  24.431  0.00  0.00    -0.265 OA
BRANCH  17  19
ATOM     19  C   UNL     1      -1.029   4.302  25.027  0.00  0.00    +0.200 A 
ATOM     20  C   UNL     1      -0.819   5.068  24.805  0.00  0.00    +0.046 A 
ATOM     21  C   UNL     1      -1.429   5.575  25.029  0.00  0.00    +0.044 A 
ATOM     22  C   UNL     1      -2.017   5.122  25.390  0.00  0.00    +0.180 A 
ATOM     23  O   UNL     1      -1.769   4.335  25.388  0.00  0.00    -0.446 OA
ENDBRANCH  17  19
ENDBRANCH  15  16
ENDBRANCH  14  15
TORSDOF 5
ENDMDL
MODEL 4
REMARK VINA RESULT:     -10.8      1.974      5.511
REMARK  Name = 
REMARK  5 active torsions:
REMARK  status: ('A' for Active; 'I' for Inactive)
REMARK    1  A    between atoms: C_4  and  C_24
REMARK    2  A    between atoms: C_6  and  C_7
REMARK    3  A    between atoms: C_14  and  C_15
REMARK    4  A    between atoms: C_15  and  N_16
REMARK    5  A    between atoms: C_17  and  C_19
REMARK                            x       y       z     vdW  Elec       q    Type
REMARK                         _______ _______ _______ _____ _____    ______ ____
ROOT
ATOM      7  C   UNL     1      -3.596   1.217  24.697  0.00  0.00    +0.056 C 
ATOM      8  C   UNL     1      -2.916   1.580  24.802  0.00  0.00    +0.078 C 
ATOM      9  N   UNL     1      -3.662   1.875  24.999  0.00  0.00    -0.272 NA
ATOM     10  C   UNL     1      -4.364   1.145  24.730  0.00  0.00    +0.072 C 
ATOM     11  C   UNL     1      -4.983   0.939  24.691  0.00  0.00    +0.018 C 
ATOM     12  C   UNL     1      -4.324   1.513  24.893  0.00  0.00    +0.010 C 
ATOM     13  C   UNL     1      -4.572   2.272  25.257  0.00  0.00    +0.018 C 
ATOM     14  C   UNL     1      -3.927   2.662  25.377  0.00  0.00    +0.079 C 
ENDROOT
BRANCH   7   6
ATOM      1  C   UNL     1      -3.267   0.849  22.971  0.00  0.00    +0.153 C 
ATOM      2  N   UNL     1      -3.423   0.297  23.563  0.00  0.00    -0.253 N 
ATOM      3  N   UNL     1      -3.455  -0.522  23.466  0.00  0.00    -0.174 NA
ATOM      4  C   UNL     1      -3.626  -0.860  24.199  0.00  0.00    +0.079 A 
ATOM      5  C   UNL     1      -3.700  -0.249  24.749  0.00  0.00    +0.031 A 
ATOM      6  C   UNL     1      -3.574   0.465  24.356  0.00  0.00    +0.058 A 
BRANCH   4  24
ATOM     24  C   UNL     1      -3.709  -1.665  24.355  0.00  0.00    +0.042 C 
ATOM     25  C   UNL     1      -4.115  -2.211  23.888  0.00  0.00    +0.006 C 
ATOM     26  C   UNL     1      -4.057  -2.950  24.249  0.00  0.00    +0.000 C 
ATOM     27  C   UNL     1      -3.614  -2.861  24.939  0.00  0.00    +0.000 C 
ATOM     28  C   UNL     1      -3.399  -2.068  25.005  0.00  0.00    +0.006 C 
ENDBRANCH   4  24
ENDBRANCH   7   6
BRANCH  14  15
ATOM     15  C   UNL     1      -3.639   3.375  25.674  0.00  0.00    +0.131 C 
BRANCH  15  16
ATOM     16  N   UNL     1      -2.961   3.714  25.349  0.00  0.00    -0.198 NA
ATOM     17  C   UNL     1      -2.581   4.332  25.742  0.00  0.00    +0.300 C 
ATOM     18  O   UNL     1      -2.879   4.612  26.459  0.00  0.00    -0.265 OA
BRANCH  17  19
ATOM     19  C   UNL     1      -1.902   4.671  25.418  0.00  0.00    +0.200 A 
ATOM     20  C   UNL     1      -1.839   5.435  25.114  0.00  0.00    +0.046 A 
ATOM     21  C   UNL     1      -1.066   5.542  24.848  0.00  0.00    +0.044 A 
ATOM     22  C   UNL     1      -0.650   4.843  24.989  0.00  0.00    +0.180 A 
ATOM     23  O   UNL     1      -1.167   4.306  25.340  0.00  0.00    -0.446 OA
ENDBRANCH  17  19
ENDBRANCH  15  16
ENDBRANCH  14  15
TORSDOF 5
ENDMDL
MODEL 5
REMARK VINA RESULT:     -10.3      4.148      5.389
REMARK  Name = 
REMARK  5 active torsions:
REMARK  status: ('A' for Active; 'I' for Inactive)
REMARK    1  A    between atoms: C_4  and  C_24
REMARK    2  A    between atoms: C_6  and  C_7
REMARK    3  A    between atoms: C_14  and  C_15
REMARK    4  A    between atoms: C_15  and  N_16
REMARK    5  A    between atoms: C_17  and  C_19
REMARK                            x       y       z     vdW  Elec       q    Type
REMARK                         _______ _______ _______ _____ _____    ______ ____
ROOT
ATOM      7  C   UNL     1      -0.645   0.562  23.970  0.00  0.00    +0.056 C 
ATOM      8  C   UNL     1      -0.358   1.099  23.486  0.00  0.00    +0.078 C 
ATOM      9  N   UNL     1      -0.050   0.344  23.614  0.00  0.00    -0.272 NA
ATOM     10  C   UNL     1      -0.666  -0.126  24.320  0.00  0.00    +0.072 C 
ATOM     11  C   UNL     1      -0.815  -0.645  24.687  0.00  0.00    +0.018 C 
ATOM     12  C   UNL     1      -0.337  -0.178  24.090  0.00  0.00    +0.010 C 
ATOM     13  C   UNL     1       0.360  -0.587  23.748  0.00  0.00    +0.018 C 
ATOM     14  C   UNL     1       0.673  -0.088  23.263  0.00  0.00    +0.079 C 
ENDROOT
BRANCH   7   6
ATOM      1  C   UNL     1      -0.718   1.690  25.365  0.00  0.00    +0.153 C 
ATOM      2  N   UNL     1      -1.355   1.280  25.039  0.00  0.00    -0.253 N 
ATOM      3  N   UNL     1      -2.139   1.317  25.296  0.00  0.00    -0.174 NA
ATOM      4  C   UNL     1      -2.589   0.822  24.814  0.00  0.00    +0.079 A 
ATOM      5  C   UNL     1      -2.085   0.479  24.259  0.00  0.00    +0.031 A 
ATOM      6  C   UNL     1      -1.323   0.762  24.398  0.00  0.00    +0.058 A 
BRANCH   4  24
ATOM     24  C   UNL     1      -3.402   0.693  24.877  0.00  0.00    +0.042 C 
ATOM     25  C   UNL     1      -3.996   1.217  24.648  0.00  0.00    +0.006 C 
ATOM     26  C   UNL     1      -4.724   0.864  24.810  0.00  0.00    +0.000 C 
ATOM     27  C   UNL     1      -4.579   0.122  25.140  0.00  0.00    +0.000 C 
ATOM     28  C   UNL     1      -3.762   0.015  25.182  0.00  0.00    +0.006 C 
ENDBRANCH   4  24
ENDBRANCH   7   6
BRANCH  14  15
ATOM     15  C   UNL     1       1.298   0.005  22.733  0.00  0.00    +0.131 C 
BRANCH  15  16
ATOM     16  N   UNL     1       2.069   0.092  23.014  0.00  0.00    -0.198 NA
ATOM     17  C   UNL     1       2.699   0.130  22.484  0.00  0.00    +0.300 C 
ATOM     18  O   UNL     1       2.559   0.082  21.672  0.00  0.00    -0.265 OA
BRANCH  17  19
ATOM     19  C   UNL     1       3.470   0.217  22.765  0.00  0.00    +0.200 A 
ATOM     20  C   UNL     1       3.918   0.908  22.746  0.00  0.00    +0.046 A 
ATOM     21  C   UNL     1       4.653   0.746  23.083  0.00  0.00    +0.044 A 
ATOM     22  C   UNL     1       4.658  -0.047  23.312  0.00  0.00    +0.180 A 
ATOM     23  O   UNL     1       3.927  -0.373  23.115  0.00  0.00    -0.446 OA
ENDBRANCH  17  19
ENDBRANCH  15  16
ENDBRANCH  14  15
TORSDOF 5
ENDMDL
MODEL 6
REMARK VINA RESULT:      -9.9      3.198      4.278
REMARK  Name = 
REMARK  5 active torsions:
REMARK  status: ('A' for Active; 'I' for Inactive)
REMARK    1  A    between atoms: C_4  and  C_24
REMARK    2  A    between atoms: C_6  and  C_7
REMARK    3  A    between atoms: C_14  and  C_15
REMARK    4  A    between atoms: C_15  and  N_16
REMARK    5  A    between atoms: C_17  and  C_19
REMARK                            x       y       z     vdW  Elec       q    Type
REMARK                         _______ _______ _______ _____ _____    ______ ____
ROOT
ATOM      7  C   UNL     1      -2.147   1.519  23.907  0.00  0.00    +0.056 C 
ATOM      8  C   UNL     1      -2.104   0.922  23.409  0.00  0.00    +0.078 C 
ATOM      9  N   UNL     1      -1.492   1.204  23.886  0.00  0.00    -0.272 NA
ATOM     10  C   UNL     1      -1.874   2.011  24.435  0.00  0.00    +0.072 C 
ATOM     11  C   UNL     1      -1.794   2.487  24.876  0.00  0.00    +0.018 C 
ATOM     12  C   UNL     1      -1.542   1.790  24.371  0.00  0.00    +0.010 C 
ATOM     13  C   UNL     1      -0.709   1.528  24.464  0.00  0.00    +0.018 C 
ATOM     14  C   UNL     1      -0.625   0.938  23.987  0.00  0.00    +0.079 C 
ENDROOT
BRANCH   7   6
ATOM      1  C   UNL     1      -2.913   2.526  22.632  0.00  0.00    +0.153 C 
ATOM      2  N   UNL     1      -3.224   2.372  23.381  0.00  0.00    -0.253 N 
ATOM      3  N   UNL     1      -3.941   2.654  23.676  0.00  0.00    -0.174 NA
ATOM      4  C   UNL     1      -4.033   2.366  24.443  0.00  0.00    +0.079 A 
ATOM      5  C   UNL     1      -3.372   1.906  24.623  0.00  0.00    +0.031 A 
ATOM      6  C   UNL     1      -2.872   1.910  23.967  0.00  0.00    +0.058 A 
BRANCH   4  24
ATOM     24  C   UNL     1      -4.673   2.513  24.943  0.00  0.00    +0.042 C 
ATOM     25  C   UNL     1      -5.249   1.967  25.165  0.00  0.00    +0.006 C 
ATOM     26  C   UNL     1      -5.781   2.349  25.668  0.00  0.00    +0.000 C 
ATOM     27  C   UNL     1      -5.533   3.130  25.755  0.00  0.00    +0.000 C 
ATOM     28  C   UNL     1      -4.848   3.233  25.307  0.00  0.00    +0.006 C 
ENDBRANCH   4  24
ENDBRANCH   7   6
BRANCH  14  15
ATOM     15  C   UNL     1      -0.075   0.385  23.721  0.00  0.00    +0.131 C 
BRANCH  15  16
ATOM     16  N   UNL     1       0.682   0.628  23.502  0.00  0.00    -0.198 NA
ATOM     17  C   UNL     1       1.211   0.086  23.176  0.00  0.00    +0.300 C 
ATOM     18  O   UNL     1       0.983  -0.700  23.068  0.00  0.00    -0.265 OA
BRANCH  17  19
ATOM     19  C   UNL     1       1.968   0.329  22.957  0.00  0.00    +0.200 A 
ATOM     20  C   UNL     1       2.428   0.003  22.355  0.00  0.00    +0.046 A 
ATOM     21  C   UNL     1       3.143   0.413  22.328  0.00  0.00    +0.044 A 
ATOM     22  C   UNL     1       3.125   0.994  22.914  0.00  0.00    +0.180 A 
ATOM     23  O   UNL     1       2.399   0.942  23.303  0.00  0.00    -0.446 OA
ENDBRANCH  17  19
ENDBRANCH  15  16
ENDBRANCH  14  15
TORSDOF 5
ENDMDL
