MODEL 1
REMARK VINA RESULT:      -6.9      0.000      0.000
REMARK  Name = 
REMARK  1 active torsions:
REMARK  status: ('A' for Active; 'I' for Inactive)
REMARK    1  A    between atoms: N_6  and  S_12
REMARK                            x       y       z     vdW  Elec       q    Type
REMARK                         _______ _______ _______ _____ _____    ______ ____
ROOT
ATOM      1  C   UNL     1      -5.408   3.215  25.463  0.00  0.00    +0.117 C 
ATOM      2  N   UNL     1      -5.017   2.534  25.210  0.00  0.00    -0.261 N 
ATOM      3  C   UNL     1      -5.218   1.758  25.406  0.00  0.00    +0.116 C 
ATOM      4  C   UNL     1      -4.681   1.255  25.033  0.00  0.00    +0.114 C 
ATOM      5  C   UNL     1      -4.608   0.433  25.027  0.00  0.00    +0.117 C 
ATOM      6  N   UNL     1      -4.003   0.076  24.594  0.00  0.00    -0.156 NA
ATOM      7  C   UNL     1      -3.471   0.540  24.168  0.00  0.00    +0.117 C 
ATOM      8  C   UNL     1      -3.544   1.362  24.174  0.00  0.00    +0.114 C 
ATOM      9  N   UNL     1      -4.149   1.719  24.607  0.00  0.00    -0.261 N 
ATOM     10  C   UNL     1      -4.357   2.510  24.716  0.00  0.00    +0.307 C 
ATOM     11  O   UNL     1      -3.972   3.162  24.389  0.00  0.00    -0.252 OA
ENDROOT
BRANCH   6  12
ATOM     12  S   UNL     1      -3.930  -0.746  24.588  0.00  0.00    +0.046 S 
ATOM     13  C   UNL     1      -3.856  -1.568  24.582  0.00  0.00    +0.196 C 
ATOM     14  O   UNL     1      -4.321  -0.776  23.863  0.00  0.00    -0.157 OA
ATOM     15  O   UNL     1      -3.538  -0.716  25.314  0.00  0.00    -0.157 OA
ENDBRANCH   6  12
TORSDOF 1
ENDMDL
MODEL 2
REMARK VINA RESULT:      -6.8      2.689      3.658
REMARK  Name = 
REMARK  1 active torsions:
REMARK  status: ('A' for Active; 'I' for Inactive)
REMARK    1  A    between atoms: N_6  and  S_12
REMARK                            x       y       z     vdW  Elec       q    Type
REMARK                         _______ _______ _______ _____ _____    ______ ____
ROOT
ATOM      1  C   UNL     1      -5.534   1.979  24.737  0.00  0.00    +0.117 C 
ATOM      2  N   UNL     1      -4.883   2.433  24.962  0.00  0.00    -0.261 N 
ATOM      3  C   UNL     1      -4.146   2.441  24.590  0.00  0.00    +0.116 C 
ATOM      4  C   UNL     1      -3.662   2.971  24.996  0.00  0.00    +0.114 C 
ATOM      5  C   UNL     1      -2.879   3.204  24.881  0.00  0.00    +0.117 C 
ATOM      6  N   UNL     1      -2.534   3.757  25.386  0.00  0.00    -0.156 NA
ATOM      7  C   UNL     1      -2.972   4.076  26.008  0.00  0.00    +0.117 C 
ATOM      8  C   UNL     1      -3.755   3.844  26.125  0.00  0.00    +0.114 C 
ATOM      9  N   UNL     1      -4.100   3.290  25.618  0.00  0.00    -0.261 N 
ATOM     10  C   UNL     1      -4.854   2.958  25.597  0.00  0.00    +0.307 C 
ATOM     11  O   UNL     1      -5.472   3.122  26.119  0.00  0.00    -0.252 OA
ENDROOT
BRANCH   6  12
ATOM     12  S   UNL     1      -1.751   3.990  25.270  0.00  0.00    +0.046 S 
ATOM     13  C   UNL     1      -0.969   4.225  25.154  0.00  0.00    +0.196 C 
ATOM     14  O   UNL     1      -1.491   3.276  25.589  0.00  0.00    -0.157 OA
ATOM     15  O   UNL     1      -2.013   4.706  24.952  0.00  0.00    -0.157 OA
ENDBRANCH   6  12
TORSDOF 1
ENDMDL
MODEL 3
REMARK VINA RESULT:      -6.8      2.076      3.314
REMARK  Name = 
REMARK  1 active torsions:
REMARK  status: ('A' for Active; 'I' for Inactive)
REMARK    1  A    between atoms: N_6  and  S_12
REMARK                            x       y       z     vdW  Elec       q    Type
REMARK                         _______ _______ _______ _____ _____    ______ ____
ROOT
ATOM      1  C   UNL     1      -6.106   1.948  25.225  0.00  0.00    +0.117 C 
ATOM      2  N   UNL     1      -5.323   2.205  25.186  0.00  0.00    -0.261 N 
ATOM      3  C   UNL     1      -5.047   2.955  25.395  0.00  0.00    +0.116 C 
ATOM      4  C   UNL     1      -4.233   2.971  25.269  0.00  0.00    +0.114 C 
ATOM      5  C   UNL     1      -3.668   3.563  25.378  0.00  0.00    +0.117 C 
ATOM      6  N   UNL     1      -2.877   3.416  25.200  0.00  0.00    -0.156 NA
ATOM      7  C   UNL     1      -2.648   2.677  24.914  0.00  0.00    +0.117 C 
ATOM      8  C   UNL     1      -3.212   2.085  24.805  0.00  0.00    +0.114 C 
ATOM      9  N   UNL     1      -4.005   2.232  24.982  0.00  0.00    -0.261 N 
ATOM     10  C   UNL     1      -4.678   1.759  24.931  0.00  0.00    +0.307 C 
ATOM     11  O   UNL     1      -4.703   0.976  24.671  0.00  0.00    -0.252 OA
ENDROOT
BRANCH   6  12
ATOM     12  S   UNL     1      -2.312   4.008  25.309  0.00  0.00    +0.046 S 
ATOM     13  C   UNL     1      -1.748   4.599  25.419  0.00  0.00    +0.196 C 
ATOM     14  O   UNL     1      -2.523   4.343  24.586  0.00  0.00    -0.157 OA
ATOM     15  O   UNL     1      -2.102   3.673  26.034  0.00  0.00    -0.157 OA
ENDBRANCH   6  12
TORSDOF 1
ENDMDL
MODEL 4
REMARK VINA RESULT:      -6.7      2.265      3.163
REMARK  Name = 
REMARK  1 active torsions:
REMARK  status: ('A' for Active; 'I' for Inactive)
REMARK    1  A    between atoms: N_6  and  S_12
REMARK                            x       y       z     vdW  Elec       q    Type
REMARK                         _______ _______ _______ _____ _____    ______ ____
ROOT
ATOM      1  C   UNL     1      -0.958   3.258  25.008  0.00  0.00    +0.117 C 
ATOM      2  N   UNL     1      -1.779   3.236  25.083  0.00  0.00    -0.261 N 
ATOM      3  C   UNL     1      -2.266   2.597  24.894  0.00  0.00    +0.116 C 
ATOM      4  C   UNL     1      -3.045   2.815  25.054  0.00  0.00    +0.114 C 
ATOM      5  C   UNL     1      -3.760   2.410  24.975  0.00  0.00    +0.117 C 
ATOM      6  N   UNL     1      -4.468   2.778  25.183  0.00  0.00    -0.156 NA
ATOM      7  C   UNL     1      -4.462   3.551  25.471  0.00  0.00    +0.117 C 
ATOM      8  C   UNL     1      -3.749   3.957  25.550  0.00  0.00    +0.114 C 
ATOM      9  N   UNL     1      -3.040   3.589  25.341  0.00  0.00    -0.261 N 
ATOM     10  C   UNL     1      -2.257   3.848  25.359  0.00  0.00    +0.307 C 
ATOM     11  O   UNL     1      -1.998   4.591  25.609  0.00  0.00    -0.252 OA
ENDROOT
BRANCH   6  12
ATOM     12  S   UNL     1      -5.182   2.372  25.105  0.00  0.00    +0.046 S 
ATOM     13  C   UNL     1      -5.897   1.967  25.028  0.00  0.00    +0.196 C 
ATOM     14  O   UNL     1      -5.094   2.374  24.285  0.00  0.00    -0.157 OA
ATOM     15  O   UNL     1      -5.271   2.371  25.926  0.00  0.00    -0.157 OA
ENDBRANCH   6  12
TORSDOF 1
ENDMDL
MODEL 5
REMARK VINA RESULT:      -6.6      1.450      3.389
REMARK  Name = 
REMARK  1 active torsions:
REMARK  status: ('A' for Active; 'I' for Inactive)
REMARK    1  A    between atoms: N_6  and  S_12
REMARK                            x       y       z     vdW  Elec       q    Type
REMARK                         _______ _______ _______ _____ _____    ______ ____
ROOT
ATOM      1  C   UNL     1      -3.600  -2.730  24.287  0.00  0.00    +0.117 C 
ATOM      2  N   UNL     1      -3.569  -1.913  24.393  0.00  0.00    -0.261 N 
ATOM      3  C   UNL     1      -4.181  -1.380  24.245  0.00  0.00    +0.116 C 
ATOM      4  C   UNL     1      -3.910  -0.623  24.427  0.00  0.00    +0.114 C 
ATOM      5  C   UNL     1      -4.272   0.118  24.389  0.00  0.00    +0.117 C 
ATOM      6  N   UNL     1      -3.855   0.793  24.612  0.00  0.00    -0.156 NA
ATOM      7  C   UNL     1      -3.075   0.728  24.873  0.00  0.00    +0.117 C 
ATOM      8  C   UNL     1      -2.712  -0.011  24.911  0.00  0.00    +0.114 C 
ATOM      9  N   UNL     1      -3.130  -0.687  24.688  0.00  0.00    -0.261 N 
ATOM     10  C   UNL     1      -2.919  -1.484  24.667  0.00  0.00    +0.307 C 
ATOM     11  O   UNL     1      -2.187  -1.798  24.882  0.00  0.00    -0.252 OA
ENDROOT
BRANCH   6  12
ATOM     12  S   UNL     1      -4.217   1.534  24.574  0.00  0.00    +0.046 S 
ATOM     13  C   UNL     1      -4.578   2.274  24.535  0.00  0.00    +0.196 C 
ATOM     14  O   UNL     1      -4.649   1.357  25.254  0.00  0.00    -0.157 OA
ATOM     15  O   UNL     1      -3.783   1.710  23.894  0.00  0.00    -0.157 OA
ENDBRANCH   6  12
TORSDOF 1
ENDMDL
