MODEL 1
REMARK VINA RESULT:     -12.8      0.000      0.000
REMARK  Name = 
REMARK  5 active torsions:
REMARK  status: ('A' for Active; 'I' for Inactive)
REMARK    1  A    between atoms: C_3  and  C_4
REMARK    2  A    between atoms: C_4  and  N_5
REMARK    3  A    between atoms: C_6  and  C_8
REMARK    4  A    between atoms: C_17  and  N_18
REMARK    5  A    between atoms: N_18  and  C_19
REMARK                            x       y       z     vdW  Elec       q    Type
REMARK                         _______ _______ _______ _____ _____    ______ ____
ROOT
ATOM      1  O   UNL     1      -4.991   1.216  25.456  0.00  0.00    -0.219 OA
ATOM      2  C   UNL     1      -4.340   1.093  24.964  0.00  0.00    +0.199 C 
ATOM      3  C   UNL     1      -3.752   1.645  24.792  0.00  0.00    +0.169 C 
ATOM     15  O   UNL     1      -3.211   1.290  24.279  0.00  0.00    -0.350 OA
ATOM     16  C   UNL     1      -3.466   0.518  24.135  0.00  0.00    +0.162 C 
ATOM     17  C   UNL     1      -4.164   0.397  24.558  0.00  0.00    +0.135 C 
ENDROOT
BRANCH   3   4
ATOM      4  C   UNL     1      -3.711   2.416  25.081  0.00  0.00    +0.148 C 
BRANCH   4   5
ATOM      5  N   UNL     1      -3.031   2.867  24.960  0.00  0.00    -0.199 NA
ATOM      6  C   UNL     1      -2.919   3.567  25.381  0.00  0.00    +0.265 C 
ATOM      7  O   UNL     1      -3.488   3.817  25.924  0.00  0.00    -0.268 OA
BRANCH   6   8
ATOM      8  C   UNL     1      -2.239   4.018  25.260  0.00  0.00    +0.055 A 
ATOM      9  C   UNL     1      -1.500   3.653  25.234  0.00  0.00    +0.007 A 
ATOM     10  C   UNL     1      -0.821   4.104  25.113  0.00  0.00    +0.030 A 
ATOM     11  C   UNL     1      -0.880   4.922  25.017  0.00  0.00    +0.140 A 
ATOM     12  F   UNL     1      -0.200   5.373  24.896  0.00  0.00    -0.204 F 
ATOM     13  C   UNL     1      -1.619   5.287  25.043  0.00  0.00    +0.030 A 
ATOM     14  C   UNL     1      -2.299   4.836  25.164  0.00  0.00    +0.007 A 
ENDBRANCH   6   8
ENDBRANCH   4   5
ENDBRANCH   3   4
BRANCH  17  18
ATOM     18  N   UNL     1      -4.607  -0.298  24.572  0.00  0.00    -0.216 NA
BRANCH  18  19
ATOM     19  C   UNL     1      -4.227  -1.031  24.585  0.00  0.00    +0.073 C 
ATOM     20  C   UNL     1      -3.835  -1.280  25.266  0.00  0.00    +0.023 C 
ATOM     21  C   UNL     1      -3.455  -2.012  25.279  0.00  0.00    +0.068 C 
ATOM     22  C   UNL     1      -3.467  -2.495  24.610  0.00  0.00    +0.264 C 
ATOM     23  F   UNL     1      -3.026  -2.969  25.121  0.00  0.00    -0.204 F 
ATOM     24  F   UNL     1      -3.327  -3.142  24.119  0.00  0.00    -0.204 F 
ATOM     25  C   UNL     1      -3.860  -2.246  23.929  0.00  0.00    +0.068 C 
ATOM     26  C   UNL     1      -4.240  -1.514  23.916  0.00  0.00    +0.023 C 
ENDBRANCH  18  19
ENDBRANCH  17  18
TORSDOF 5
ENDMDL
MODEL 2
REMARK VINA RESULT:     -12.4      1.795      2.142
REMARK  Name = 
REMARK  5 active torsions:
REMARK  status: ('A' for Active; 'I' for Inactive)
REMARK    1  A    between atoms: C_3  and  C_4
REMARK    2  A    between atoms: C_4  and  N_5
REMARK    3  A    between atoms: C_6  and  C_8
REMARK    4  A    between atoms: C_17  and  N_18
REMARK    5  A    between atoms: N_18  and  C_19
REMARK                            x       y       z     vdW  Elec       q    Type
REMARK                         _______ _______ _______ _____ _____    ______ ____
ROOT
ATOM      1  O   UNL     1      -1.264  -0.252  26.396  0.00  0.00    -0.219 OA
ATOM      2  C   UNL     1      -1.412  -0.103  25.598  0.00  0.00    +0.199 C 
ATOM      3  C   UNL     1      -1.199   0.578  25.185  0.00  0.00    +0.169 C 
ATOM     15  O   UNL     1      -1.454   0.494  24.405  0.00  0.00    -0.350 OA
ATOM     16  C   UNL     1      -1.825  -0.240  24.336  0.00  0.00    +0.162 C 
ATOM     17  C   UNL     1      -1.799  -0.609  25.074  0.00  0.00    +0.135 C 
ENDROOT
BRANCH   3   4
ATOM      4  C   UNL     1      -0.801   1.230  25.497  0.00  0.00    +0.148 C 
BRANCH   4   5
ATOM      5  N   UNL     1      -1.060   1.994  25.323  0.00  0.00    -0.199 NA
ATOM      6  C   UNL     1      -0.681   2.644  25.661  0.00  0.00    +0.265 C 
ATOM      7  O   UNL     1      -0.043   2.532  26.171  0.00  0.00    -0.268 OA
BRANCH   6   8
ATOM      8  C   UNL     1      -0.940   3.409  25.487  0.00  0.00    +0.055 A 
ATOM      9  C   UNL     1      -1.660   3.678  25.786  0.00  0.00    +0.007 A 
ATOM     10  C   UNL     1      -1.918   4.442  25.613  0.00  0.00    +0.030 A 
ATOM     11  C   UNL     1      -1.457   4.937  25.141  0.00  0.00    +0.140 A 
ATOM     12  F   UNL     1      -1.715   5.701  24.967  0.00  0.00    -0.204 F 
ATOM     13  C   UNL     1      -0.737   4.667  24.841  0.00  0.00    +0.030 A 
ATOM     14  C   UNL     1      -0.478   3.903  25.015  0.00  0.00    +0.007 A 
ENDBRANCH   6   8
ENDBRANCH   4   5
ENDBRANCH   3   4
BRANCH  17  18
ATOM     18  N   UNL     1      -2.106  -1.353  25.255  0.00  0.00    -0.216 NA
BRANCH  18  19
ATOM     19  C   UNL     1      -2.771  -1.634  24.856  0.00  0.00    +0.073 C 
ATOM     20  C   UNL     1      -3.478  -1.210  24.882  0.00  0.00    +0.023 C 
ATOM     21  C   UNL     1      -4.143  -1.491  24.482  0.00  0.00    +0.068 C 
ATOM     22  C   UNL     1      -4.100  -2.197  24.057  0.00  0.00    +0.264 C 
ATOM     23  F   UNL     1      -4.888  -1.993  23.919  0.00  0.00    -0.204 F 
ATOM     24  F   UNL     1      -4.331  -2.831  23.584  0.00  0.00    -0.204 F 
ATOM     25  C   UNL     1      -3.393  -2.621  24.031  0.00  0.00    +0.068 C 
ATOM     26  C   UNL     1      -2.729  -2.339  24.430  0.00  0.00    +0.023 C 
ENDBRANCH  18  19
ENDBRANCH  17  18
TORSDOF 5
ENDMDL
MODEL 3
REMARK VINA RESULT:     -12.0      1.843      6.076
REMARK  Name = 
REMARK  5 active torsions:
REMARK  status: ('A' for Active; 'I' for Inactive)
REMARK    1  A    between atoms: C_3  and  C_4
REMARK    2  A    between atoms: C_4  and  N_5
REMARK    3  A    between atoms: C_6  and  C_8
REMARK    4  A    between atoms: C_17  and  N_18
REMARK    5  A    between atoms: N_18  and  C_19
REMARK                            x       y       z     vdW  Elec       q    Type
REMARK                         _______ _______ _______ _____ _____    ______ ____
ROOT
ATOM      1  O   UNL     1      -0.537   0.950  26.162  0.00  0.00    -0.219 OA
ATOM      2  C   UNL     1      -0.822   1.189  25.425  0.00  0.00    +0.199 C 
ATOM      3  C   UNL     1      -1.173   0.702  24.860  0.00  0.00    +0.169 C 
ATOM     15  O   UNL     1      -1.373   1.169  24.210  0.00  0.00    -0.350 OA
ATOM     16  C   UNL     1      -1.147   1.945  24.374  0.00  0.00    +0.162 C 
ATOM     17  C   UNL     1      -0.806   1.958  25.126  0.00  0.00    +0.135 C 
ENDROOT
BRANCH   3   4
ATOM      4  C   UNL     1      -1.300  -0.111  24.931  0.00  0.00    +0.148 C 
BRANCH   4   5
ATOM      5  N   UNL     1      -2.007  -0.442  24.664  0.00  0.00    -0.199 NA
ATOM      6  C   UNL     1      -2.131  -1.255  24.728  0.00  0.00    +0.265 C 
ATOM      7  O   UNL     1      -1.548  -1.737  25.059  0.00  0.00    -0.268 OA
BRANCH   6   8
ATOM      8  C   UNL     1      -2.838  -1.587  24.461  0.00  0.00    +0.055 A 
ATOM      9  C   UNL     1      -3.445  -1.101  24.188  0.00  0.00    +0.007 A 
ATOM     10  C   UNL     1      -4.151  -1.434  23.921  0.00  0.00    +0.030 A 
ATOM     11  C   UNL     1      -4.250  -2.253  23.927  0.00  0.00    +0.140 A 
ATOM     12  F   UNL     1      -4.956  -2.585  23.660  0.00  0.00    -0.204 F 
ATOM     13  C   UNL     1      -3.641  -2.739  24.200  0.00  0.00    +0.030 A 
ATOM     14  C   UNL     1      -2.935  -2.406  24.467  0.00  0.00    +0.007 A 
ENDBRANCH   6   8
ENDBRANCH   4   5
ENDBRANCH   3   4
BRANCH  17  18
ATOM     18  N   UNL     1      -0.503   2.621  25.510  0.00  0.00    -0.216 NA
BRANCH  18  19
ATOM     19  C   UNL     1      -0.877   3.352  25.429  0.00  0.00    +0.073 C 
ATOM     20  C   UNL     1      -1.606   3.485  25.790  0.00  0.00    +0.023 C 
ATOM     21  C   UNL     1      -1.980   4.216  25.709  0.00  0.00    +0.068 C 
ATOM     22  C   UNL     1      -1.624   4.814  25.267  0.00  0.00    +0.264 C 
ATOM     23  F   UNL     1      -2.313   5.201  25.503  0.00  0.00    -0.204 F 
ATOM     24  F   UNL     1      -1.508   5.547  24.907  0.00  0.00    -0.204 F 
ATOM     25  C   UNL     1      -0.894   4.682  24.905  0.00  0.00    +0.068 C 
ATOM     26  C   UNL     1      -0.521   3.951  24.986  0.00  0.00    +0.023 C 
ENDBRANCH  18  19
ENDBRANCH  17  18
TORSDOF 5
ENDMDL
MODEL 4
REMARK VINA RESULT:     -11.9      0.667      5.795
REMARK  Name = 
REMARK  5 active torsions:
REMARK  status: ('A' for Active; 'I' for Inactive)
REMARK    1  A    between atoms: C_3  and  C_4
REMARK    2  A    between atoms: C_4  and  N_5
REMARK    3  A    between atoms: C_6  and  C_8
REMARK    4  A    between atoms: C_17  and  N_18
REMARK    5  A    between atoms: N_18  and  C_19
REMARK                            x       y       z     vdW  Elec       q    Type
REMARK                         _______ _______ _______ _____ _____    ______ ____
ROOT
ATOM      1  O   UNL     1      -4.355   2.505  25.704  0.00  0.00    -0.219 OA
ATOM      2  C   UNL     1      -3.771   2.418  25.128  0.00  0.00    +0.199 C 
ATOM      3  C   UNL     1      -3.706   1.793  24.594  0.00  0.00    +0.169 C 
ATOM     15  O   UNL     1      -3.044   1.929  24.121  0.00  0.00    -0.350 OA
ATOM     16  C   UNL     1      -2.700   2.639  24.362  0.00  0.00    +0.162 C 
ATOM     17  C   UNL     1      -3.149   2.941  24.985  0.00  0.00    +0.135 C 
ENDROOT
BRANCH   3   4
ATOM      4  C   UNL     1      -4.213   1.144  24.542  0.00  0.00    +0.148 C 
BRANCH   4   5
ATOM      5  N   UNL     1      -3.908   0.378  24.571  0.00  0.00    -0.199 NA
ATOM      6  C   UNL     1      -4.416  -0.270  24.524  0.00  0.00    +0.265 C 
ATOM      7  O   UNL     1      -5.229  -0.152  24.448  0.00  0.00    -0.268 OA
BRANCH   6   8
ATOM      8  C   UNL     1      -4.112  -1.037  24.552  0.00  0.00    +0.055 A 
ATOM      9  C   UNL     1      -3.707  -1.295  25.223  0.00  0.00    +0.007 A 
ATOM     10  C   UNL     1      -3.403  -2.061  25.250  0.00  0.00    +0.030 A 
ATOM     11  C   UNL     1      -3.503  -2.569  24.608  0.00  0.00    +0.140 A 
ATOM     12  F   UNL     1      -3.199  -3.335  24.636  0.00  0.00    -0.204 F 
ATOM     13  C   UNL     1      -3.908  -2.310  23.937  0.00  0.00    +0.030 A 
ATOM     14  C   UNL     1      -4.212  -1.544  23.909  0.00  0.00    +0.007 A 
ENDBRANCH   6   8
ENDBRANCH   4   5
ENDBRANCH   3   4
BRANCH  17  18
ATOM     18  N   UNL     1      -3.003   3.643  25.393  0.00  0.00    -0.216 NA
BRANCH  18  19
ATOM     19  C   UNL     1      -2.291   4.045  25.281  0.00  0.00    +0.073 C 
ATOM     20  C   UNL     1      -2.290   4.799  24.949  0.00  0.00    +0.023 C 
ATOM     21  C   UNL     1      -1.578   5.201  24.838  0.00  0.00    +0.068 C 
ATOM     22  C   UNL     1      -0.866   4.847  25.059  0.00  0.00    +0.264 C 
ATOM     23  F   UNL     1      -0.584   5.566  24.769  0.00  0.00    -0.204 F 
ATOM     24  F   UNL     1      -0.057   4.743  25.180  0.00  0.00    -0.204 F 
ATOM     25  C   UNL     1      -0.867   4.092  25.392  0.00  0.00    +0.068 C 
ATOM     26  C   UNL     1      -1.579   3.691  25.503  0.00  0.00    +0.023 C 
ENDBRANCH  18  19
ENDBRANCH  17  18
TORSDOF 5
ENDMDL
