MODEL 1
REMARK VINA RESULT:      -9.3      0.000      0.000
REMARK  Name = 
REMARK  7 active torsions:
REMARK  status: ('A' for Active; 'I' for Inactive)
REMARK    1  A    between atoms: C_3  and  N_18
REMARK    2  A    between atoms: C_6  and  C_7
REMARK    3  A    between atoms: C_7  and  N_8
REMARK    4  A    between atoms: N_8  and  S_9
REMARK    5  A    between atoms: S_9  and  C_12
REMARK    6  A    between atoms: N_18  and  C_19
REMARK    7  A    between atoms: C_19  and  C_20
REMARK                            x       y       z     vdW  Elec       q    Type
REMARK                         _______ _______ _______ _____ _____    ______ ____
ROOT
ATOM      1  O   UNL     1      -2.506   1.869  23.755  0.00  0.00    -0.219 OA
ATOM      2  C   UNL     1      -3.071   2.045  24.329  0.00  0.00    +0.199 C 
ATOM      3  C   UNL     1      -3.152   2.764  24.724  0.00  0.00    +0.135 C 
ATOM      4  C   UNL     1      -3.785   2.697  25.249  0.00  0.00    +0.162 C 
ATOM      5  O   UNL     1      -4.094   1.935  25.178  0.00  0.00    -0.350 OA
ATOM      6  C   UNL     1      -3.653   1.532  24.610  0.00  0.00    +0.166 C 
ENDROOT
BRANCH   6   7
ATOM      7  C   UNL     1      -3.773   0.754  24.365  0.00  0.00    +0.148 C 
BRANCH   7   8
ATOM      8  N   UNL     1      -4.093   0.202  24.888  0.00  0.00    -0.075 NA
BRANCH   8   9
ATOM      9  S   UNL     1      -3.994  -0.605  24.747  0.00  0.00    +0.077 S 
ATOM     10  O   UNL     1      -4.327  -0.515  23.997  0.00  0.00    -0.152 OA
ATOM     11  O   UNL     1      -3.661  -0.695  25.497  0.00  0.00    -0.152 OA
BRANCH   9  12
ATOM     12  C   UNL     1      -3.895  -1.412  24.607  0.00  0.00    +0.124 A 
ATOM     13  C   UNL     1      -4.256  -1.764  23.953  0.00  0.00    +0.020 A 
ATOM     14  C   UNL     1      -4.158  -2.571  23.813  0.00  0.00    +0.001 A 
ATOM     15  C   UNL     1      -3.698  -3.026  24.325  0.00  0.00    +0.000 A 
ATOM     16  C   UNL     1      -3.337  -2.674  24.978  0.00  0.00    +0.001 A 
ATOM     17  C   UNL     1      -3.436  -1.867  25.119  0.00  0.00    +0.020 A 
ENDBRANCH   9  12
ENDBRANCH   8   9
ENDBRANCH   7   8
ENDBRANCH   6   7
BRANCH   3  18
ATOM     18  N   UNL     1      -2.683   3.435  24.614  0.00  0.00    -0.208 NA
BRANCH  18  19
ATOM     19  C   UNL     1      -2.370   3.831  25.266  0.00  0.00    +0.136 C 
BRANCH  19  20
ATOM     20  C   UNL     1      -1.803   4.420  25.158  0.00  0.00    +0.097 A 
ATOM     21  C   UNL     1      -1.939   5.234  25.181  0.00  0.00    +0.117 A 
ATOM     22  N   UNL     1      -1.221   5.617  25.045  0.00  0.00    -0.221 NA
ATOM     23  C   UNL     1      -0.641   5.039  24.937  0.00  0.00    +0.199 A 
ATOM     24  N   UNL     1      -1.001   4.300  25.006  0.00  0.00    -0.225 NA
ENDBRANCH  19  20
ENDBRANCH  18  19
ENDBRANCH   3  18
TORSDOF 7
ENDMDL
MODEL 2
REMARK VINA RESULT:      -9.1      1.498      5.686
REMARK  Name = 
REMARK  7 active torsions:
REMARK  status: ('A' for Active; 'I' for Inactive)
REMARK    1  A    between atoms: C_3  and  N_18
REMARK    2  A    between atoms: C_6  and  C_7
REMARK    3  A    between atoms: C_7  and  N_8
REMARK    4  A    between atoms: N_8  and  S_9
REMARK    5  A    between atoms: S_9  and  C_12
REMARK    6  A    between atoms: N_18  and  C_19
REMARK    7  A    between atoms: C_19  and  C_20
REMARK                            x       y       z     vdW  Elec       q    Type
REMARK                         _______ _______ _______ _____ _____    ______ ____
ROOT
ATOM      1  O   UNL     1      -2.787   0.857  23.607  0.00  0.00    -0.219 OA
ATOM      2  C   UNL     1      -3.375   0.955  24.177  0.00  0.00    +0.199 C 
ATOM      3  C   UNL     1      -3.905   0.377  24.433  0.00  0.00    +0.135 C 
ATOM      4  C   UNL     1      -4.393   0.714  25.005  0.00  0.00    +0.162 C 
ATOM      5  O   UNL     1      -4.165   1.501  25.104  0.00  0.00    -0.350 OA
ATOM      6  C   UNL     1      -3.536   1.650  24.593  0.00  0.00    +0.166 C 
ENDROOT
BRANCH   6   7
ATOM      7  C   UNL     1      -3.137   2.367  24.511  0.00  0.00    +0.148 C 
BRANCH   7   8
ATOM      8  N   UNL     1      -2.974   2.827  25.176  0.00  0.00    -0.075 NA
BRANCH   8   9
ATOM      9  S   UNL     1      -2.441   3.455  25.124  0.00  0.00    +0.077 S 
ATOM     10  O   UNL     1      -2.941   3.835  24.589  0.00  0.00    -0.152 OA
ATOM     11  O   UNL     1      -1.941   3.074  25.659  0.00  0.00    -0.152 OA
BRANCH   9  12
ATOM     12  C   UNL     1      -1.908   4.081  25.072  0.00  0.00    +0.124 A 
ATOM     13  C   UNL     1      -2.165   4.854  25.207  0.00  0.00    +0.020 A 
ATOM     14  C   UNL     1      -1.632   5.481  25.155  0.00  0.00    +0.001 A 
ATOM     15  C   UNL     1      -0.841   5.337  24.967  0.00  0.00    +0.000 A 
ATOM     16  C   UNL     1      -0.584   4.565  24.832  0.00  0.00    +0.001 A 
ATOM     17  C   UNL     1      -1.118   3.937  24.884  0.00  0.00    +0.020 A 
ENDBRANCH   9  12
ENDBRANCH   8   9
ENDBRANCH   7   8
ENDBRANCH   6   7
BRANCH   3  18
ATOM     18  N   UNL     1      -3.940  -0.402  24.162  0.00  0.00    -0.208 NA
BRANCH  18  19
ATOM     19  C   UNL     1      -4.064  -1.019  24.695  0.00  0.00    +0.136 C 
BRANCH  19  20
ATOM     20  C   UNL     1      -3.957  -1.800  24.454  0.00  0.00    +0.097 A 
ATOM     21  C   UNL     1      -3.482  -2.363  24.827  0.00  0.00    +0.117 A 
ATOM     22  N   UNL     1      -3.539  -3.067  24.401  0.00  0.00    -0.221 NA
ATOM     23  C   UNL     1      -4.049  -2.940  23.765  0.00  0.00    +0.199 A 
ATOM     24  N   UNL     1      -4.308  -2.157  23.798  0.00  0.00    -0.225 NA
ENDBRANCH  19  20
ENDBRANCH  18  19
ENDBRANCH   3  18
TORSDOF 7
ENDMDL
MODEL 3
REMARK VINA RESULT:      -8.1      3.263      4.414
REMARK  Name = 
REMARK  7 active torsions:
REMARK  status: ('A' for Active; 'I' for Inactive)
REMARK    1  A    between atoms: C_3  and  N_18
REMARK    2  A    between atoms: C_6  and  C_7
REMARK    3  A    between atoms: C_7  and  N_8
REMARK    4  A    between atoms: N_8  and  S_9
REMARK    5  A    between atoms: S_9  and  C_12
REMARK    6  A    between atoms: N_18  and  C_19
REMARK    7  A    between atoms: C_19  and  C_20
REMARK                            x       y       z     vdW  Elec       q    Type
REMARK                         _______ _______ _______ _____ _____    ______ ____
ROOT
ATOM      1  O   UNL     1      -0.780   2.042  23.972  0.00  0.00    -0.219 OA
ATOM      2  C   UNL     1      -0.964   1.240  24.034  0.00  0.00    +0.199 C 
ATOM      3  C   UNL     1      -0.457   0.612  23.865  0.00  0.00    +0.135 C 
ATOM      4  C   UNL     1      -0.866  -0.090  24.003  0.00  0.00    +0.162 C 
ATOM      5  O   UNL     1      -1.627   0.104  24.258  0.00  0.00    -0.350 OA
ATOM      6  C   UNL     1      -1.687   0.926  24.277  0.00  0.00    +0.166 C 
ENDROOT
BRANCH   6   7
ATOM      7  C   UNL     1      -2.353   1.358  24.500  0.00  0.00    +0.148 C 
BRANCH   7   8
ATOM      8  N   UNL     1      -3.107   1.061  24.348  0.00  0.00    -0.075 NA
BRANCH   8   9
ATOM      9  S   UNL     1      -3.773   1.472  24.609  0.00  0.00    +0.077 S 
ATOM     10  O   UNL     1      -3.843   1.829  23.868  0.00  0.00    -0.152 OA
ATOM     11  O   UNL     1      -3.704   1.115  25.349  0.00  0.00    -0.152 OA
BRANCH   9  12
ATOM     12  C   UNL     1      -4.439   1.884  24.869  0.00  0.00    +0.124 A 
ATOM     13  C   UNL     1      -4.382   2.686  25.055  0.00  0.00    +0.020 A 
ATOM     14  C   UNL     1      -5.047   3.097  25.316  0.00  0.00    +0.001 A 
ATOM     15  C   UNL     1      -5.771   2.707  25.391  0.00  0.00    +0.000 A 
ATOM     16  C   UNL     1      -5.828   1.905  25.206  0.00  0.00    +0.001 A 
ATOM     17  C   UNL     1      -5.162   1.494  24.945  0.00  0.00    +0.020 A 
ENDBRANCH   9  12
ENDBRANCH   8   9
ENDBRANCH   7   8
ENDBRANCH   6   7
BRANCH   3  18
ATOM     18  N   UNL     1       0.323   0.675  23.603  0.00  0.00    -0.208 NA
BRANCH  18  19
ATOM     19  C   UNL     1       0.690   0.032  23.239  0.00  0.00    +0.136 C 
BRANCH  19  20
ATOM     20  C   UNL     1       1.447   0.113  22.923  0.00  0.00    +0.097 A 
ATOM     21  C   UNL     1       1.721  -0.231  22.224  0.00  0.00    +0.117 A 
ATOM     22  N   UNL     1       2.507  -0.004  22.119  0.00  0.00    -0.221 NA
ATOM     23  C   UNL     1       2.719   0.481  22.752  0.00  0.00    +0.199 A 
ATOM     24  N   UNL     1       2.065   0.554  23.248  0.00  0.00    -0.225 NA
ENDBRANCH  19  20
ENDBRANCH  18  19
ENDBRANCH   3  18
TORSDOF 7
ENDMDL
