MODEL 1
REMARK VINA RESULT:      -8.6      0.000      0.000
REMARK  Name = 
REMARK  6 active torsions:
REMARK  status: ('A' for Active; 'I' for Inactive)
REMARK    1  A    between atoms: C_3  and  C_4
REMARK    2  A    between atoms: C_4  and  O_5
REMARK    3  A    between atoms: O_5  and  C_6
REMARK    4  A    between atoms: C_9  and  C_12
REMARK    5  A    between atoms: N_14  and  C_15
REMARK    6  A    between atoms: N_25  and  C_26
REMARK                            x       y       z     vdW  Elec       q    Type
REMARK                         _______ _______ _______ _____ _____    ______ ____
ROOT
ATOM     12  C   UNL     1      -0.752   0.828  23.595  0.00  0.00    +0.265 C 
ATOM     13  O   UNL     1      -1.264   1.062  22.992  0.00  0.00    -0.268 OA
ATOM     14  N   UNL     1      -1.026   0.778  24.372  0.00  0.00    -0.199 NA
ENDROOT
BRANCH  14  15
ATOM     15  C   UNL     1      -1.812   0.963  24.545  0.00  0.00    +0.146 C 
ATOM     16  C   UNL     1      -2.013   1.760  24.488  0.00  0.00    +0.119 C 
ATOM     17  N   UNL     1      -2.744   2.117  24.623  0.00  0.00    -0.261 N 
ATOM     18  C   UNL     1      -3.456   1.764  24.850  0.00  0.00    +0.095 C 
ATOM     19  C   UNL     1      -3.610   0.968  24.996  0.00  0.00    +0.024 C 
ATOM     20  C   UNL     1      -3.093   0.326  24.952  0.00  0.00    +0.037 C 
ATOM     21  C   UNL     1      -2.292   0.324  24.751  0.00  0.00    +0.174 C 
ATOM     22  O   UNL     1      -1.923  -0.414  24.758  0.00  0.00    -0.221 OA
ATOM     23  C   UNL     1      -2.768   2.936  24.519  0.00  0.00    +0.328 C 
ATOM     24  O   UNL     1      -2.088   3.343  24.293  0.00  0.00    -0.250 OA
ATOM     25  N   UNL     1      -3.473   3.347  24.641  0.00  0.00    -0.162 NA
BRANCH  25  26
ATOM     26  C   UNL     1      -4.154   2.940  24.867  0.00  0.00    +0.075 A 
ATOM     27  C   UNL     1      -4.363   2.896  25.664  0.00  0.00    +0.019 A 
ATOM     28  C   UNL     1      -5.043   2.489  25.890  0.00  0.00    +0.031 A 
ATOM     29  C   UNL     1      -5.515   2.126  25.320  0.00  0.00    +0.140 A 
ATOM     30  F   UNL     1      -6.196   1.718  25.547  0.00  0.00    -0.204 F 
ATOM     31  C   UNL     1      -5.307   2.169  24.524  0.00  0.00    +0.031 A 
ATOM     32  C   UNL     1      -4.626   2.576  24.297  0.00  0.00    +0.019 A 
ENDBRANCH  25  26
ENDBRANCH  14  15
BRANCH  12   9
ATOM      6  C   UNL     1       1.604   0.276  23.078  0.00  0.00    +0.139 A 
ATOM      7  C   UNL     1       0.998  -0.223  22.824  0.00  0.00    +0.037 A 
ATOM      8  C   UNL     1       0.213  -0.039  22.996  0.00  0.00    +0.008 A 
ATOM      9  C   UNL     1       0.033   0.644  23.423  0.00  0.00    +0.055 A 
ATOM     10  C   UNL     1       0.639   1.143  23.677  0.00  0.00    +0.008 A 
ATOM     11  C   UNL     1       1.425   0.958  23.505  0.00  0.00    +0.037 A 
BRANCH   6   5
ATOM      5  O   UNL     1       2.390   0.091  22.905  0.00  0.00    -0.470 OA
BRANCH   5   4
ATOM      4  C   UNL     1       2.993   0.346  23.407  0.00  0.00    +0.236 C 
BRANCH   4   3
ATOM      1  C   UNL     1       4.086   1.454  22.514  0.00  0.00    +0.075 C 
ATOM      2  C   UNL     1       4.283   0.707  22.803  0.00  0.00    +0.154 A 
ATOM      3  C   UNL     1       3.781   0.198  23.213  0.00  0.00    +0.071 A 
ATOM     33  C   UNL     1       4.205  -0.486  23.396  0.00  0.00    +0.100 A 
ATOM     34  C   UNL     1       3.915  -1.142  23.804  0.00  0.00    +0.055 C 
ATOM     35  N   UNL     1       4.970  -0.400  23.098  0.00  0.00    -0.082 NA
ATOM     36  O   UNL     1       5.017   0.338  22.732  0.00  0.00    -0.358 OA
ENDBRANCH   4   3
ENDBRANCH   5   4
ENDBRANCH   6   5
ENDBRANCH  12   9
TORSDOF 6
ENDMDL
