MODEL 1
REMARK VINA RESULT:     -12.1      0.000      0.000
REMARK  Name = 
REMARK  6 active torsions:
REMARK  status: ('A' for Active; 'I' for Inactive)
REMARK    1  A    between atoms: C_2  and  C_4
REMARK    2  A    between atoms: C_2  and  C_8
REMARK    3  A    between atoms: C_4  and  C_5
REMARK    4  A    between atoms: C_8  and  C_9
REMARK    5  A    between atoms: C_16  and  C_17
REMARK    6  A    between atoms: C_19  and  C_22
REMARK                            x       y       z     vdW  Elec       q    Type
REMARK                         _______ _______ _______ _____ _____    ______ ____
ROOT
ATOM      9  C   UNL     1      -2.745   2.202  24.859  0.00  0.00    +0.226 C 
ATOM     10  O   UNL     1      -2.536   1.478  24.524  0.00  0.00    -0.275 OA
ATOM     11  N   UNL     1      -3.540   2.395  24.965  0.00  0.00    -0.267 N 
ATOM     12  C   UNL     1      -3.748   3.119  25.300  0.00  0.00    +0.141 C 
ATOM     13  C   UNL     1      -4.543   3.312  25.406  0.00  0.00    +0.094 A 
ATOM     14  C   UNL     1      -5.130   2.780  25.175  0.00  0.00    +0.078 A 
ATOM     15  C   UNL     1      -4.922   2.055  24.839  0.00  0.00    +0.077 C 
ATOM     16  C   UNL     1      -4.127   1.863  24.734  0.00  0.00    +0.161 C 
ATOM     29  N   UNL     1      -5.862   3.119  25.346  0.00  0.00    -0.227 NA
ATOM     30  C   UNL     1      -5.728   3.860  25.682  0.00  0.00    +0.198 A 
ATOM     31  N   UNL     1      -4.913   3.979  25.718  0.00  0.00    -0.225 NA
ENDROOT
BRANCH  16  17
ATOM     17  C   UNL     1      -3.920   1.139  24.399  0.00  0.00    +0.255 A 
ATOM     18  N   UNL     1      -3.967   0.402  24.766  0.00  0.00    -0.189 NA
ATOM     19  C   UNL     1      -3.705  -0.168  24.230  0.00  0.00    +0.203 A 
ATOM     20  N   UNL     1      -3.495   0.216  23.532  0.00  0.00    -0.056 NA
ATOM     21  O   UNL     1      -3.628   1.025  23.635  0.00  0.00    -0.335 OA
BRANCH  19  22
ATOM     22  C   UNL     1      -3.661  -0.980  24.370  0.00  0.00    +0.039 A 
ATOM     23  C   UNL     1      -3.193  -1.268  24.985  0.00  0.00    +0.004 A 
ATOM     24  C   UNL     1      -3.149  -2.081  25.124  0.00  0.00    +0.011 A 
ATOM     25  C   UNL     1      -3.573  -2.604  24.647  0.00  0.00    +0.058 A 
ATOM     26 CL   UNL     1      -3.529  -3.417  24.786  0.00  0.00    -0.082 Cl
ATOM     27  C   UNL     1      -4.041  -2.316  24.032  0.00  0.00    +0.011 A 
ATOM     28  C   UNL     1      -4.085  -1.504  23.893  0.00  0.00    +0.004 A 
ENDBRANCH  19  22
ENDBRANCH  16  17
BRANCH   9   8
ATOM      8  C   UNL     1      -2.158   2.734  25.090  0.00  0.00    +0.086 C 
BRANCH   8   2
ATOM      1  C   UNL     1      -1.316   2.828  24.286  0.00  0.00    +0.001 C 
ATOM      2  C   UNL     1      -1.363   2.515  25.048  0.00  0.00    +0.019 C 
ATOM      3  C   UNL     1      -1.409   2.202  25.810  0.00  0.00    +0.001 C 
BRANCH   2   4
ATOM      4  C   UNL     1      -0.569   2.296  25.006  0.00  0.00    +0.115 C 
BRANCH   4   5
ATOM      5  C   UNL     1      -0.002   2.721  25.429  0.00  0.00    +0.365 C 
ATOM      6  O   UNL     1       0.504   2.329  25.951  0.00  0.00    -0.246 OA
ATOM      7  O   UNL     1       0.061   3.537  25.329  0.00  0.00    -0.246 OA
ENDBRANCH   4   5
ENDBRANCH   2   4
ENDBRANCH   8   2
ENDBRANCH   9   8
TORSDOF 6
ENDMDL
MODEL 2
REMARK VINA RESULT:     -11.4      1.951      4.032
REMARK  Name = 
REMARK  6 active torsions:
REMARK  status: ('A' for Active; 'I' for Inactive)
REMARK    1  A    between atoms: C_2  and  C_4
REMARK    2  A    between atoms: C_2  and  C_8
REMARK    3  A    between atoms: C_4  and  C_5
REMARK    4  A    between atoms: C_8  and  C_9
REMARK    5  A    between atoms: C_16  and  C_17
REMARK    6  A    between atoms: C_19  and  C_22
REMARK                            x       y       z     vdW  Elec       q    Type
REMARK                         _______ _______ _______ _____ _____    ______ ____
ROOT
ATOM      9  C   UNL     1      -3.898   0.240  24.461  0.00  0.00    +0.226 C 
ATOM     10  O   UNL     1      -3.187   0.264  24.044  0.00  0.00    -0.275 OA
ATOM     11  N   UNL     1      -4.263   0.941  24.697  0.00  0.00    -0.267 N 
ATOM     12  C   UNL     1      -4.973   0.916  25.114  0.00  0.00    +0.141 C 
ATOM     13  C   UNL     1      -5.338   1.618  25.349  0.00  0.00    +0.094 A 
ATOM     14  C   UNL     1      -4.992   2.344  25.167  0.00  0.00    +0.078 A 
ATOM     15  C   UNL     1      -4.280   2.369  24.749  0.00  0.00    +0.077 C 
ATOM     16  C   UNL     1      -3.916   1.667  24.514  0.00  0.00    +0.161 C 
ATOM     29  N   UNL     1      -5.475   2.940  25.469  0.00  0.00    -0.227 NA
ATOM     30  C   UNL     1      -6.120   2.583  25.838  0.00  0.00    +0.198 A 
ATOM     31  N   UNL     1      -6.035   1.766  25.764  0.00  0.00    -0.225 NA
ENDROOT
BRANCH  16  17
ATOM     17  C   UNL     1      -3.205   1.692  24.097  0.00  0.00    +0.255 A 
ATOM     18  N   UNL     1      -2.449   1.694  24.426  0.00  0.00    -0.189 NA
ATOM     19  C   UNL     1      -1.901   1.723  23.809  0.00  0.00    +0.203 A 
ATOM     20  N   UNL     1      -2.320   1.739  23.098  0.00  0.00    -0.056 NA
ATOM     21  O   UNL     1      -3.126   1.720  23.276  0.00  0.00    -0.335 OA
BRANCH  19  22
ATOM     22  C   UNL     1      -1.080   1.734  23.889  0.00  0.00    +0.039 A 
ATOM     23  C   UNL     1      -0.703   2.409  24.174  0.00  0.00    +0.004 A 
ATOM     24  C   UNL     1       0.119   2.419  24.254  0.00  0.00    +0.011 A 
ATOM     25  C   UNL     1       0.561   1.754  24.049  0.00  0.00    +0.058 A 
ATOM     26 CL   UNL     1       1.383   1.764  24.129  0.00  0.00    -0.082 Cl
ATOM     27  C   UNL     1       0.183   1.079  23.764  0.00  0.00    +0.011 A 
ATOM     28  C   UNL     1      -0.638   1.068  23.683  0.00  0.00    +0.004 A 
ENDBRANCH  19  22
ENDBRANCH  16  17
BRANCH   9   8
ATOM      8  C   UNL     1      -4.245  -0.486  24.643  0.00  0.00    +0.086 C 
BRANCH   8   2
ATOM      1  C   UNL     1      -4.180  -1.221  23.738  0.00  0.00    +0.001 C 
ATOM      2  C   UNL     1      -3.838  -1.188  24.489  0.00  0.00    +0.019 C 
ATOM      3  C   UNL     1      -3.497  -1.156  25.239  0.00  0.00    +0.001 C 
BRANCH   2   4
ATOM      4  C   UNL     1      -3.433  -1.889  24.334  0.00  0.00    +0.115 C 
BRANCH   4   5
ATOM      5  C   UNL     1      -3.768  -2.614  24.540  0.00  0.00    +0.365 C 
ATOM      6  O   UNL     1      -4.293  -2.988  24.023  0.00  0.00    -0.246 OA
ATOM      7  O   UNL     1      -3.581  -2.966  25.262  0.00  0.00    -0.246 OA
ENDBRANCH   4   5
ENDBRANCH   2   4
ENDBRANCH   8   2
ENDBRANCH   9   8
TORSDOF 6
ENDMDL
MODEL 3
REMARK VINA RESULT:     -11.3      1.649      3.336
REMARK  Name = 
REMARK  6 active torsions:
REMARK  status: ('A' for Active; 'I' for Inactive)
REMARK    1  A    between atoms: C_2  and  C_4
REMARK    2  A    between atoms: C_2  and  C_8
REMARK    3  A    between atoms: C_4  and  C_5
REMARK    4  A    between atoms: C_8  and  C_9
REMARK    5  A    between atoms: C_16  and  C_17
REMARK    6  A    between atoms: C_19  and  C_22
REMARK                            x       y       z     vdW  Elec       q    Type
REMARK                         _______ _______ _______ _____ _____    ______ ____
ROOT
ATOM      9  C   UNL     1      -2.976   1.946  24.906  0.00  0.00    +0.226 C 
ATOM     10  O   UNL     1      -3.412   1.273  25.100  0.00  0.00    -0.275 OA
ATOM     11  N   UNL     1      -2.164   1.889  24.774  0.00  0.00    -0.267 N 
ATOM     12  C   UNL     1      -1.729   2.561  24.580  0.00  0.00    +0.141 C 
ATOM     13  C   UNL     1      -0.916   2.504  24.448  0.00  0.00    +0.094 A 
ATOM     14  C   UNL     1      -0.540   1.773  24.511  0.00  0.00    +0.078 A 
ATOM     15  C   UNL     1      -0.975   1.099  24.706  0.00  0.00    +0.077 C 
ATOM     16  C   UNL     1      -1.787   1.158  24.837  0.00  0.00    +0.161 C 
ATOM     29  N   UNL     1       0.262   1.885  24.352  0.00  0.00    -0.227 NA
ATOM     30  C   UNL     1       0.380   2.684  24.190  0.00  0.00    +0.198 A 
ATOM     31  N   UNL     1      -0.348   3.067  24.250  0.00  0.00    -0.225 NA
ENDROOT
BRANCH  16  17
ATOM     17  C   UNL     1      -2.222   0.484  25.031  0.00  0.00    +0.255 A 
ATOM     18  N   UNL     1      -2.496  -0.087  24.503  0.00  0.00    -0.189 NA
ATOM     19  C   UNL     1      -2.903  -0.661  24.934  0.00  0.00    +0.203 A 
ATOM     20  N   UNL     1      -2.881  -0.445  25.729  0.00  0.00    -0.056 NA
ATOM     21  O   UNL     1      -2.460   0.263  25.790  0.00  0.00    -0.335 OA
BRANCH  19  22
ATOM     22  C   UNL     1      -3.268  -1.332  24.623  0.00  0.00    +0.039 A 
ATOM     23  C   UNL     1      -3.926  -1.255  24.132  0.00  0.00    +0.004 A 
ATOM     24  C   UNL     1      -4.290  -1.927  23.821  0.00  0.00    +0.011 A 
ATOM     25  C   UNL     1      -3.996  -2.676  24.002  0.00  0.00    +0.058 A 
ATOM     26 CL   UNL     1      -4.361  -3.348  23.692  0.00  0.00    -0.082 Cl
ATOM     27  C   UNL     1      -3.339  -2.754  24.494  0.00  0.00    +0.011 A 
ATOM     28  C   UNL     1      -2.974  -2.082  24.804  0.00  0.00    +0.004 A 
ENDBRANCH  19  22
ENDBRANCH  16  17
BRANCH   9   8
ATOM      8  C   UNL     1      -3.353   2.678  24.843  0.00  0.00    +0.086 C 
BRANCH   8   2
ATOM      1  C   UNL     1      -4.295   2.616  24.155  0.00  0.00    +0.001 C 
ATOM      2  C   UNL     1      -4.168   2.734  24.963  0.00  0.00    +0.019 C 
ATOM      3  C   UNL     1      -4.042   2.851  25.769  0.00  0.00    +0.001 C 
BRANCH   2   4
ATOM      4  C   UNL     1      -4.982   2.790  25.082  0.00  0.00    +0.115 C 
BRANCH   4   5
ATOM      5  C   UNL     1      -5.297   3.442  25.476  0.00  0.00    +0.365 C 
ATOM      6  O   UNL     1      -5.744   3.334  26.162  0.00  0.00    -0.246 OA
ATOM      7  O   UNL     1      -5.166   4.203  25.186  0.00  0.00    -0.246 OA
ENDBRANCH   4   5
ENDBRANCH   2   4
ENDBRANCH   8   2
ENDBRANCH   9   8
TORSDOF 6
ENDMDL
MODEL 4
REMARK VINA RESULT:     -11.2      2.325      4.863
REMARK  Name = 
REMARK  6 active torsions:
REMARK  status: ('A' for Active; 'I' for Inactive)
REMARK    1  A    between atoms: C_2  and  C_4
REMARK    2  A    between atoms: C_2  and  C_8
REMARK    3  A    between atoms: C_4  and  C_5
REMARK    4  A    between atoms: C_8  and  C_9
REMARK    5  A    between atoms: C_16  and  C_17
REMARK    6  A    between atoms: C_19  and  C_22
REMARK                            x       y       z     vdW  Elec       q    Type
REMARK                         _______ _______ _______ _____ _____    ______ ____
ROOT
ATOM      9  C   UNL     1      -2.464  -0.053  24.469  0.00  0.00    +0.226 C 
ATOM     10  O   UNL     1      -3.220   0.272  24.407  0.00  0.00    -0.275 OA
ATOM     11  N   UNL     1      -1.801   0.413  24.317  0.00  0.00    -0.267 N 
ATOM     12  C   UNL     1      -1.046   0.088  24.380  0.00  0.00    +0.141 C 
ATOM     13  C   UNL     1      -0.382   0.554  24.228  0.00  0.00    +0.094 A 
ATOM     14  C   UNL     1      -0.474   1.345  24.014  0.00  0.00    +0.078 A 
ATOM     15  C   UNL     1      -1.230   1.671  23.951  0.00  0.00    +0.077 C 
ATOM     16  C   UNL     1      -1.893   1.204  24.103  0.00  0.00    +0.161 C 
ATOM     29  N   UNL     1       0.276   1.667  23.898  0.00  0.00    -0.227 NA
ATOM     30  C   UNL     1       0.833   1.075  24.041  0.00  0.00    +0.198 A 
ATOM     31  N   UNL     1       0.425   0.387  24.245  0.00  0.00    -0.225 NA
ENDROOT
BRANCH  16  17
ATOM     17  C   UNL     1      -2.648   1.530  24.040  0.00  0.00    +0.255 A 
ATOM     18  N   UNL     1      -3.027   1.992  24.609  0.00  0.00    -0.189 NA
ATOM     19  C   UNL     1      -3.771   2.198  24.317  0.00  0.00    +0.203 A 
ATOM     20  N   UNL     1      -3.852   1.864  23.568  0.00  0.00    -0.056 NA
ATOM     21  O   UNL     1      -3.158   1.450  23.396  0.00  0.00    -0.335 OA
BRANCH  19  22
ATOM     22  C   UNL     1      -4.334   2.658  24.707  0.00  0.00    +0.039 A 
ATOM     23  C   UNL     1      -5.055   2.327  24.929  0.00  0.00    +0.004 A 
ATOM     24  C   UNL     1      -5.618   2.788  25.319  0.00  0.00    +0.011 A 
ATOM     25  C   UNL     1      -5.458   3.579  25.487  0.00  0.00    +0.058 A 
ATOM     26 CL   UNL     1      -6.021   4.040  25.877  0.00  0.00    -0.082 Cl
ATOM     27  C   UNL     1      -4.737   3.911  25.265  0.00  0.00    +0.011 A 
ATOM     28  C   UNL     1      -4.174   3.450  24.875  0.00  0.00    +0.004 A 
ENDBRANCH  19  22
ENDBRANCH  16  17
BRANCH   9   8
ATOM      8  C   UNL     1      -2.372  -0.844  24.684  0.00  0.00    +0.086 C 
BRANCH   8   2
ATOM      1  C   UNL     1      -3.045  -1.118  25.598  0.00  0.00    +0.001 C 
ATOM      2  C   UNL     1      -3.036  -1.321  24.798  0.00  0.00    +0.019 C 
ATOM      3  C   UNL     1      -3.028  -1.524  23.999  0.00  0.00    +0.001 C 
BRANCH   2   4
ATOM      4  C   UNL     1      -3.699  -1.797  24.912  0.00  0.00    +0.115 C 
BRANCH   4   5
ATOM      5  C   UNL     1      -3.624  -2.619  24.902  0.00  0.00    +0.365 C 
ATOM      6  O   UNL     1      -3.842  -3.045  24.230  0.00  0.00    -0.246 OA
ATOM      7  O   UNL     1      -3.331  -3.015  25.564  0.00  0.00    -0.246 OA
ENDBRANCH   4   5
ENDBRANCH   2   4
ENDBRANCH   8   2
ENDBRANCH   9   8
TORSDOF 6
ENDMDL
MODEL 5
REMARK VINA RESULT:     -11.1      1.905      3.984
REMARK  Name = 
REMARK  6 active torsions:
REMARK  status: ('A' for Active; 'I' for Inactive)
REMARK    1  A    between atoms: C_2  and  C_4
REMARK    2  A    between atoms: C_2  and  C_8
REMARK    3  A    between atoms: C_4  and  C_5
REMARK    4  A    between atoms: C_8  and  C_9
REMARK    5  A    between atoms: C_16  and  C_17
REMARK    6  A    between atoms: C_19  and  C_22
REMARK                            x       y       z     vdW  Elec       q    Type
REMARK                         _______ _______ _______ _____ _____    ______ ____
ROOT
ATOM      9  C   UNL     1      -1.968   0.509  24.459  0.00  0.00    +0.226 C 
ATOM     10  O   UNL     1      -2.347   1.230  24.322  0.00  0.00    -0.275 OA
ATOM     11  N   UNL     1      -2.407  -0.188  24.493  0.00  0.00    -0.267 N 
ATOM     12  C   UNL     1      -2.029  -0.907  24.631  0.00  0.00    +0.141 C 
ATOM     13  C   UNL     1      -2.468  -1.605  24.665  0.00  0.00    +0.094 A 
ATOM     14  C   UNL     1      -3.286  -1.582  24.562  0.00  0.00    +0.078 A 
ATOM     15  C   UNL     1      -3.666  -0.862  24.424  0.00  0.00    +0.077 C 
ATOM     16  C   UNL     1      -3.226  -0.165  24.390  0.00  0.00    +0.161 C 
ATOM     29  N   UNL     1      -3.573  -2.353  24.624  0.00  0.00    -0.227 NA
ATOM     30  C   UNL     1      -2.932  -2.852  24.765  0.00  0.00    +0.198 A 
ATOM     31  N   UNL     1      -2.250  -2.390  24.791  0.00  0.00    -0.225 NA
ENDROOT
BRANCH  16  17
ATOM     17  C   UNL     1      -3.605   0.554  24.253  0.00  0.00    +0.255 A 
ATOM     18  N   UNL     1      -3.985   1.019  24.818  0.00  0.00    -0.189 NA
ATOM     19  C   UNL     1      -4.286   1.688  24.440  0.00  0.00    +0.203 A 
ATOM     20  N   UNL     1      -4.091   1.637  23.640  0.00  0.00    -0.056 NA
ATOM     21  O   UNL     1      -3.670   0.936  23.524  0.00  0.00    -0.335 OA
BRANCH  19  22
ATOM     22  C   UNL     1      -4.707   2.300  24.799  0.00  0.00    +0.039 A 
ATOM     23  C   UNL     1      -5.449   2.153  25.127  0.00  0.00    +0.004 A 
ATOM     24  C   UNL     1      -5.869   2.766  25.486  0.00  0.00    +0.011 A 
ATOM     25  C   UNL     1      -5.547   3.524  25.516  0.00  0.00    +0.058 A 
ATOM     26 CL   UNL     1      -5.968   4.137  25.876  0.00  0.00    -0.082 Cl
ATOM     27  C   UNL     1      -4.805   3.671  25.189  0.00  0.00    +0.011 A 
ATOM     28  C   UNL     1      -4.384   3.059  24.829  0.00  0.00    +0.004 A 
ENDBRANCH  19  22
ENDBRANCH  16  17
BRANCH   9   8
ATOM      8  C   UNL     1      -1.150   0.487  24.563  0.00  0.00    +0.086 C 
BRANCH   8   2
ATOM      1  C   UNL     1      -0.598   1.063  23.711  0.00  0.00    +0.001 C 
ATOM      2  C   UNL     1      -0.709   1.183  24.520  0.00  0.00    +0.019 C 
ATOM      3  C   UNL     1      -0.821   1.304  25.328  0.00  0.00    +0.001 C 
BRANCH   2   4
ATOM      4  C   UNL     1      -0.269   1.879  24.477  0.00  0.00    +0.115 C 
BRANCH   4   5
ATOM      5  C   UNL     1       0.521   1.882  24.716  0.00  0.00    +0.365 C 
ATOM      6  O   UNL     1       0.722   2.137  25.475  0.00  0.00    -0.246 OA
ATOM      7  O   UNL     1       1.110   1.631  24.196  0.00  0.00    -0.246 OA
ENDBRANCH   4   5
ENDBRANCH   2   4
ENDBRANCH   8   2
ENDBRANCH   9   8
TORSDOF 6
ENDMDL
MODEL 6
REMARK VINA RESULT:     -10.9      2.934      5.668
REMARK  Name = 
REMARK  6 active torsions:
REMARK  status: ('A' for Active; 'I' for Inactive)
REMARK    1  A    between atoms: C_2  and  C_4
REMARK    2  A    between atoms: C_2  and  C_8
REMARK    3  A    between atoms: C_4  and  C_5
REMARK    4  A    between atoms: C_8  and  C_9
REMARK    5  A    between atoms: C_16  and  C_17
REMARK    6  A    between atoms: C_19  and  C_22
REMARK                            x       y       z     vdW  Elec       q    Type
REMARK                         _______ _______ _______ _____ _____    ______ ____
ROOT
ATOM      9  C   UNL     1      -1.196   0.325  24.709  0.00  0.00    +0.226 C 
ATOM     10  O   UNL     1      -1.446   0.941  25.198  0.00  0.00    -0.275 OA
ATOM     11  N   UNL     1      -0.490   0.392  24.289  0.00  0.00    -0.267 N 
ATOM     12  C   UNL     1      -0.240  -0.223  23.801  0.00  0.00    +0.141 C 
ATOM     13  C   UNL     1       0.467  -0.156  23.380  0.00  0.00    +0.094 A 
ATOM     14  C   UNL     1       0.923   0.527  23.448  0.00  0.00    +0.078 A 
ATOM     15  C   UNL     1       0.673   1.144  23.937  0.00  0.00    +0.077 C 
ATOM     16  C   UNL     1      -0.033   1.076  24.357  0.00  0.00    +0.161 C 
ATOM     29  N   UNL     1       1.589   0.438  22.970  0.00  0.00    -0.227 NA
ATOM     30  C   UNL     1       1.544  -0.301  22.606  0.00  0.00    +0.198 A 
ATOM     31  N   UNL     1       0.851  -0.668  22.860  0.00  0.00    -0.225 NA
ENDROOT
BRANCH  16  17
ATOM     17  C   UNL     1      -0.282   1.692  24.845  0.00  0.00    +0.255 A 
ATOM     18  N   UNL     1      -0.614   2.405  24.597  0.00  0.00    -0.189 NA
ATOM     19  C   UNL     1      -0.780   2.858  25.266  0.00  0.00    +0.203 A 
ATOM     20  N   UNL     1      -0.551   2.424  25.929  0.00  0.00    -0.056 NA
ATOM     21  O   UNL     1      -0.243   1.703  25.670  0.00  0.00    -0.335 OA
BRANCH  19  22
ATOM     22  C   UNL     1      -1.116   3.611  25.271  0.00  0.00    +0.039 A 
ATOM     23  C   UNL     1      -1.867   3.726  25.592  0.00  0.00    +0.004 A 
ATOM     24  C   UNL     1      -2.202   4.480  25.597  0.00  0.00    +0.011 A 
ATOM     25  C   UNL     1      -1.787   5.118  25.281  0.00  0.00    +0.058 A 
ATOM     26 CL   UNL     1      -2.122   5.872  25.285  0.00  0.00    -0.082 Cl
ATOM     27  C   UNL     1      -1.036   5.003  24.960  0.00  0.00    +0.011 A 
ATOM     28  C   UNL     1      -0.700   4.250  24.955  0.00  0.00    +0.004 A 
ENDBRANCH  19  22
ENDBRANCH  16  17
BRANCH   9   8
ATOM      8  C   UNL     1      -1.652  -0.359  24.641  0.00  0.00    +0.086 C 
BRANCH   8   2
ATOM      1  C   UNL     1      -2.751  -0.057  24.386  0.00  0.00    +0.001 C 
ATOM      2  C   UNL     1      -2.378  -0.411  25.032  0.00  0.00    +0.019 C 
ATOM      3  C   UNL     1      -2.006  -0.765  25.677  0.00  0.00    +0.001 C 
BRANCH   2   4
ATOM      4  C   UNL     1      -3.103  -0.463  25.421  0.00  0.00    +0.115 C 
BRANCH   4   5
ATOM      5  C   UNL     1      -3.599  -1.108  25.284  0.00  0.00    +0.365 C 
ATOM      6  O   UNL     1      -4.168  -1.072  24.687  0.00  0.00    -0.246 OA
ATOM      7  O   UNL     1      -3.528  -1.789  25.745  0.00  0.00    -0.246 OA
ENDBRANCH   4   5
ENDBRANCH   2   4
ENDBRANCH   8   2
ENDBRANCH   9   8
TORSDOF 6
ENDMDL
MODEL 7
REMARK VINA RESULT:     -10.7      2.096      3.563
REMARK  Name = 
REMARK  6 active torsions:
REMARK  status: ('A' for Active; 'I' for Inactive)
REMARK    1  A    between atoms: C_2  and  C_4
REMARK    2  A    between atoms: C_2  and  C_8
REMARK    3  A    between atoms: C_4  and  C_5
REMARK    4  A    between atoms: C_8  and  C_9
REMARK    5  A    between atoms: C_16  and  C_17
REMARK    6  A    between atoms: C_19  and  C_22
REMARK                            x       y       z     vdW  Elec       q    Type
REMARK                         _______ _______ _______ _____ _____    ______ ____
ROOT
ATOM      9  C   UNL     1      -3.160   2.543  24.708  0.00  0.00    +0.226 C 
ATOM     10  O   UNL     1      -3.032   1.759  24.484  0.00  0.00    -0.275 OA
ATOM     11  N   UNL     1      -2.528   3.070  24.751  0.00  0.00    -0.267 N 
ATOM     12  C   UNL     1      -2.657   3.852  24.974  0.00  0.00    +0.141 C 
ATOM     13  C   UNL     1      -2.023   4.380  25.017  0.00  0.00    +0.094 A 
ATOM     14  C   UNL     1      -1.261   4.123  24.835  0.00  0.00    +0.078 A 
ATOM     15  C   UNL     1      -1.131   3.339  24.611  0.00  0.00    +0.077 C 
ATOM     16  C   UNL     1      -1.765   2.813  24.569  0.00  0.00    +0.161 C 
ATOM     29  N   UNL     1      -0.748   4.763  24.925  0.00  0.00    -0.227 NA
ATOM     30  C   UNL     1      -1.194   5.415  25.162  0.00  0.00    +0.198 A 
ATOM     31  N   UNL     1      -1.982   5.178  25.219  0.00  0.00    -0.225 NA
ENDROOT
BRANCH  16  17
ATOM     17  C   UNL     1      -1.635   2.030  24.345  0.00  0.00    +0.255 A 
ATOM     18  N   UNL     1      -1.353   1.426  24.830  0.00  0.00    -0.189 NA
ATOM     19  C   UNL     1      -1.308   0.736  24.381  0.00  0.00    +0.203 A 
ATOM     20  N   UNL     1      -1.563   0.913  23.617  0.00  0.00    -0.056 NA
ATOM     21  O   UNL     1      -1.765   1.713  23.594  0.00  0.00    -0.335 OA
BRANCH  19  22
ATOM     22  C   UNL     1      -1.053  -0.002  24.649  0.00  0.00    +0.039 A 
ATOM     23  C   UNL     1      -1.415  -0.351  25.302  0.00  0.00    +0.004 A 
ATOM     24  C   UNL     1      -1.160  -1.089  25.569  0.00  0.00    +0.011 A 
ATOM     25  C   UNL     1      -0.542  -1.476  25.184  0.00  0.00    +0.058 A 
ATOM     26 CL   UNL     1      -0.287  -2.214  25.451  0.00  0.00    -0.082 Cl
ATOM     27  C   UNL     1      -0.180  -1.127  24.531  0.00  0.00    +0.011 A 
ATOM     28  C   UNL     1      -0.435  -0.389  24.263  0.00  0.00    +0.004 A 
ENDBRANCH  19  22
ENDBRANCH  16  17
BRANCH   9   8
ATOM      8  C   UNL     1      -3.923   2.800  24.890  0.00  0.00    +0.086 C 
BRANCH   8   2
ATOM      1  C   UNL     1      -4.716   2.411  24.126  0.00  0.00    +0.001 C 
ATOM      2  C   UNL     1      -4.545   2.257  24.919  0.00  0.00    +0.019 C 
ATOM      3  C   UNL     1      -4.375   2.104  25.711  0.00  0.00    +0.001 C 
BRANCH   2   4
ATOM      4  C   UNL     1      -5.166   1.716  24.948  0.00  0.00    +0.115 C 
BRANCH   4   5
ATOM      5  C   UNL     1      -5.908   1.954  25.219  0.00  0.00    +0.365 C 
ATOM      6  O   UNL     1      -6.023   2.117  26.020  0.00  0.00    -0.246 OA
ATOM      7  O   UNL     1      -6.537   2.030  24.690  0.00  0.00    -0.246 OA
ENDBRANCH   4   5
ENDBRANCH   2   4
ENDBRANCH   8   2
ENDBRANCH   9   8
TORSDOF 6
ENDMDL
