MODEL 1
REMARK VINA RESULT:      -9.0      0.000      0.000
REMARK  Name = 
REMARK  6 active torsions:
REMARK  status: ('A' for Active; 'I' for Inactive)
REMARK    1  A    between atoms: O_2  and  C_3
REMARK    2  A    between atoms: C_6  and  C_9
REMARK    3  A    between atoms: N_11  and  C_12
REMARK    4  A    between atoms: C_14  and  C_18
REMARK    5  A    between atoms: C_20  and  C_23
REMARK    6  A    between atoms: C_26  and  O_27
REMARK                            x       y       z     vdW  Elec       q    Type
REMARK                         _______ _______ _______ _____ _____    ______ ____
ROOT
ATOM     12  C   UNL     1      -1.224   0.807  24.293  0.00  0.00    +0.113 C 
ATOM     13  C   UNL     1      -0.596   0.941  23.775  0.00  0.00    +0.049 C 
ATOM     14  C   UNL     1      -0.139   0.254  23.745  0.00  0.00    +0.139 C 
ATOM     15  N   UNL     1      -0.485  -0.303  24.246  0.00  0.00    -0.264 NA
ATOM     16  C   UNL     1      -0.209  -1.068  24.384  0.00  0.00    +0.090 C 
ATOM     17  C   UNL     1      -1.156   0.039  24.584  0.00  0.00    +0.094 C 
ENDROOT
BRANCH  14  18
ATOM     18  C   UNL     1       0.543   0.145  23.296  0.00  0.00    +0.251 A 
ATOM     19  N   UNL     1       1.314   0.315  23.534  0.00  0.00    -0.190 NA
ATOM     20  C   UNL     1       1.822   0.121  22.913  0.00  0.00    +0.203 A 
ATOM     21  N   UNL     1       1.365  -0.168  22.291  0.00  0.00    -0.056 NA
ATOM     22  O   UNL     1       0.574  -0.154  22.527  0.00  0.00    -0.336 OA
BRANCH  20  23
ATOM     23  C   UNL     1       2.644   0.203  22.915  0.00  0.00    +0.039 A 
ATOM     24  C   UNL     1       2.985   0.935  22.750  0.00  0.00    +0.006 A 
ATOM     25  C   UNL     1       3.806   1.017  22.752  0.00  0.00    +0.037 A 
ATOM     26  C   UNL     1       4.285   0.366  22.918  0.00  0.00    +0.139 A 
ATOM     29  C   UNL     1       3.943  -0.366  23.083  0.00  0.00    +0.037 A 
ATOM     30  C   UNL     1       3.122  -0.448  23.082  0.00  0.00    +0.006 A 
BRANCH  26  27
ATOM     27  O   UNL     1       5.106   0.447  22.920  0.00  0.00    -0.471 OA
ATOM     28  C   UNL     1       5.550   0.127  23.537  0.00  0.00    +0.252 C 
ENDBRANCH  26  27
ENDBRANCH  20  23
ENDBRANCH  14  18
BRANCH  12  11
ATOM      9  C   UNL     1      -2.522   1.356  24.059  0.00  0.00    +0.265 C 
ATOM     10  O   UNL     1      -2.635   0.824  23.439  0.00  0.00    -0.268 OA
ATOM     11  N   UNL     1      -1.817   1.347  24.486  0.00  0.00    -0.202 NA
BRANCH   9   6
ATOM      3  C   UNL     1      -4.300   2.978  24.638  0.00  0.00    +0.139 A 
ATOM      4  C   UNL     1      -3.633   3.228  24.223  0.00  0.00    +0.037 A 
ATOM      5  C   UNL     1      -3.040   2.687  24.030  0.00  0.00    +0.008 A 
ATOM      6  C   UNL     1      -3.115   1.897  24.252  0.00  0.00    +0.055 A 
ATOM      7  C   UNL     1      -3.782   1.646  24.667  0.00  0.00    +0.008 A 
ATOM      8  C   UNL     1      -4.375   2.187  24.860  0.00  0.00    +0.037 A 
BRANCH   3   2
ATOM      1  C   UNL     1      -5.229   3.510  25.583  0.00  0.00    +0.252 C 
ATOM      2  O   UNL     1      -4.893   3.518  24.831  0.00  0.00    -0.471 OA
ENDBRANCH   3   2
ENDBRANCH   9   6
ENDBRANCH  12  11
TORSDOF 6
ENDMDL
MODEL 2
REMARK VINA RESULT:      -8.7      0.961      6.662
REMARK  Name = 
REMARK  6 active torsions:
REMARK  status: ('A' for Active; 'I' for Inactive)
REMARK    1  A    between atoms: O_2  and  C_3
REMARK    2  A    between atoms: C_6  and  C_9
REMARK    3  A    between atoms: N_11  and  C_12
REMARK    4  A    between atoms: C_14  and  C_18
REMARK    5  A    between atoms: C_20  and  C_23
REMARK    6  A    between atoms: C_26  and  O_27
REMARK                            x       y       z     vdW  Elec       q    Type
REMARK                         _______ _______ _______ _____ _____    ______ ____
ROOT
ATOM     12  C   UNL     1      -0.357  -0.081  24.225  0.00  0.00    +0.113 C 
ATOM     13  C   UNL     1      -1.044   0.337  24.038  0.00  0.00    +0.049 C 
ATOM     14  C   UNL     1      -1.686  -0.075  24.354  0.00  0.00    +0.139 C 
ATOM     15  N   UNL     1      -1.395  -0.746  24.736  0.00  0.00    -0.264 NA
ATOM     16  C   UNL     1      -1.846  -1.313  25.130  0.00  0.00    +0.090 C 
ATOM     17  C   UNL     1      -0.574  -0.749  24.656  0.00  0.00    +0.094 C 
ENDROOT
BRANCH  14  18
ATOM     18  C   UNL     1      -2.478   0.146  24.298  0.00  0.00    +0.251 A 
ATOM     19  N   UNL     1      -2.824   0.808  24.649  0.00  0.00    -0.190 NA
ATOM     20  C   UNL     1      -3.624   0.815  24.448  0.00  0.00    +0.203 A 
ATOM     21  N   UNL     1      -3.774   0.158  23.973  0.00  0.00    -0.056 NA
ATOM     22  O   UNL     1      -3.065  -0.256  23.879  0.00  0.00    -0.336 OA
BRANCH  20  23
ATOM     23  C   UNL     1      -4.178   1.380  24.682  0.00  0.00    +0.039 A 
ATOM     24  C   UNL     1      -4.103   2.161  24.429  0.00  0.00    +0.006 A 
ATOM     25  C   UNL     1      -4.656   2.726  24.663  0.00  0.00    +0.037 A 
ATOM     26  C   UNL     1      -5.286   2.510  25.150  0.00  0.00    +0.139 A 
ATOM     29  C   UNL     1      -5.361   1.729  25.404  0.00  0.00    +0.037 A 
ATOM     30  C   UNL     1      -4.807   1.163  25.170  0.00  0.00    +0.006 A 
BRANCH  26  27
ATOM     27  O   UNL     1      -5.839   3.074  25.384  0.00  0.00    -0.471 OA
ATOM     28  C   UNL     1      -5.588   3.821  25.630  0.00  0.00    +0.252 C 
ENDBRANCH  26  27
ENDBRANCH  20  23
ENDBRANCH  14  18
BRANCH  12  11
ATOM      9  C   UNL     1       0.699  -0.039  23.263  0.00  0.00    +0.265 C 
ATOM     10  O   UNL     1       0.216  -0.427  22.718  0.00  0.00    -0.268 OA
ATOM     11  N   UNL     1       0.411   0.134  24.017  0.00  0.00    -0.202 NA
BRANCH   9   6
ATOM      3  C   UNL     1       3.006   0.604  22.638  0.00  0.00    +0.139 A 
ATOM      4  C   UNL     1       2.582   1.061  23.178  0.00  0.00    +0.037 A 
ATOM      5  C   UNL     1       1.812   0.846  23.387  0.00  0.00    +0.008 A 
ATOM      6  C   UNL     1       1.468   0.175  23.055  0.00  0.00    +0.055 A 
ATOM      7  C   UNL     1       1.891  -0.282  22.515  0.00  0.00    +0.008 A 
ATOM      8  C   UNL     1       2.661  -0.068  22.306  0.00  0.00    +0.037 A 
BRANCH   3   2
ATOM      1  C   UNL     1       4.414   0.532  22.864  0.00  0.00    +0.252 C 
ATOM      2  O   UNL     1       3.774   0.818  22.430  0.00  0.00    -0.471 OA
ENDBRANCH   3   2
ENDBRANCH   9   6
ENDBRANCH  12  11
TORSDOF 6
ENDMDL
MODEL 3
REMARK VINA RESULT:      -8.6      4.448      5.880
REMARK  Name = 
REMARK  6 active torsions:
REMARK  status: ('A' for Active; 'I' for Inactive)
REMARK    1  A    between atoms: O_2  and  C_3
REMARK    2  A    between atoms: C_6  and  C_9
REMARK    3  A    between atoms: N_11  and  C_12
REMARK    4  A    between atoms: C_14  and  C_18
REMARK    5  A    between atoms: C_20  and  C_23
REMARK    6  A    between atoms: C_26  and  O_27
REMARK                            x       y       z     vdW  Elec       q    Type
REMARK                         _______ _______ _______ _____ _____    ______ ____
ROOT
ATOM     12  C   UNL     1      -4.688   0.859  25.154  0.00  0.00    +0.113 C 
ATOM     13  C   UNL     1      -4.085   1.394  25.327  0.00  0.00    +0.049 C 
ATOM     14  C   UNL     1      -4.415   2.151  25.347  0.00  0.00    +0.139 C 
ATOM     15  N   UNL     1      -5.221   2.081  25.186  0.00  0.00    -0.264 NA
ATOM     16  C   UNL     1      -5.764   2.701  25.151  0.00  0.00    +0.090 C 
ATOM     17  C   UNL     1      -5.390   1.282  25.067  0.00  0.00    +0.094 C 
ENDROOT
BRANCH  14  18
ATOM     18  C   UNL     1      -4.010   2.852  25.501  0.00  0.00    +0.251 A 
ATOM     19  N   UNL     1      -3.271   3.062  25.198  0.00  0.00    -0.190 NA
ATOM     20  C   UNL     1      -3.077   3.807  25.495  0.00  0.00    +0.203 A 
ATOM     21  N   UNL     1      -3.694   4.058  25.981  0.00  0.00    -0.056 NA
ATOM     22  O   UNL     1      -4.271   3.467  25.984  0.00  0.00    -0.336 OA
BRANCH  20  23
ATOM     23  C   UNL     1      -2.385   4.228  25.334  0.00  0.00    +0.039 A 
ATOM     24  C   UNL     1      -2.411   5.049  25.253  0.00  0.00    +0.006 A 
ATOM     25  C   UNL     1      -1.720   5.469  25.092  0.00  0.00    +0.037 A 
ATOM     26  C   UNL     1      -1.003   5.069  25.012  0.00  0.00    +0.139 A 
ATOM     29  C   UNL     1      -0.977   4.249  25.093  0.00  0.00    +0.037 A 
ATOM     30  C   UNL     1      -1.668   3.828  25.254  0.00  0.00    +0.006 A 
BRANCH  26  27
ATOM     27  O   UNL     1      -0.312   5.489  24.851  0.00  0.00    -0.471 OA
ATOM     28  C   UNL     1       0.081   5.377  24.135  0.00  0.00    +0.252 C 
ENDBRANCH  26  27
ENDBRANCH  20  23
ENDBRANCH  14  18
BRANCH  12  11
ATOM      9  C   UNL     1      -4.074  -0.271  24.531  0.00  0.00    +0.265 C 
ATOM     10  O   UNL     1      -3.629   0.234  24.055  0.00  0.00    -0.268 OA
ATOM     11  N   UNL     1      -4.603   0.041  25.081  0.00  0.00    -0.202 NA
BRANCH   9   6
ATOM      3  C   UNL     1      -3.819  -2.723  24.312  0.00  0.00    +0.139 A 
ATOM      4  C   UNL     1      -3.455  -2.326  24.935  0.00  0.00    +0.037 A 
ATOM      5  C   UNL     1      -3.540  -1.507  25.009  0.00  0.00    +0.008 A 
ATOM      6  C   UNL     1      -3.989  -1.089  24.458  0.00  0.00    +0.055 A 
ATOM      7  C   UNL     1      -4.352  -1.486  23.834  0.00  0.00    +0.008 A 
ATOM      8  C   UNL     1      -4.268  -2.305  23.761  0.00  0.00    +0.037 A 
BRANCH   3   2
ATOM      1  C   UNL     1      -3.040  -3.857  23.925  0.00  0.00    +0.252 C 
ATOM      2  O   UNL     1      -3.734  -3.541  24.239  0.00  0.00    -0.471 OA
ENDBRANCH   3   2
ENDBRANCH   9   6
ENDBRANCH  12  11
TORSDOF 6
ENDMDL
MODEL 4
REMARK VINA RESULT:      -8.1      1.362      2.166
REMARK  Name = 
REMARK  6 active torsions:
REMARK  status: ('A' for Active; 'I' for Inactive)
REMARK    1  A    between atoms: O_2  and  C_3
REMARK    2  A    between atoms: C_6  and  C_9
REMARK    3  A    between atoms: N_11  and  C_12
REMARK    4  A    between atoms: C_14  and  C_18
REMARK    5  A    between atoms: C_20  and  C_23
REMARK    6  A    between atoms: C_26  and  O_27
REMARK                            x       y       z     vdW  Elec       q    Type
REMARK                         _______ _______ _______ _____ _____    ______ ____
ROOT
ATOM     12  C   UNL     1      -3.174   0.330  24.994  0.00  0.00    +0.113 C 
ATOM     13  C   UNL     1      -2.356   0.402  24.918  0.00  0.00    +0.049 C 
ATOM     14  C   UNL     1      -2.062  -0.317  24.638  0.00  0.00    +0.139 C 
ATOM     15  N   UNL     1      -2.699  -0.832  24.542  0.00  0.00    -0.264 NA
ATOM     16  C   UNL     1      -2.657  -1.611  24.273  0.00  0.00    +0.090 C 
ATOM     17  C   UNL     1      -3.387  -0.432  24.762  0.00  0.00    +0.094 C 
ENDROOT
BRANCH  14  18
ATOM     18  C   UNL     1      -1.271  -0.489  24.482  0.00  0.00    +0.251 A 
ATOM     19  N   UNL     1      -0.780  -0.081  23.959  0.00  0.00    -0.190 NA
ATOM     20  C   UNL     1      -0.037  -0.440  23.975  0.00  0.00    +0.203 A 
ATOM     21  N   UNL     1      -0.069  -1.069  24.508  0.00  0.00    -0.056 NA
ATOM     22  O   UNL     1      -0.832  -1.099  24.821  0.00  0.00    -0.336 OA
BRANCH  20  23
ATOM     23  C   UNL     1       0.623  -0.210  23.535  0.00  0.00    +0.039 A 
ATOM     24  C   UNL     1       1.055   0.456  23.759  0.00  0.00    +0.006 A 
ATOM     25  C   UNL     1       1.714   0.686  23.319  0.00  0.00    +0.037 A 
ATOM     26  C   UNL     1       1.941   0.250  22.656  0.00  0.00    +0.139 A 
ATOM     29  C   UNL     1       1.508  -0.416  22.433  0.00  0.00    +0.037 A 
ATOM     30  C   UNL     1       0.848  -0.646  22.872  0.00  0.00    +0.006 A 
BRANCH  26  27
ATOM     27  O   UNL     1       2.599   0.480  22.217  0.00  0.00    -0.471 OA
ATOM     28  C   UNL     1       3.324   0.599  22.592  0.00  0.00    +0.252 C 
ENDBRANCH  26  27
ENDBRANCH  20  23
ENDBRANCH  14  18
BRANCH  12  11
ATOM      9  C   UNL     1      -3.979   1.481  24.729  0.00  0.00    +0.265 C 
ATOM     10  O   UNL     1      -3.751   1.455  23.936  0.00  0.00    -0.268 OA
ATOM     11  N   UNL     1      -3.690   0.917  25.258  0.00  0.00    -0.202 NA
BRANCH   9   6
ATOM      3  C   UNL     1      -5.525   3.244  25.518  0.00  0.00    +0.139 A 
ATOM      4  C   UNL     1      -5.807   2.483  25.373  0.00  0.00    +0.037 A 
ATOM      5  C   UNL     1      -5.291   1.895  25.110  0.00  0.00    +0.008 A 
ATOM      6  C   UNL     1      -4.494   2.068  24.992  0.00  0.00    +0.055 A 
ATOM      7  C   UNL     1      -4.212   2.829  25.136  0.00  0.00    +0.008 A 
ATOM      8  C   UNL     1      -4.728   3.418  25.399  0.00  0.00    +0.037 A 
BRANCH   3   2
ATOM      1  C   UNL     1      -5.935   4.612  25.537  0.00  0.00    +0.252 C 
ATOM      2  O   UNL     1      -6.041   3.832  25.781  0.00  0.00    -0.471 OA
ENDBRANCH   3   2
ENDBRANCH   9   6
ENDBRANCH  12  11
TORSDOF 6
ENDMDL
MODEL 5
REMARK VINA RESULT:      -7.6      4.507      5.842
REMARK  Name = 
REMARK  6 active torsions:
REMARK  status: ('A' for Active; 'I' for Inactive)
REMARK    1  A    between atoms: O_2  and  C_3
REMARK    2  A    between atoms: C_6  and  C_9
REMARK    3  A    between atoms: N_11  and  C_12
REMARK    4  A    between atoms: C_14  and  C_18
REMARK    5  A    between atoms: C_20  and  C_23
REMARK    6  A    between atoms: C_26  and  O_27
REMARK                            x       y       z     vdW  Elec       q    Type
REMARK                         _______ _______ _______ _____ _____    ______ ____
ROOT
ATOM     12  C   UNL     1      -3.940   2.916  24.902  0.00  0.00    +0.113 C 
ATOM     13  C   UNL     1      -3.852   2.119  24.710  0.00  0.00    +0.049 C 
ATOM     14  C   UNL     1      -4.552   1.730  24.908  0.00  0.00    +0.139 C 
ATOM     15  N   UNL     1      -5.072   2.288  25.223  0.00  0.00    -0.264 NA
ATOM     16  C   UNL     1      -5.837   2.139  25.494  0.00  0.00    +0.090 C 
ATOM     17  C   UNL     1      -4.693   3.021  25.220  0.00  0.00    +0.094 C 
ENDROOT
BRANCH  14  18
ATOM     18  C   UNL     1      -4.705   0.926  24.809  0.00  0.00    +0.251 A 
ATOM     19  N   UNL     1      -4.140   0.327  24.761  0.00  0.00    -0.190 NA
ATOM     20  C   UNL     1      -4.536  -0.390  24.662  0.00  0.00    +0.203 A 
ATOM     21  N   UNL     1      -5.346  -0.235  24.649  0.00  0.00    -0.056 NA
ATOM     22  O   UNL     1      -5.451   0.579  24.739  0.00  0.00    -0.336 OA
BRANCH  20  23
ATOM     23  C   UNL     1      -4.184  -1.133  24.590  0.00  0.00    +0.039 A 
ATOM     24  C   UNL     1      -3.718  -1.430  25.202  0.00  0.00    +0.006 A 
ATOM     25  C   UNL     1      -3.366  -2.172  25.129  0.00  0.00    +0.037 A 
ATOM     26  C   UNL     1      -3.480  -2.618  24.444  0.00  0.00    +0.139 A 
ATOM     29  C   UNL     1      -3.947  -2.321  23.832  0.00  0.00    +0.037 A 
ATOM     30  C   UNL     1      -4.299  -1.578  23.905  0.00  0.00    +0.006 A 
BRANCH  26  27
ATOM     27  O   UNL     1      -3.128  -3.360  24.371  0.00  0.00    -0.471 OA
ATOM     28  C   UNL     1      -2.312  -3.421  24.271  0.00  0.00    +0.252 C 
ENDBRANCH  26  27
ENDBRANCH  20  23
ENDBRANCH  14  18
BRANCH  12  11
ATOM      9  C   UNL     1      -2.710   3.534  25.287  0.00  0.00    +0.265 C 
ATOM     10  O   UNL     1      -2.616   2.973  25.884  0.00  0.00    -0.268 OA
ATOM     11  N   UNL     1      -3.373   3.505  24.796  0.00  0.00    -0.202 NA
BRANCH   9   6
ATOM      3  C   UNL     1      -1.008   5.303  24.968  0.00  0.00    +0.139 A 
ATOM      4  C   UNL     1      -0.803   4.511  24.868  0.00  0.00    +0.037 A 
ATOM      5  C   UNL     1      -1.371   3.921  24.974  0.00  0.00    +0.008 A 
ATOM      6  C   UNL     1      -2.143   4.124  25.181  0.00  0.00    +0.055 A 
ATOM      7  C   UNL     1      -2.348   4.916  25.281  0.00  0.00    +0.008 A 
ATOM      8  C   UNL     1      -1.780   5.506  25.175  0.00  0.00    +0.037 A 
BRANCH   3   2
ATOM      1  C   UNL     1       0.160   5.791  24.307  0.00  0.00    +0.252 C 
ATOM      2  O   UNL     1      -0.441   5.892  24.862  0.00  0.00    -0.471 OA
ENDBRANCH   3   2
ENDBRANCH   9   6
ENDBRANCH  12  11
TORSDOF 6
ENDMDL
MODEL 6
REMARK VINA RESULT:      -7.5      2.679      4.885
REMARK  Name = 
REMARK  6 active torsions:
REMARK  status: ('A' for Active; 'I' for Inactive)
REMARK    1  A    between atoms: O_2  and  C_3
REMARK    2  A    between atoms: C_6  and  C_9
REMARK    3  A    between atoms: N_11  and  C_12
REMARK    4  A    between atoms: C_14  and  C_18
REMARK    5  A    between atoms: C_20  and  C_23
REMARK    6  A    between atoms: C_26  and  O_27
REMARK                            x       y       z     vdW  Elec       q    Type
REMARK                         _______ _______ _______ _____ _____    ______ ____
ROOT
ATOM     12  C   UNL     1      -0.212   1.648  24.580  0.00  0.00    +0.113 C 
ATOM     13  C   UNL     1      -0.672   1.030  24.874  0.00  0.00    +0.049 C 
ATOM     14  C   UNL     1      -0.393   0.327  24.545  0.00  0.00    +0.139 C 
ATOM     15  N   UNL     1       0.240   0.511  24.048  0.00  0.00    -0.264 NA
ATOM     16  C   UNL     1       0.683  -0.027  23.607  0.00  0.00    +0.090 C 
ATOM     17  C   UNL     1       0.351   1.329  24.070  0.00  0.00    +0.094 C 
ENDROOT
BRANCH  14  18
ATOM     18  C   UNL     1      -0.693  -0.428  24.688  0.00  0.00    +0.251 A 
ATOM     19  N   UNL     1      -1.445  -0.698  24.481  0.00  0.00    -0.190 NA
ATOM     20  C   UNL     1      -1.510  -1.483  24.729  0.00  0.00    +0.203 A 
ATOM     21  N   UNL     1      -0.800  -1.698  25.088  0.00  0.00    -0.056 NA
ATOM     22  O   UNL     1      -0.294  -1.046  25.063  0.00  0.00    -0.336 OA
BRANCH  20  23
ATOM     23  C   UNL     1      -2.172  -1.968  24.633  0.00  0.00    +0.039 A 
ATOM     24  C   UNL     1      -2.088  -2.719  24.304  0.00  0.00    +0.006 A 
ATOM     25  C   UNL     1      -2.748  -3.204  24.209  0.00  0.00    +0.037 A 
ATOM     26  C   UNL     1      -3.493  -2.937  24.443  0.00  0.00    +0.139 A 
ATOM     29  C   UNL     1      -3.577  -2.185  24.772  0.00  0.00    +0.037 A 
ATOM     30  C   UNL     1      -2.916  -1.700  24.867  0.00  0.00    +0.006 A 
BRANCH  26  27
ATOM     27  O   UNL     1      -4.154  -3.421  24.347  0.00  0.00    -0.471 OA
ATOM     28  C   UNL     1      -4.670  -3.294  23.717  0.00  0.00    +0.252 C 
ENDBRANCH  26  27
ENDBRANCH  20  23
ENDBRANCH  14  18
BRANCH  12  11
ATOM      9  C   UNL     1      -0.950   2.868  24.477  0.00  0.00    +0.265 C 
ATOM     10  O   UNL     1      -1.510   2.489  24.006  0.00  0.00    -0.268 OA
ATOM     11  N   UNL     1      -0.301   2.448  24.764  0.00  0.00    -0.202 NA
BRANCH   9   6
ATOM      3  C   UNL     1      -1.215   5.266  25.030  0.00  0.00    +0.139 A 
ATOM      4  C   UNL     1      -0.545   5.009  24.625  0.00  0.00    +0.037 A 
ATOM      5  C   UNL     1      -0.456   4.208  24.440  0.00  0.00    +0.008 A 
ATOM      6  C   UNL     1      -1.038   3.668  24.661  0.00  0.00    +0.055 A 
ATOM      7  C   UNL     1      -1.708   3.925  25.067  0.00  0.00    +0.008 A 
ATOM      8  C   UNL     1      -1.796   4.726  25.251  0.00  0.00    +0.037 A 
BRANCH   3   2
ATOM      1  C   UNL     1      -2.006   6.456  25.030  0.00  0.00    +0.252 C 
ATOM      2  O   UNL     1      -1.303   6.066  25.214  0.00  0.00    -0.471 OA
ENDBRANCH   3   2
ENDBRANCH   9   6
ENDBRANCH  12  11
TORSDOF 6
ENDMDL
MODEL 7
REMARK VINA RESULT:      -7.4      1.592      6.932
REMARK  Name = 
REMARK  6 active torsions:
REMARK  status: ('A' for Active; 'I' for Inactive)
REMARK    1  A    between atoms: O_2  and  C_3
REMARK    2  A    between atoms: C_6  and  C_9
REMARK    3  A    between atoms: N_11  and  C_12
REMARK    4  A    between atoms: C_14  and  C_18
REMARK    5  A    between atoms: C_20  and  C_23
REMARK    6  A    between atoms: C_26  and  O_27
REMARK                            x       y       z     vdW  Elec       q    Type
REMARK                         _______ _______ _______ _____ _____    ______ ____
ROOT
ATOM     12  C   UNL     1      -0.038   2.193  24.497  0.00  0.00    +0.113 C 
ATOM     13  C   UNL     1      -0.789   2.387  24.218  0.00  0.00    +0.049 C 
ATOM     14  C   UNL     1      -1.234   2.665  24.856  0.00  0.00    +0.139 C 
ATOM     15  N   UNL     1      -0.756   2.642  25.528  0.00  0.00    -0.264 NA
ATOM     16  C   UNL     1      -0.979   2.870  26.289  0.00  0.00    +0.090 C 
ATOM     17  C   UNL     1      -0.017   2.350  25.306  0.00  0.00    +0.094 C 
ENDROOT
BRANCH  14  18
ATOM     18  C   UNL     1      -2.017   2.921  24.825  0.00  0.00    +0.251 A 
ATOM     19  N   UNL     1      -2.680   2.479  25.038  0.00  0.00    -0.190 NA
ATOM     20  C   UNL     1      -3.349   2.949  24.921  0.00  0.00    +0.203 A 
ATOM     21  N   UNL     1      -3.098   3.682  24.637  0.00  0.00    -0.056 NA
ATOM     22  O   UNL     1      -2.275   3.665  24.577  0.00  0.00    -0.336 OA
BRANCH  20  23
ATOM     23  C   UNL     1      -4.130   2.726  25.064  0.00  0.00    +0.039 A 
ATOM     24  C   UNL     1      -4.439   2.052  24.703  0.00  0.00    +0.006 A 
ATOM     25  C   UNL     1      -5.220   1.829  24.846  0.00  0.00    +0.037 A 
ATOM     26  C   UNL     1      -5.692   2.279  25.350  0.00  0.00    +0.139 A 
ATOM     29  C   UNL     1      -5.383   2.953  25.712  0.00  0.00    +0.037 A 
ATOM     30  C   UNL     1      -4.602   3.177  25.569  0.00  0.00    +0.006 A 
BRANCH  26  27
ATOM     27  O   UNL     1      -6.473   2.056  25.493  0.00  0.00    -0.471 OA
ATOM     28  C   UNL     1      -6.680   1.722  26.218  0.00  0.00    +0.252 C 
ENDBRANCH  26  27
ENDBRANCH  20  23
ENDBRANCH  14  18
BRANCH  12  11
ATOM      9  C   UNL     1       0.628   1.085  23.888  0.00  0.00    +0.265 C 
ATOM     10  O   UNL     1       0.049   0.576  24.182  0.00  0.00    -0.268 OA
ATOM     11  N   UNL     1       0.584   1.893  24.045  0.00  0.00    -0.202 NA
BRANCH   9   6
ATOM      3  C   UNL     1       2.494   0.186  22.532  0.00  0.00    +0.139 A 
ATOM      4  C   UNL     1       2.621   0.827  23.036  0.00  0.00    +0.037 A 
ATOM      5  C   UNL     1       1.998   1.127  23.488  0.00  0.00    +0.008 A 
ATOM      6  C   UNL     1       1.250   0.785  23.436  0.00  0.00    +0.055 A 
ATOM      7  C   UNL     1       1.122   0.145  22.933  0.00  0.00    +0.008 A 
ATOM      8  C   UNL     1       1.745  -0.155  22.480  0.00  0.00    +0.037 A 
BRANCH   3   2
ATOM      1  C   UNL     1       3.851   0.259  22.094  0.00  0.00    +0.252 C 
ATOM      2  O   UNL     1       3.116  -0.113  22.081  0.00  0.00    -0.471 OA
ENDBRANCH   3   2
ENDBRANCH   9   6
ENDBRANCH  12  11
TORSDOF 6
ENDMDL
