MODEL 1
REMARK VINA RESULT:     -14.0      0.000      0.000
REMARK  Name = 
REMARK  7 active torsions:
REMARK  status: ('A' for Active; 'I' for Inactive)
REMARK    1  A    between atoms: C_2  and  C_5
REMARK    2  A    between atoms: C_9  and  N_10
REMARK    3  A    between atoms: N_13  and  C_14
REMARK    4  A    between atoms: C_21  and  N_22
REMARK    5  A    between atoms: C_26  and  C_27
REMARK    6  A    between atoms: C_31  and  C_32
REMARK    7  A    between atoms: C_32  and  N_33
REMARK                            x       y       z     vdW  Elec       q    Type
REMARK                         _______ _______ _______ _____ _____    ______ ____
ROOT
ATOM     14  C   UNL     1      -0.638   1.181  25.098  0.00  0.00    +0.156 C 
ATOM     15  C   UNL     1      -0.544   1.402  24.309  0.00  0.00    +0.166 C 
ATOM     16  O   UNL     1      -0.615   2.223  24.263  0.00  0.00    -0.350 OA
ATOM     17  C   UNL     1      -0.753   2.510  25.025  0.00  0.00    +0.169 C 
ATOM     18  C   UNL     1      -0.767   1.866  25.541  0.00  0.00    +0.167 C 
ATOM     19  O   UNL     1      -0.905   2.151  26.302  0.00  0.00    -0.350 OA
ATOM     20  C   UNL     1      -0.976   2.972  26.257  0.00  0.00    +0.169 C 
ATOM     21  C   UNL     1      -0.882   3.193  25.468  0.00  0.00    +0.167 C 
ENDROOT
BRANCH  21  22
ATOM     22  N   UNL     1      -0.912   3.963  25.173  0.00  0.00    -0.210 N 
ATOM     23  N   UNL     1      -0.281   4.383  24.847  0.00  0.00    -0.043 NA
ATOM     24  N   UNL     1      -0.557   5.128  24.626  0.00  0.00    -0.023 NA
ATOM     25  N   UNL     1      -1.360   5.168  24.815  0.00  0.00    -0.108 NA
ATOM     26  C   UNL     1      -1.579   4.449  25.153  0.00  0.00    +0.184 A 
BRANCH  26  27
ATOM     27  C   UNL     1      -2.332   4.250  25.424  0.00  0.00    +0.037 A 
ATOM     28  C   UNL     1      -2.525   4.352  26.219  0.00  0.00    +0.003 A 
ATOM     29  C   UNL     1      -3.278   4.153  26.490  0.00  0.00    -0.000 A 
ATOM     30  C   UNL     1      -3.839   3.851  25.966  0.00  0.00    -0.003 A 
ATOM     31  C   UNL     1      -3.646   3.748  25.170  0.00  0.00    -0.006 A 
ATOM     38  C   UNL     1      -2.893   3.948  24.899  0.00  0.00    +0.000 A 
BRANCH  31  32
ATOM     32  C   UNL     1      -4.207   3.446  24.646  0.00  0.00    +0.099 C 
BRANCH  32  33
ATOM     33  N   UNL     1      -4.332   2.632  24.599  0.00  0.00    -0.269 NA
ATOM     34  C   UNL     1      -4.113   2.144  23.972  0.00  0.00    +0.072 C 
ATOM     35  C   UNL     1      -4.343   1.374  24.156  0.00  0.00    +0.019 C 
ATOM     36  C   UNL     1      -4.705   1.386  24.896  0.00  0.00    +0.019 C 
ATOM     37  C   UNL     1      -4.698   2.164  25.170  0.00  0.00    +0.072 C 
ENDBRANCH  32  33
ENDBRANCH  31  32
ENDBRANCH  26  27
ENDBRANCH  21  22
BRANCH  14  13
ATOM     10  N   UNL     1      -1.026  -0.954  25.332  0.00  0.00    -0.161 NA
ATOM     11  C   UNL     1      -1.056  -0.184  25.037  0.00  0.00    +0.344 C 
ATOM     12  O   UNL     1      -1.534  -0.009  24.388  0.00  0.00    -0.249 OA
ATOM     13  N   UNL     1      -0.608   0.411  25.392  0.00  0.00    -0.184 NA
BRANCH  10   9
ATOM      5  C   UNL     1      -2.736  -2.177  24.746  0.00  0.00    +0.073 A 
ATOM      6  C   UNL     1      -2.369  -2.739  24.267  0.00  0.00    +0.004 A 
ATOM      7  C   UNL     1      -1.555  -2.705  24.142  0.00  0.00    +0.001 A 
ATOM      8  C   UNL     1      -1.106  -2.111  24.497  0.00  0.00    +0.017 A 
ATOM      9  C   UNL     1      -1.474  -1.549  24.977  0.00  0.00    +0.075 A 
ATOM     39  C   UNL     1      -2.289  -1.582  25.102  0.00  0.00    +0.021 A 
BRANCH   5   2
ATOM      1  F   UNL     1      -4.366  -2.244  24.995  0.00  0.00    -0.166 F 
ATOM      2  C   UNL     1      -3.551  -2.211  24.871  0.00  0.00    +0.419 C 
ATOM      3  F   UNL     1      -3.680  -1.971  24.092  0.00  0.00    -0.166 F 
ATOM      4  F   UNL     1      -3.422  -2.450  25.650  0.00  0.00    -0.166 F 
ENDBRANCH   5   2
ENDBRANCH  10   9
ENDBRANCH  14  13
TORSDOF 7
ENDMDL
MODEL 2
REMARK VINA RESULT:     -13.2      2.204      5.060
REMARK  Name = 
REMARK  7 active torsions:
REMARK  status: ('A' for Active; 'I' for Inactive)
REMARK    1  A    between atoms: C_2  and  C_5
REMARK    2  A    between atoms: C_9  and  N_10
REMARK    3  A    between atoms: N_13  and  C_14
REMARK    4  A    between atoms: C_21  and  N_22
REMARK    5  A    between atoms: C_26  and  C_27
REMARK    6  A    between atoms: C_31  and  C_32
REMARK    7  A    between atoms: C_32  and  N_33
REMARK                            x       y       z     vdW  Elec       q    Type
REMARK                         _______ _______ _______ _____ _____    ______ ____
ROOT
ATOM     14  C   UNL     1      -0.372   0.944  24.824  0.00  0.00    +0.156 C 
ATOM     15  C   UNL     1      -0.363   0.801  24.012  0.00  0.00    +0.166 C 
ATOM     16  O   UNL     1      -0.637   0.032  23.886  0.00  0.00    -0.350 OA
ATOM     17  C   UNL     1      -0.815  -0.299  24.620  0.00  0.00    +0.169 C 
ATOM     18  C   UNL     1      -0.651   0.265  25.200  0.00  0.00    +0.167 C 
ATOM     19  O   UNL     1      -0.829  -0.066  25.934  0.00  0.00    -0.350 OA
ATOM     20  C   UNL     1      -1.102  -0.834  25.809  0.00  0.00    +0.169 C 
ATOM     21  C   UNL     1      -1.093  -0.978  24.996  0.00  0.00    +0.167 C 
ENDROOT
BRANCH  21  22
ATOM     22  N   UNL     1      -1.323  -1.678  24.625  0.00  0.00    -0.210 N 
ATOM     23  N   UNL     1      -0.827  -2.194  24.213  0.00  0.00    -0.043 NA
ATOM     24  N   UNL     1      -1.287  -2.820  23.934  0.00  0.00    -0.023 NA
ATOM     25  N   UNL     1      -2.066  -2.691  24.174  0.00  0.00    -0.108 NA
ATOM     26  C   UNL     1      -2.088  -1.985  24.600  0.00  0.00    +0.184 A 
BRANCH  26  27
ATOM     27  C   UNL     1      -2.758  -1.646  24.943  0.00  0.00    +0.037 A 
ATOM     28  C   UNL     1      -2.920  -1.769  25.742  0.00  0.00    +0.003 A 
ATOM     29  C   UNL     1      -3.589  -1.430  26.084  0.00  0.00    -0.000 A 
ATOM     30  C   UNL     1      -4.098  -0.968  25.627  0.00  0.00    -0.003 A 
ATOM     31  C   UNL     1      -3.936  -0.845  24.827  0.00  0.00    -0.006 A 
ATOM     38  C   UNL     1      -3.266  -1.184  24.484  0.00  0.00    +0.000 A 
BRANCH  31  32
ATOM     32  C   UNL     1      -4.444  -0.384  24.370  0.00  0.00    +0.099 C 
BRANCH  32  33
ATOM     33  N   UNL     1      -4.437   0.438  24.447  0.00  0.00    -0.269 NA
ATOM     34  C   UNL     1      -4.800   0.872  25.047  0.00  0.00    +0.072 C 
ATOM     35  C   UNL     1      -4.653   1.671  24.908  0.00  0.00    +0.019 C 
ATOM     36  C   UNL     1      -4.200   1.731  24.222  0.00  0.00    +0.019 C 
ATOM     37  C   UNL     1      -4.067   0.969  23.937  0.00  0.00    +0.072 C 
ENDBRANCH  32  33
ENDBRANCH  31  32
ENDBRANCH  26  27
ENDBRANCH  21  22
BRANCH  14  13
ATOM     10  N   UNL     1      -0.352   3.034  25.455  0.00  0.00    -0.161 NA
ATOM     11  C   UNL     1      -0.582   2.334  25.083  0.00  0.00    +0.344 C 
ATOM     12  O   UNL     1      -1.250   2.323  24.600  0.00  0.00    -0.249 OA
ATOM     13  N   UNL     1      -0.143   1.645  25.196  0.00  0.00    -0.184 NA
BRANCH  10   9
ATOM      5  C   UNL     1      -1.986   4.478  25.551  0.00  0.00    +0.073 A 
ATOM      6  C   UNL     1      -1.669   5.102  25.116  0.00  0.00    +0.004 A 
ATOM      7  C   UNL     1      -0.912   5.038  24.794  0.00  0.00    +0.001 A 
ATOM      8  C   UNL     1      -0.473   4.348  24.907  0.00  0.00    +0.017 A 
ATOM      9  C   UNL     1      -0.791   3.723  25.342  0.00  0.00    +0.075 A 
ATOM     39  C   UNL     1      -1.548   3.788  25.664  0.00  0.00    +0.021 A 
BRANCH   5   2
ATOM      1  F   UNL     1      -3.500   4.607  26.195  0.00  0.00    -0.166 F 
ATOM      2  C   UNL     1      -2.743   4.542  25.872  0.00  0.00    +0.419 C 
ATOM      3  F   UNL     1      -2.429   4.450  26.630  0.00  0.00    -0.166 F 
ATOM      4  F   UNL     1      -3.057   4.635  25.115  0.00  0.00    -0.166 F 
ENDBRANCH   5   2
ENDBRANCH  10   9
ENDBRANCH  14  13
TORSDOF 7
ENDMDL
MODEL 3
REMARK VINA RESULT:     -12.6      1.302      2.918
REMARK  Name = 
REMARK  7 active torsions:
REMARK  status: ('A' for Active; 'I' for Inactive)
REMARK    1  A    between atoms: C_2  and  C_5
REMARK    2  A    between atoms: C_9  and  N_10
REMARK    3  A    between atoms: N_13  and  C_14
REMARK    4  A    between atoms: C_21  and  N_22
REMARK    5  A    between atoms: C_26  and  C_27
REMARK    6  A    between atoms: C_31  and  C_32
REMARK    7  A    between atoms: C_32  and  N_33
REMARK                            x       y       z     vdW  Elec       q    Type
REMARK                         _______ _______ _______ _____ _____    ______ ____
ROOT
ATOM     14  C   UNL     1      -3.781   1.943  24.549  0.00  0.00    +0.156 C 
ATOM     15  C   UNL     1      -3.593   2.226  23.798  0.00  0.00    +0.166 C 
ATOM     16  O   UNL     1      -3.084   2.870  23.888  0.00  0.00    -0.350 OA
ATOM     17  C   UNL     1      -2.959   2.985  24.696  0.00  0.00    +0.169 C 
ATOM     18  C   UNL     1      -3.390   2.412  25.104  0.00  0.00    +0.167 C 
ATOM     19  O   UNL     1      -3.265   2.527  25.911  0.00  0.00    -0.350 OA
ATOM     20  C   UNL     1      -2.757   3.170  26.002  0.00  0.00    +0.169 C 
ATOM     21  C   UNL     1      -2.568   3.453  25.250  0.00  0.00    +0.167 C 
ENDROOT
BRANCH  21  22
ATOM     22  N   UNL     1      -2.074   4.092  25.083  0.00  0.00    -0.210 N 
ATOM     23  N   UNL     1      -2.316   4.838  24.826  0.00  0.00    -0.043 NA
ATOM     24  N   UNL     1      -1.643   5.305  24.728  0.00  0.00    -0.023 NA
ATOM     25  N   UNL     1      -0.985   4.848  24.925  0.00  0.00    -0.108 NA
ATOM     26  C   UNL     1      -1.251   4.099  25.144  0.00  0.00    +0.184 A 
BRANCH  26  27
ATOM     27  C   UNL     1      -0.778   3.466  25.383  0.00  0.00    +0.037 A 
ATOM     28  C   UNL     1      -0.692   3.296  26.185  0.00  0.00    +0.003 A 
ATOM     29  C   UNL     1      -0.218   2.664  26.424  0.00  0.00    -0.000 A 
ATOM     30  C   UNL     1       0.169   2.202  25.860  0.00  0.00    -0.003 A 
ATOM     31  C   UNL     1       0.082   2.373  25.057  0.00  0.00    -0.006 A 
ATOM     38  C   UNL     1      -0.391   3.005  24.818  0.00  0.00    +0.000 A 
BRANCH  31  32
ATOM     32  C   UNL     1       0.469   1.911  24.494  0.00  0.00    +0.099 C 
BRANCH  32  33
ATOM     33  N   UNL     1       0.130   1.204  24.236  0.00  0.00    -0.269 NA
ATOM     34  C   UNL     1      -0.092   1.027  23.461  0.00  0.00    +0.072 C 
ATOM     35  C   UNL     1      -0.405   0.265  23.454  0.00  0.00    +0.019 C 
ATOM     36  C   UNL     1      -0.378  -0.029  24.223  0.00  0.00    +0.019 C 
ATOM     37  C   UNL     1      -0.047   0.551  24.706  0.00  0.00    +0.072 C 
ENDBRANCH  32  33
ENDBRANCH  31  32
ENDBRANCH  26  27
ENDBRANCH  21  22
BRANCH  14  13
ATOM     10  N   UNL     1      -4.543  -0.099  24.668  0.00  0.00    -0.161 NA
ATOM     11  C   UNL     1      -4.049   0.541  24.500  0.00  0.00    +0.344 C 
ATOM     12  O   UNL     1      -3.329   0.417  24.117  0.00  0.00    -0.249 OA
ATOM     13  N   UNL     1      -4.275   1.304  24.716  0.00  0.00    -0.184 NA
BRANCH  10   9
ATOM      5  C   UNL     1      -3.604  -2.069  24.733  0.00  0.00    +0.073 A 
ATOM      6  C   UNL     1      -3.863  -2.389  24.018  0.00  0.00    +0.004 A 
ATOM      7  C   UNL     1      -4.348  -1.945  23.520  0.00  0.00    +0.001 A 
ATOM      8  C   UNL     1      -4.575  -1.182  23.736  0.00  0.00    +0.017 A 
ATOM      9  C   UNL     1      -4.316  -0.862  24.451  0.00  0.00    +0.075 A 
ATOM     39  C   UNL     1      -3.830  -1.306  24.950  0.00  0.00    +0.021 A 
BRANCH   5   2
ATOM      1  F   UNL     1      -2.633  -2.956  25.729  0.00  0.00    -0.166 F 
ATOM      2  C   UNL     1      -3.119  -2.512  25.231  0.00  0.00    +0.419 C 
ATOM      3  F   UNL     1      -2.522  -2.500  24.661  0.00  0.00    -0.166 F 
ATOM      4  F   UNL     1      -3.715  -2.525  25.801  0.00  0.00    -0.166 F 
ENDBRANCH   5   2
ENDBRANCH  10   9
ENDBRANCH  14  13
TORSDOF 7
ENDMDL
MODEL 4
REMARK VINA RESULT:     -12.5      1.979      4.729
REMARK  Name = 
REMARK  7 active torsions:
REMARK  status: ('A' for Active; 'I' for Inactive)
REMARK    1  A    between atoms: C_2  and  C_5
REMARK    2  A    between atoms: C_9  and  N_10
REMARK    3  A    between atoms: N_13  and  C_14
REMARK    4  A    between atoms: C_21  and  N_22
REMARK    5  A    between atoms: C_26  and  C_27
REMARK    6  A    between atoms: C_31  and  C_32
REMARK    7  A    between atoms: C_32  and  N_33
REMARK                            x       y       z     vdW  Elec       q    Type
REMARK                         _______ _______ _______ _____ _____    ______ ____
ROOT
ATOM     14  C   UNL     1      -1.829   2.319  24.658  0.00  0.00    +0.156 C 
ATOM     15  C   UNL     1      -1.905   2.297  23.837  0.00  0.00    +0.166 C 
ATOM     16  O   UNL     1      -1.384   1.726  23.548  0.00  0.00    -0.350 OA
ATOM     17  C   UNL     1      -0.985   1.396  24.191  0.00  0.00    +0.169 C 
ATOM     18  C   UNL     1      -1.260   1.763  24.877  0.00  0.00    +0.167 C 
ATOM     19  O   UNL     1      -0.861   1.434  25.519  0.00  0.00    -0.350 OA
ATOM     20  C   UNL     1      -0.340   0.864  25.231  0.00  0.00    +0.169 C 
ATOM     21  C   UNL     1      -0.416   0.840  24.409  0.00  0.00    +0.167 C 
ENDROOT
BRANCH  21  22
ATOM     22  N   UNL     1       0.003   0.348  23.897  0.00  0.00    -0.210 N 
ATOM     23  N   UNL     1       0.540   0.592  23.320  0.00  0.00    -0.043 NA
ATOM     24  N   UNL     1       0.827  -0.080  22.939  0.00  0.00    -0.023 NA
ATOM     25  N   UNL     1       0.468  -0.740  23.280  0.00  0.00    -0.108 NA
ATOM     26  C   UNL     1      -0.042  -0.476  23.872  0.00  0.00    +0.184 A 
BRANCH  26  27
ATOM     27  C   UNL     1      -0.513  -0.951  24.355  0.00  0.00    +0.037 A 
ATOM     28  C   UNL     1      -0.238  -1.186  25.096  0.00  0.00    +0.003 A 
ATOM     29  C   UNL     1      -0.710  -1.661  25.578  0.00  0.00    -0.000 A 
ATOM     30  C   UNL     1      -1.455  -1.901  25.320  0.00  0.00    -0.003 A 
ATOM     31  C   UNL     1      -1.730  -1.666  24.578  0.00  0.00    -0.006 A 
ATOM     38  C   UNL     1      -1.258  -1.191  24.095  0.00  0.00    +0.000 A 
BRANCH  31  32
ATOM     32  C   UNL     1      -2.475  -1.906  24.319  0.00  0.00    +0.099 C 
BRANCH  32  33
ATOM     33  N   UNL     1      -3.141  -1.453  24.499  0.00  0.00    -0.269 NA
ATOM     34  C   UNL     1      -3.629  -1.072  23.954  0.00  0.00    +0.072 C 
ATOM     35  C   UNL     1      -4.224  -0.685  24.373  0.00  0.00    +0.019 C 
ATOM     36  C   UNL     1      -4.104  -0.826  25.176  0.00  0.00    +0.019 C 
ATOM     37  C   UNL     1      -3.435  -1.301  25.254  0.00  0.00    +0.072 C 
ENDBRANCH  32  33
ENDBRANCH  31  32
ENDBRANCH  26  27
ENDBRANCH  21  22
BRANCH  14  13
ATOM     10  N   UNL     1      -3.489   3.350  25.632  0.00  0.00    -0.161 NA
ATOM     11  C   UNL     1      -3.070   2.857  25.119  0.00  0.00    +0.344 C 
ATOM     12  O   UNL     1      -3.473   2.409  24.555  0.00  0.00    -0.249 OA
ATOM     13  N   UNL     1      -2.248   2.812  25.171  0.00  0.00    -0.184 NA
BRANCH  10   9
ATOM      5  C   UNL     1      -5.598   2.812  25.792  0.00  0.00    +0.073 A 
ATOM      6  C   UNL     1      -5.955   3.485  25.476  0.00  0.00    +0.004 A 
ATOM      7  C   UNL     1      -5.490   4.113  25.211  0.00  0.00    +0.001 A 
ATOM      8  C   UNL     1      -4.668   4.068  25.263  0.00  0.00    +0.017 A 
ATOM      9  C   UNL     1      -4.311   3.394  25.580  0.00  0.00    +0.075 A 
ATOM     39  C   UNL     1      -4.776   2.767  25.844  0.00  0.00    +0.021 A 
BRANCH   5   2
ATOM      1  F   UNL     1      -6.530   1.556  26.320  0.00  0.00    -0.166 F 
ATOM      2  C   UNL     1      -6.064   2.184  26.056  0.00  0.00    +0.419 C 
ATOM      3  F   UNL     1      -6.230   1.979  25.275  0.00  0.00    -0.166 F 
ATOM      4  F   UNL     1      -5.897   2.390  26.837  0.00  0.00    -0.166 F 
ENDBRANCH   5   2
ENDBRANCH  10   9
ENDBRANCH  14  13
TORSDOF 7
ENDMDL
MODEL 5
REMARK VINA RESULT:     -12.4      1.529      3.083
REMARK  Name = 
REMARK  7 active torsions:
REMARK  status: ('A' for Active; 'I' for Inactive)
REMARK    1  A    between atoms: C_2  and  C_5
REMARK    2  A    between atoms: C_9  and  N_10
REMARK    3  A    between atoms: N_13  and  C_14
REMARK    4  A    between atoms: C_21  and  N_22
REMARK    5  A    between atoms: C_26  and  C_27
REMARK    6  A    between atoms: C_31  and  C_32
REMARK    7  A    between atoms: C_32  and  N_33
REMARK                            x       y       z     vdW  Elec       q    Type
REMARK                         _______ _______ _______ _____ _____    ______ ____
ROOT
ATOM     14  C   UNL     1      -4.099   1.277  24.515  0.00  0.00    +0.156 C 
ATOM     15  C   UNL     1      -4.361   1.245  25.296  0.00  0.00    +0.166 C 
ATOM     16  O   UNL     1      -4.214   1.978  25.645  0.00  0.00    -0.350 OA
ATOM     17  C   UNL     1      -3.861   2.464  25.078  0.00  0.00    +0.169 C 
ATOM     18  C   UNL     1      -3.790   2.031  24.380  0.00  0.00    +0.167 C 
ATOM     19  O   UNL     1      -3.437   2.515  23.814  0.00  0.00    -0.350 OA
ATOM     20  C   UNL     1      -3.290   3.248  24.162  0.00  0.00    +0.169 C 
ATOM     21  C   UNL     1      -3.552   3.217  24.944  0.00  0.00    +0.167 C 
ENDROOT
BRANCH  21  22
ATOM     22  N   UNL     1      -3.512   3.830  25.494  0.00  0.00    -0.210 N 
ATOM     23  N   UNL     1      -4.153   4.175  25.883  0.00  0.00    -0.043 NA
ATOM     24  N   UNL     1      -3.861   4.764  26.381  0.00  0.00    -0.023 NA
ATOM     25  N   UNL     1      -3.039   4.783  26.300  0.00  0.00    -0.108 NA
ATOM     26  C   UNL     1      -2.824   4.206  25.751  0.00  0.00    +0.184 A 
BRANCH  26  27
ATOM     27  C   UNL     1      -2.056   4.035  25.503  0.00  0.00    +0.037 A 
ATOM     28  C   UNL     1      -1.714   4.469  24.892  0.00  0.00    +0.003 A 
ATOM     29  C   UNL     1      -0.946   4.298  24.644  0.00  0.00    -0.000 A 
ATOM     30  C   UNL     1      -0.520   3.693  25.008  0.00  0.00    -0.003 A 
ATOM     31  C   UNL     1      -0.863   3.258  25.620  0.00  0.00    -0.006 A 
ATOM     38  C   UNL     1      -1.631   3.429  25.868  0.00  0.00    +0.000 A 
BRANCH  31  32
ATOM     32  C   UNL     1      -0.436   2.653  25.984  0.00  0.00    +0.099 C 
BRANCH  32  33
ATOM     33  N   UNL     1      -0.422   1.899  25.650  0.00  0.00    -0.269 NA
ATOM     34  C   UNL     1      -0.716   1.210  25.995  0.00  0.00    +0.072 C 
ATOM     35  C   UNL     1      -0.587   0.587  25.470  0.00  0.00    +0.019 C 
ATOM     36  C   UNL     1      -0.214   0.891  24.801  0.00  0.00    +0.019 C 
ATOM     37  C   UNL     1      -0.111   1.701  24.912  0.00  0.00    +0.072 C 
ENDBRANCH  32  33
ENDBRANCH  31  32
ENDBRANCH  26  27
ENDBRANCH  21  22
BRANCH  14  13
ATOM     10  N   UNL     1      -3.999  -0.721  23.642  0.00  0.00    -0.161 NA
ATOM     11  C   UNL     1      -3.959  -0.108  24.193  0.00  0.00    +0.344 C 
ATOM     12  O   UNL     1      -3.739  -0.267  24.972  0.00  0.00    -0.249 OA
ATOM     13  N   UNL     1      -4.139   0.664  23.964  0.00  0.00    -0.184 NA
BRANCH  10   9
ATOM      5  C   UNL     1      -2.872  -2.458  24.335  0.00  0.00    +0.073 A 
ATOM      6  C   UNL     1      -3.459  -3.037  24.330  0.00  0.00    +0.004 A 
ATOM      7  C   UNL     1      -4.226  -2.844  24.096  0.00  0.00    +0.001 A 
ATOM      8  C   UNL     1      -4.406  -2.072  23.867  0.00  0.00    +0.017 A 
ATOM      9  C   UNL     1      -3.819  -1.493  23.872  0.00  0.00    +0.075 A 
ATOM     39  C   UNL     1      -3.051  -1.686  24.106  0.00  0.00    +0.021 A 
BRANCH   5   2
ATOM      1  F   UNL     1      -1.338  -2.844  24.804  0.00  0.00    -0.166 F 
ATOM      2  C   UNL     1      -2.105  -2.651  24.569  0.00  0.00    +0.419 C 
ATOM      3  F   UNL     1      -2.367  -2.752  25.345  0.00  0.00    -0.166 F 
ATOM      4  F   UNL     1      -1.843  -2.550  23.793  0.00  0.00    -0.166 F 
ENDBRANCH   5   2
ENDBRANCH  10   9
ENDBRANCH  14  13
TORSDOF 7
ENDMDL
MODEL 6
REMARK VINA RESULT:     -11.6      2.635      5.857
REMARK  Name = 
REMARK  7 active torsions:
REMARK  status: ('A' for Active; 'I' for Inactive)
REMARK    1  A    between atoms: C_2  and  C_5
REMARK    2  A    between atoms: C_9  and  N_10
REMARK    3  A    between atoms: N_13  and  C_14
REMARK    4  A    between atoms: C_21  and  N_22
REMARK    5  A    between atoms: C_26  and  C_27
REMARK    6  A    between atoms: C_31  and  C_32
REMARK    7  A    between atoms: C_32  and  N_33
REMARK                            x       y       z     vdW  Elec       q    Type
REMARK                         _______ _______ _______ _____ _____    ______ ____
ROOT
ATOM     14  C   UNL     1      -4.301   0.348  24.888  0.00  0.00    +0.156 C 
ATOM     15  C   UNL     1      -4.397   0.200  24.082  0.00  0.00    +0.166 C 
ATOM     16  O   UNL     1      -4.100  -0.554  23.924  0.00  0.00    -0.350 OA
ATOM     17  C   UNL     1      -3.822  -0.872  24.633  0.00  0.00    +0.169 C 
ATOM     18  C   UNL     1      -3.946  -0.315  25.229  0.00  0.00    +0.167 C 
ATOM     19  O   UNL     1      -3.668  -0.632  25.937  0.00  0.00    -0.350 OA
ATOM     20  C   UNL     1      -3.372  -1.386  25.780  0.00  0.00    +0.169 C 
ATOM     21  C   UNL     1      -3.467  -1.534  24.973  0.00  0.00    +0.167 C 
ENDROOT
BRANCH  21  22
ATOM     22  N   UNL     1      -3.246  -2.223  24.578  0.00  0.00    -0.210 N 
ATOM     23  N   UNL     1      -3.759  -2.771  24.235  0.00  0.00    -0.043 NA
ATOM     24  N   UNL     1      -3.304  -3.372  23.901  0.00  0.00    -0.023 NA
ATOM     25  N   UNL     1      -2.509  -3.195  24.037  0.00  0.00    -0.108 NA
ATOM     26  C   UNL     1      -2.473  -2.485  24.456  0.00  0.00    +0.184 A 
BRANCH  26  27
ATOM     27  C   UNL     1      -1.786  -2.105  24.707  0.00  0.00    +0.037 A 
ATOM     28  C   UNL     1      -1.488  -2.249  25.462  0.00  0.00    +0.003 A 
ATOM     29  C   UNL     1      -0.801  -1.868  25.714  0.00  0.00    -0.000 A 
ATOM     30  C   UNL     1      -0.412  -1.343  25.211  0.00  0.00    -0.003 A 
ATOM     31  C   UNL     1      -0.711  -1.198  24.455  0.00  0.00    -0.006 A 
ATOM     38  C   UNL     1      -1.398  -1.579  24.203  0.00  0.00    +0.000 A 
BRANCH  31  32
ATOM     32  C   UNL     1      -0.322  -0.673  23.952  0.00  0.00    +0.099 C 
BRANCH  32  33
ATOM     33  N   UNL     1      -0.429   0.140  24.042  0.00  0.00    -0.269 NA
ATOM     34  C   UNL     1      -0.740   0.654  23.476  0.00  0.00    +0.072 C 
ATOM     35  C   UNL     1      -0.747   1.413  23.797  0.00  0.00    +0.019 C 
ATOM     36  C   UNL     1      -0.441   1.369  24.561  0.00  0.00    +0.019 C 
ATOM     37  C   UNL     1      -0.245   0.583  24.712  0.00  0.00    +0.072 C 
ENDBRANCH  32  33
ENDBRANCH  31  32
ENDBRANCH  26  27
ENDBRANCH  21  22
BRANCH  14  13
ATOM     10  N   UNL     1      -4.433   2.455  25.445  0.00  0.00    -0.161 NA
ATOM     11  C   UNL     1      -4.212   1.765  25.049  0.00  0.00    +0.344 C 
ATOM     12  O   UNL     1      -3.682   1.804  24.418  0.00  0.00    -0.249 OA
ATOM     13  N   UNL     1      -4.522   1.038  25.284  0.00  0.00    -0.184 NA
BRANCH  10   9
ATOM      5  C   UNL     1      -3.094   4.171  25.280  0.00  0.00    +0.073 A 
ATOM      6  C   UNL     1      -3.505   4.637  24.738  0.00  0.00    +0.004 A 
ATOM      7  C   UNL     1      -4.225   4.377  24.433  0.00  0.00    +0.001 A 
ATOM      8  C   UNL     1      -4.535   3.649  24.668  0.00  0.00    +0.017 A 
ATOM      9  C   UNL     1      -4.124   3.182  25.210  0.00  0.00    +0.075 A 
ATOM     39  C   UNL     1      -3.403   3.443  25.516  0.00  0.00    +0.021 A 
BRANCH   5   2
ATOM      1  F   UNL     1      -1.653   4.692  25.893  0.00  0.00    -0.166 F 
ATOM      2  C   UNL     1      -2.374   4.431  25.586  0.00  0.00    +0.419 C 
ATOM      3  F   UNL     1      -2.727   4.542  26.323  0.00  0.00    -0.166 F 
ATOM      4  F   UNL     1      -2.021   4.320  24.849  0.00  0.00    -0.166 F 
ENDBRANCH   5   2
ENDBRANCH  10   9
ENDBRANCH  14  13
TORSDOF 7
ENDMDL
