MODEL 1
REMARK VINA RESULT:      -8.7      0.000      0.000
REMARK  Name = 
REMARK  7 active torsions:
REMARK  status: ('A' for Active; 'I' for Inactive)
REMARK    1  A    between atoms: C_2  and  N_3
REMARK    2  A    between atoms: N_3  and  C_4
REMARK    3  A    between atoms: N_3  and  C_6
REMARK    4  A    between atoms: C_8  and  C_9
REMARK    5  A    between atoms: C_9  and  C_10
REMARK    6  A    between atoms: C_13  and  C_14
REMARK    7  A    between atoms: C_14  and  C_15
REMARK                            x       y       z     vdW  Elec       q    Type
REMARK                         _______ _______ _______ _____ _____    ______ ____
ROOT
ATOM      6  C   UNL     1      -4.172   2.115  24.835  0.00  0.00    +0.057 C 
ATOM      7  C   UNL     1      -3.794   1.383  24.793  0.00  0.00    +0.016 C 
ATOM      8  C   UNL     1      -4.523   1.004  24.870  0.00  0.00    +0.009 C 
ATOM     18  C   UNL     1      -4.900   1.736  24.912  0.00  0.00    +0.014 C 
ATOM     19  C   UNL     1      -5.697   1.538  24.997  0.00  0.00    +0.001 C 
ATOM     20  C   UNL     1      -5.438   2.360  24.970  0.00  0.00    +0.001 C 
ENDROOT
BRANCH   6   3
ATOM      3  N   UNL     1      -3.924   2.903  24.809  0.00  0.00    -0.274 NA
BRANCH   3   2
ATOM      1  C   UNL     1      -3.035   3.656  25.636  0.00  0.00    +0.019 C 
ATOM      2  C   UNL     1      -3.774   3.310  25.510  0.00  0.00    +0.072 C 
ENDBRANCH   3   2
BRANCH   3   4
ATOM      4  C   UNL     1      -3.825   3.281  24.082  0.00  0.00    +0.072 C 
ATOM      5  C   UNL     1      -3.547   4.056  24.054  0.00  0.00    +0.019 C 
ENDBRANCH   3   4
ENDBRANCH   6   3
BRANCH   8   9
ATOM      9  C   UNL     1      -4.771   0.218  24.896  0.00  0.00    +0.049 C 
BRANCH   9  10
ATOM     10  C   UNL     1      -4.221  -0.386  25.016  0.00  0.00    +0.100 A 
ATOM     11  N   UNL     1      -3.819  -0.542  25.719  0.00  0.00    -0.082 NA
ATOM     12  O   UNL     1      -3.326  -1.190  25.591  0.00  0.00    -0.358 OA
ATOM     13  C   UNL     1      -3.422  -1.435  24.809  0.00  0.00    +0.157 A 
ATOM     17  C   UNL     1      -3.976  -0.937  24.454  0.00  0.00    +0.054 A 
BRANCH  13  14
ATOM     14  C   UNL     1      -3.035  -2.066  24.447  0.00  0.00    +0.103 C 
BRANCH  14  15
ATOM     15  C   UNL     1      -2.230  -2.188  24.580  0.00  0.00    +0.190 C 
ATOM     16  O   UNL     1      -1.826  -2.775  24.164  0.00  0.00    -0.220 OA
ENDBRANCH  14  15
ENDBRANCH  13  14
ENDBRANCH   9  10
ENDBRANCH   8   9
TORSDOF 7
ENDMDL
MODEL 2
REMARK VINA RESULT:      -8.7      2.167      4.255
REMARK  Name = 
REMARK  7 active torsions:
REMARK  status: ('A' for Active; 'I' for Inactive)
REMARK    1  A    between atoms: C_2  and  N_3
REMARK    2  A    between atoms: N_3  and  C_4
REMARK    3  A    between atoms: N_3  and  C_6
REMARK    4  A    between atoms: C_8  and  C_9
REMARK    5  A    between atoms: C_9  and  C_10
REMARK    6  A    between atoms: C_13  and  C_14
REMARK    7  A    between atoms: C_14  and  C_15
REMARK                            x       y       z     vdW  Elec       q    Type
REMARK                         _______ _______ _______ _____ _____    ______ ____
ROOT
ATOM      6  C   UNL     1      -4.133   1.006  24.832  0.00  0.00    +0.057 C 
ATOM      7  C   UNL     1      -3.595   1.631  24.864  0.00  0.00    +0.016 C 
ATOM      8  C   UNL     1      -4.222   2.165  24.920  0.00  0.00    +0.009 C 
ATOM     18  C   UNL     1      -4.759   1.540  24.888  0.00  0.00    +0.014 C 
ATOM     19  C   UNL     1      -5.493   1.913  24.936  0.00  0.00    +0.001 C 
ATOM     20  C   UNL     1      -5.427   1.056  24.871  0.00  0.00    +0.001 C 
ENDROOT
BRANCH   6   3
ATOM      3  N   UNL     1      -4.070   0.184  24.770  0.00  0.00    -0.274 NA
BRANCH   3   2
ATOM      1  C   UNL     1      -3.473  -0.818  25.594  0.00  0.00    +0.019 C 
ATOM      2  C   UNL     1      -4.084  -0.283  25.449  0.00  0.00    +0.072 C 
ENDBRANCH   3   2
BRANCH   3   4
ATOM      4  C   UNL     1      -3.992  -0.168  24.027  0.00  0.00    +0.072 C 
ATOM      5  C   UNL     1      -4.018  -0.988  23.955  0.00  0.00    +0.019 C 
ENDBRANCH   3   4
ENDBRANCH   6   3
BRANCH   8   9
ATOM      9  C   UNL     1      -4.285   2.985  24.983  0.00  0.00    +0.049 C 
BRANCH   9  10
ATOM     10  C   UNL     1      -3.647   3.428  25.263  0.00  0.00    +0.100 A 
ATOM     11  N   UNL     1      -3.414   3.495  26.051  0.00  0.00    -0.082 NA
ATOM     12  O   UNL     1      -2.755   3.990  26.080  0.00  0.00    -0.358 OA
ATOM     13  C   UNL     1      -2.580   4.229  25.310  0.00  0.00    +0.157 A 
ATOM     17  C   UNL     1      -3.133   3.881  24.805  0.00  0.00    +0.054 A 
BRANCH  13  14
ATOM     14  C   UNL     1      -1.964   4.726  25.084  0.00  0.00    +0.103 C 
BRANCH  14  15
ATOM     15  C   UNL     1      -1.183   4.463  25.124  0.00  0.00    +0.190 C 
ATOM     16  O   UNL     1      -0.566   4.957  24.890  0.00  0.00    -0.220 OA
ENDBRANCH  14  15
ENDBRANCH  13  14
ENDBRANCH   9  10
ENDBRANCH   8   9
TORSDOF 7
ENDMDL
MODEL 3
REMARK VINA RESULT:      -8.6      1.110      1.392
REMARK  Name = 
REMARK  7 active torsions:
REMARK  status: ('A' for Active; 'I' for Inactive)
REMARK    1  A    between atoms: C_2  and  N_3
REMARK    2  A    between atoms: N_3  and  C_4
REMARK    3  A    between atoms: N_3  and  C_6
REMARK    4  A    between atoms: C_8  and  C_9
REMARK    5  A    between atoms: C_9  and  C_10
REMARK    6  A    between atoms: C_13  and  C_14
REMARK    7  A    between atoms: C_14  and  C_15
REMARK                            x       y       z     vdW  Elec       q    Type
REMARK                         _______ _______ _______ _____ _____    ______ ____
ROOT
ATOM      6  C   UNL     1      -2.976   2.383  24.750  0.00  0.00    +0.057 C 
ATOM      7  C   UNL     1      -3.027   1.573  24.896  0.00  0.00    +0.016 C 
ATOM      8  C   UNL     1      -3.821   1.584  24.673  0.00  0.00    +0.009 C 
ATOM     18  C   UNL     1      -3.770   2.394  24.527  0.00  0.00    +0.014 C 
ATOM     19  C   UNL     1      -4.530   2.593  24.276  0.00  0.00    +0.001 C 
ATOM     20  C   UNL     1      -3.905   3.184  24.333  0.00  0.00    +0.001 C 
ENDROOT
BRANCH   6   3
ATOM      3  N   UNL     1      -2.377   2.950  24.805  0.00  0.00    -0.274 NA
BRANCH   3   2
ATOM      1  C   UNL     1      -1.716   3.984  25.535  0.00  0.00    +0.019 C 
ATOM      2  C   UNL     1      -2.320   3.425  25.476  0.00  0.00    +0.072 C 
ENDBRANCH   3   2
BRANCH   3   4
ATOM      4  C   UNL     1      -1.837   3.039  24.187  0.00  0.00    +0.072 C 
ATOM      5  C   UNL     1      -1.034   2.908  24.319  0.00  0.00    +0.019 C 
ENDBRANCH   3   4
ENDBRANCH   6   3
BRANCH   8   9
ATOM      9  C   UNL     1      -4.419   1.018  24.618  0.00  0.00    +0.049 C 
BRANCH   9  10
ATOM     10  C   UNL     1      -4.247   0.221  24.750  0.00  0.00    +0.100 A 
ATOM     11  N   UNL     1      -4.095  -0.127  25.482  0.00  0.00    -0.082 NA
ATOM     12  O   UNL     1      -3.951  -0.929  25.357  0.00  0.00    -0.358 OA
ATOM     13  C   UNL     1      -4.014  -1.078  24.548  0.00  0.00    +0.157 A 
ATOM     17  C   UNL     1      -4.197  -0.366  24.173  0.00  0.00    +0.054 A 
BRANCH  13  14
ATOM     14  C   UNL     1      -3.912  -1.807  24.179  0.00  0.00    +0.103 C 
BRANCH  14  15
ATOM     15  C   UNL     1      -3.620  -2.450  24.607  0.00  0.00    +0.190 C 
ATOM     16  O   UNL     1      -3.595  -3.199  24.263  0.00  0.00    -0.220 OA
ENDBRANCH  14  15
ENDBRANCH  13  14
ENDBRANCH   9  10
ENDBRANCH   8   9
TORSDOF 7
ENDMDL
MODEL 4
REMARK VINA RESULT:      -8.4      1.994      4.274
REMARK  Name = 
REMARK  7 active torsions:
REMARK  status: ('A' for Active; 'I' for Inactive)
REMARK    1  A    between atoms: C_2  and  N_3
REMARK    2  A    between atoms: N_3  and  C_4
REMARK    3  A    between atoms: N_3  and  C_6
REMARK    4  A    between atoms: C_8  and  C_9
REMARK    5  A    between atoms: C_9  and  C_10
REMARK    6  A    between atoms: C_13  and  C_14
REMARK    7  A    between atoms: C_14  and  C_15
REMARK                            x       y       z     vdW  Elec       q    Type
REMARK                         _______ _______ _______ _____ _____    ______ ____
ROOT
ATOM      6  C   UNL     1      -2.696  -0.499  24.897  0.00  0.00    +0.057 C 
ATOM      7  C   UNL     1      -3.026   0.258  24.904  0.00  0.00    +0.016 C 
ATOM      8  C   UNL     1      -3.762  -0.063  24.713  0.00  0.00    +0.009 C 
ATOM     18  C   UNL     1      -3.432  -0.818  24.706  0.00  0.00    +0.014 C 
ATOM     19  C   UNL     1      -4.071  -1.306  24.518  0.00  0.00    +0.001 C 
ATOM     20  C   UNL     1      -3.283  -1.628  24.654  0.00  0.00    +0.001 C 
ENDROOT
BRANCH   6   3
ATOM      3  N   UNL     1      -1.941  -0.808  25.027  0.00  0.00    -0.274 NA
BRANCH   3   2
ATOM      1  C   UNL     1      -1.040  -0.546  26.104  0.00  0.00    +0.019 C 
ATOM      2  C   UNL     1      -1.685  -0.959  25.795  0.00  0.00    +0.072 C 
ENDBRANCH   3   2
BRANCH   3   4
ATOM      4  C   UNL     1      -1.445  -0.964  24.387  0.00  0.00    +0.072 C 
ATOM      5  C   UNL     1      -0.645  -1.122  24.513  0.00  0.00    +0.019 C 
ENDBRANCH   3   4
ENDBRANCH   6   3
BRANCH   8   9
ATOM      9  C   UNL     1      -4.516   0.246  24.583  0.00  0.00    +0.049 C 
BRANCH   9  10
ATOM     10  C   UNL     1      -4.650   1.057  24.664  0.00  0.00    +0.100 A 
ATOM     11  N   UNL     1      -4.333   1.650  24.187  0.00  0.00    -0.082 NA
ATOM     12  O   UNL     1      -4.611   2.375  24.464  0.00  0.00    -0.358 OA
ATOM     13  C   UNL     1      -5.101   2.230  25.112  0.00  0.00    +0.157 A 
ATOM     17  C   UNL     1      -5.125   1.415  25.236  0.00  0.00    +0.054 A 
BRANCH  13  14
ATOM     14  C   UNL     1      -5.497   2.799  25.558  0.00  0.00    +0.103 C 
BRANCH  14  15
ATOM     15  C   UNL     1      -5.321   3.599  25.458  0.00  0.00    +0.190 C 
ATOM     16  O   UNL     1      -5.796   4.175  25.810  0.00  0.00    -0.220 OA
ENDBRANCH  14  15
ENDBRANCH  13  14
ENDBRANCH   9  10
ENDBRANCH   8   9
TORSDOF 7
ENDMDL
MODEL 5
REMARK VINA RESULT:      -8.2      3.034      4.485
REMARK  Name = 
REMARK  7 active torsions:
REMARK  status: ('A' for Active; 'I' for Inactive)
REMARK    1  A    between atoms: C_2  and  N_3
REMARK    2  A    between atoms: N_3  and  C_4
REMARK    3  A    between atoms: N_3  and  C_6
REMARK    4  A    between atoms: C_8  and  C_9
REMARK    5  A    between atoms: C_9  and  C_10
REMARK    6  A    between atoms: C_13  and  C_14
REMARK    7  A    between atoms: C_14  and  C_15
REMARK                            x       y       z     vdW  Elec       q    Type
REMARK                         _______ _______ _______ _____ _____    ______ ____
ROOT
ATOM      6  C   UNL     1      -1.259   3.316  25.247  0.00  0.00    +0.057 C 
ATOM      7  C   UNL     1      -2.033   3.036  25.305  0.00  0.00    +0.016 C 
ATOM      8  C   UNL     1      -2.315   3.810  25.263  0.00  0.00    +0.009 C 
ATOM     18  C   UNL     1      -1.541   4.090  25.206  0.00  0.00    +0.014 C 
ATOM     19  C   UNL     1      -1.635   4.908  25.151  0.00  0.00    +0.001 C 
ATOM     20  C   UNL     1      -0.854   4.543  25.140  0.00  0.00    +0.001 C 
ENDROOT
BRANCH   6   3
ATOM      3  N   UNL     1      -0.511   2.966  25.236  0.00  0.00    -0.274 NA
BRANCH   3   2
ATOM      1  C   UNL     1       0.265   2.013  24.508  0.00  0.00    +0.019 C 
ATOM      2  C   UNL     1      -0.191   2.700  24.524  0.00  0.00    +0.072 C 
ENDBRANCH   3   2
BRANCH   3   4
ATOM      4  C   UNL     1      -0.084   2.882  25.937  0.00  0.00    +0.072 C 
ATOM      5  C   UNL     1       0.101   2.131  26.221  0.00  0.00    +0.019 C 
ENDBRANCH   3   4
ENDBRANCH   6   3
BRANCH   8   9
ATOM      9  C   UNL     1      -3.062   4.160  25.275  0.00  0.00    +0.049 C 
BRANCH   9  10
ATOM     10  C   UNL     1      -3.726   3.722  25.055  0.00  0.00    +0.100 A 
ATOM     11  N   UNL     1      -3.920   3.488  24.288  0.00  0.00    -0.082 NA
ATOM     12  O   UNL     1      -4.626   3.063  24.323  0.00  0.00    -0.358 OA
ATOM     13  C   UNL     1      -4.869   3.034  25.111  0.00  0.00    +0.157 A 
ATOM     17  C   UNL     1      -4.312   3.442  25.563  0.00  0.00    +0.054 A 
BRANCH  13  14
ATOM     14  C   UNL     1      -5.548   2.664  25.397  0.00  0.00    +0.103 C 
BRANCH  14  15
ATOM     15  C   UNL     1      -5.846   1.996  25.016  0.00  0.00    +0.190 C 
ATOM     16  O   UNL     1      -6.595   1.709  25.208  0.00  0.00    -0.220 OA
ENDBRANCH  14  15
ENDBRANCH  13  14
ENDBRANCH   9  10
ENDBRANCH   8   9
TORSDOF 7
ENDMDL
