MODEL 1
REMARK VINA RESULT:     -10.5      0.000      0.000
REMARK  Name = 
REMARK  5 active torsions:
REMARK  status: ('A' for Active; 'I' for Inactive)
REMARK    1  A    between atoms: C_4  and  C_5
REMARK    2  A    between atoms: C_5  and  C_6
REMARK    3  A    between atoms: C_9  and  C_10
REMARK    4  A    between atoms: C_14  and  N_15
REMARK    5  A    between atoms: N_15  and  C_16
REMARK                            x       y       z     vdW  Elec       q    Type
REMARK                         _______ _______ _______ _____ _____    ______ ____
ROOT
ATOM      1  C   UNL     1      -5.182   2.612  24.969  0.00  0.00    +0.001 C 
ATOM      2  C   UNL     1      -4.852   1.857  24.943  0.00  0.00    +0.015 C 
ATOM      3  C   UNL     1      -5.588   1.528  25.115  0.00  0.00    +0.001 C 
ATOM      4  C   UNL     1      -4.114   2.187  24.770  0.00  0.00    +0.009 C 
ATOM     13  C   UNL     1      -3.784   1.431  24.744  0.00  0.00    +0.018 C 
ATOM     14  C   UNL     1      -4.520   1.102  24.916  0.00  0.00    +0.073 C 
ENDROOT
BRANCH   4   5
ATOM      5  C   UNL     1      -3.828   2.952  24.668  0.00  0.00    +0.049 C 
BRANCH   5   6
ATOM      6  C   UNL     1      -3.015   3.087  24.626  0.00  0.00    +0.100 A 
ATOM      7  N   UNL     1      -2.513   2.835  24.023  0.00  0.00    -0.082 NA
ATOM      8  O   UNL     1      -1.749   3.090  24.204  0.00  0.00    -0.355 OA
ATOM      9  C   UNL     1      -1.781   3.501  24.920  0.00  0.00    +0.187 A 
ATOM     12  C   UNL     1      -2.563   3.499  25.180  0.00  0.00    +0.056 A 
BRANCH   9  10
ATOM     10  C   UNL     1      -1.142   3.851  25.306  0.00  0.00    +0.249 C 
ATOM     11  O   UNL     1      -0.757   4.497  24.965  0.00  0.00    -0.212 OA
ENDBRANCH   9  10
ENDBRANCH   5   6
ENDBRANCH   4   5
BRANCH  14  15
ATOM     15  N   UNL     1      -4.806   0.335  25.018  0.00  0.00    -0.221 NA
BRANCH  15  16
ATOM     16  C   UNL     1      -4.302  -0.311  24.919  0.00  0.00    +0.073 C 
ATOM     17  C   UNL     1      -3.855  -0.587  25.555  0.00  0.00    +0.017 C 
ATOM     18  C   UNL     1      -3.352  -1.232  25.456  0.00  0.00    +0.001 C 
ATOM     19  C   UNL     1      -3.294  -1.602  24.721  0.00  0.00    +0.000 C 
ATOM     20  C   UNL     1      -3.741  -1.326  24.085  0.00  0.00    +0.001 C 
ATOM     21  C   UNL     1      -4.245  -0.680  24.184  0.00  0.00    +0.017 C 
ENDBRANCH  15  16
ENDBRANCH  14  15
TORSDOF 5
ENDMDL
MODEL 2
REMARK VINA RESULT:     -10.1      1.711      4.010
REMARK  Name = 
REMARK  5 active torsions:
REMARK  status: ('A' for Active; 'I' for Inactive)
REMARK    1  A    between atoms: C_4  and  C_5
REMARK    2  A    between atoms: C_5  and  C_6
REMARK    3  A    between atoms: C_9  and  C_10
REMARK    4  A    between atoms: C_14  and  N_15
REMARK    5  A    between atoms: N_15  and  C_16
REMARK                            x       y       z     vdW  Elec       q    Type
REMARK                         _______ _______ _______ _____ _____    ______ ____
ROOT
ATOM      1  C   UNL     1      -5.820   1.948  25.204  0.00  0.00    +0.001 C 
ATOM      2  C   UNL     1      -5.106   2.360  25.200  0.00  0.00    +0.015 C 
ATOM      3  C   UNL     1      -5.506   3.057  25.387  0.00  0.00    +0.001 C 
ATOM      4  C   UNL     1      -4.705   1.663  25.013  0.00  0.00    +0.009 C 
ATOM     13  C   UNL     1      -3.990   2.075  25.009  0.00  0.00    +0.018 C 
ATOM     14  C   UNL     1      -4.390   2.772  25.195  0.00  0.00    +0.073 C 
ENDROOT
BRANCH   4   5
ATOM      5  C   UNL     1      -4.927   0.880  24.883  0.00  0.00    +0.049 C 
BRANCH   5   6
ATOM      6  C   UNL     1      -4.351   0.298  24.783  0.00  0.00    +0.100 A 
ATOM      7  N   UNL     1      -3.883   0.190  24.113  0.00  0.00    -0.082 NA
ATOM      8  O   UNL     1      -3.384  -0.453  24.251  0.00  0.00    -0.355 OA
ATOM      9  C   UNL     1      -3.544  -0.741  25.008  0.00  0.00    +0.187 A 
ATOM     12  C   UNL     1      -4.141  -0.277  25.336  0.00  0.00    +0.056 A 
BRANCH   9  10
ATOM     10  C   UNL     1      -3.172  -1.381  25.371  0.00  0.00    +0.249 C 
ATOM     11  O   UNL     1      -3.519  -2.130  25.344  0.00  0.00    -0.212 OA
ENDBRANCH   9  10
ENDBRANCH   5   6
ENDBRANCH   4   5
BRANCH  14  15
ATOM     15  N   UNL     1      -4.168   3.556  25.325  0.00  0.00    -0.221 NA
BRANCH  15  16
ATOM     16  C   UNL     1      -3.368   3.758  25.359  0.00  0.00    +0.073 C 
ATOM     17  C   UNL     1      -2.982   3.793  26.087  0.00  0.00    +0.017 C 
ATOM     18  C   UNL     1      -2.183   3.995  26.120  0.00  0.00    +0.001 C 
ATOM     19  C   UNL     1      -1.769   4.162  25.426  0.00  0.00    +0.000 C 
ATOM     20  C   UNL     1      -2.156   4.127  24.698  0.00  0.00    +0.001 C 
ATOM     21  C   UNL     1      -2.956   3.924  24.664  0.00  0.00    +0.017 C 
ENDBRANCH  15  16
ENDBRANCH  14  15
TORSDOF 5
ENDMDL
MODEL 3
REMARK VINA RESULT:      -9.8      2.456      3.827
REMARK  Name = 
REMARK  5 active torsions:
REMARK  status: ('A' for Active; 'I' for Inactive)
REMARK    1  A    between atoms: C_4  and  C_5
REMARK    2  A    between atoms: C_5  and  C_6
REMARK    3  A    between atoms: C_9  and  C_10
REMARK    4  A    between atoms: C_14  and  N_15
REMARK    5  A    between atoms: N_15  and  C_16
REMARK                            x       y       z     vdW  Elec       q    Type
REMARK                         _______ _______ _______ _____ _____    ______ ____
ROOT
ATOM      1  C   UNL     1      -0.923   4.100  25.312  0.00  0.00    +0.001 C 
ATOM      2  C   UNL     1      -1.703   3.846  25.227  0.00  0.00    +0.015 C 
ATOM      3  C   UNL     1      -1.959   4.630  25.226  0.00  0.00    +0.001 C 
ATOM      4  C   UNL     1      -1.447   3.061  25.228  0.00  0.00    +0.009 C 
ATOM     13  C   UNL     1      -2.227   2.807  25.144  0.00  0.00    +0.018 C 
ATOM     14  C   UNL     1      -2.483   3.591  25.142  0.00  0.00    +0.073 C 
ENDROOT
BRANCH   4   5
ATOM      5  C   UNL     1      -0.715   2.687  25.289  0.00  0.00    +0.049 C 
BRANCH   5   6
ATOM      6  C   UNL     1      -0.658   1.871  25.183  0.00  0.00    +0.100 A 
ATOM      7  N   UNL     1      -0.848   1.295  25.741  0.00  0.00    -0.082 NA
ATOM      8  O   UNL     1      -0.709   0.555  25.402  0.00  0.00    -0.355 OA
ATOM      9  C   UNL     1      -0.432   0.676  24.634  0.00  0.00    +0.187 A 
ATOM     12  C   UNL     1      -0.401   1.488  24.499  0.00  0.00    +0.056 A 
BRANCH   9  10
ATOM     10  C   UNL     1      -0.223   0.086  24.096  0.00  0.00    +0.249 C 
ATOM     11  O   UNL     1      -0.245  -0.707  24.324  0.00  0.00    -0.212 OA
ENDBRANCH   9  10
ENDBRANCH   5   6
ENDBRANCH   4   5
BRANCH  14  15
ATOM     15  N   UNL     1      -3.216   3.965  25.081  0.00  0.00    -0.221 NA
BRANCH  15  16
ATOM     16  C   UNL     1      -3.910   3.518  25.090  0.00  0.00    +0.073 C 
ATOM     17  C   UNL     1      -4.149   3.113  24.412  0.00  0.00    +0.017 C 
ATOM     18  C   UNL     1      -4.842   2.667  24.421  0.00  0.00    +0.001 C 
ATOM     19  C   UNL     1      -5.297   2.625  25.108  0.00  0.00    +0.000 C 
ATOM     20  C   UNL     1      -5.059   3.030  25.786  0.00  0.00    +0.001 C 
ATOM     21  C   UNL     1      -4.365   3.477  25.777  0.00  0.00    +0.017 C 
ENDBRANCH  15  16
ENDBRANCH  14  15
TORSDOF 5
ENDMDL
