MODEL 1
REMARK VINA RESULT:     -13.2      0.000      0.000
REMARK  Name = 
REMARK  6 active torsions:
REMARK  status: ('A' for Active; 'I' for Inactive)
REMARK    1  A    between atoms: O_2  and  C_3
REMARK    2  A    between atoms: C_3  and  C_5
REMARK    3  A    between atoms: N_10  and  S_11
REMARK    4  A    between atoms: S_11  and  C_14
REMARK    5  A    between atoms: N_24  and  C_25
REMARK    6  A    between atoms: C_25  and  C_26
REMARK                            x       y       z     vdW  Elec       q    Type
REMARK                         _______ _______ _______ _____ _____    ______ ____
ROOT
ATOM      5  C   UNL     1      -4.324   2.706  25.314  0.00  0.00    +0.184 C 
ATOM      6  C   UNL     1      -4.971   2.194  25.287  0.00  0.00    +0.076 C 
ATOM      7  C   UNL     1      -4.878   1.427  24.996  0.00  0.00    +0.076 A 
ATOM      8  C   UNL     1      -4.138   1.172  24.734  0.00  0.00    +0.070 A 
ATOM      9  C   UNL     1      -3.491   1.684  24.761  0.00  0.00    +0.141 C 
ATOM     10  N   UNL     1      -3.584   2.451  25.052  0.00  0.00    -0.140 NA
ATOM     24  N   UNL     1      -4.213   0.392  24.478  0.00  0.00    -0.307 N 
ATOM     33  C   UNL     1      -5.000   0.164  24.583  0.00  0.00    +0.178 A 
ATOM     34  N   UNL     1      -5.410   0.804  24.903  0.00  0.00    -0.229 NA
ENDROOT
BRANCH  10  11
ATOM     11  S   UNL     1      -2.938   2.962  25.079  0.00  0.00    +0.066 S 
ATOM     12  O   UNL     1      -2.978   3.057  24.261  0.00  0.00    -0.153 OA
ATOM     13  O   UNL     1      -2.898   2.868  25.898  0.00  0.00    -0.153 OA
BRANCH  11  14
ATOM     14  C   UNL     1      -2.291   3.474  25.107  0.00  0.00    +0.140 A 
ATOM     15  C   UNL     1      -2.393   4.276  24.941  0.00  0.00    +0.021 A 
ATOM     16  C   UNL     1      -1.746   4.788  24.968  0.00  0.00    +0.001 A 
ATOM     17  C   UNL     1      -0.998   4.497  25.163  0.00  0.00    +0.002 A 
ATOM     18  C   UNL     1      -0.896   3.696  25.329  0.00  0.00    +0.019 A 
ATOM     19  C   UNL     1      -1.544   3.183  25.301  0.00  0.00    +0.100 A 
ATOM     20  N   UNL     1      -1.443   2.382  25.468  0.00  0.00    -0.242 NA
ATOM     21  C   UNL     1      -0.696   2.092  25.662  0.00  0.00    +0.099 A 
ATOM     22  C   UNL     1      -0.049   2.605  25.689  0.00  0.00    +0.021 A 
ATOM     23  C   UNL     1      -0.150   3.406  25.523  0.00  0.00    +0.003 A 
ENDBRANCH  11  14
ENDBRANCH  10  11
BRANCH   5   3
ATOM      3  C   UNL     1      -4.417   3.472  25.604  0.00  0.00    +0.334 C 
ATOM      4  O   UNL     1      -4.146   3.664  26.359  0.00  0.00    -0.249 OA
BRANCH   3   2
ATOM      1  C   UNL     1      -5.399   4.499  25.448  0.00  0.00    +0.256 C 
ATOM      2  O   UNL     1      -4.781   4.048  25.139  0.00  0.00    -0.443 OA
ENDBRANCH   3   2
ENDBRANCH   5   3
BRANCH  24  25
ATOM     25  C   UNL     1      -3.609  -0.079  24.172  0.00  0.00    +0.134 C 
BRANCH  25  26
ATOM     26  C   UNL     1      -3.600  -0.890  24.328  0.00  0.00    +0.000 A 
ATOM     27  C   UNL     1      -3.206  -1.176  24.994  0.00  0.00    -0.002 A 
ATOM     28  C   UNL     1      -3.197  -1.986  25.150  0.00  0.00    +0.011 A 
ATOM     29  C   UNL     1      -3.581  -2.509  24.641  0.00  0.00    +0.058 A 
ATOM     30 CL   UNL     1      -3.572  -3.319  24.798  0.00  0.00    -0.082 Cl
ATOM     31  C   UNL     1      -3.975  -2.222  23.975  0.00  0.00    +0.011 A 
ATOM     32  C   UNL     1      -3.984  -1.413  23.819  0.00  0.00    -0.002 A 
ENDBRANCH  25  26
ENDBRANCH  24  25
TORSDOF 6
ENDMDL
MODEL 2
REMARK VINA RESULT:     -12.9      1.645      3.181
REMARK  Name = 
REMARK  6 active torsions:
REMARK  status: ('A' for Active; 'I' for Inactive)
REMARK    1  A    between atoms: O_2  and  C_3
REMARK    2  A    between atoms: C_3  and  C_5
REMARK    3  A    between atoms: N_10  and  S_11
REMARK    4  A    between atoms: S_11  and  C_14
REMARK    5  A    between atoms: N_24  and  C_25
REMARK    6  A    between atoms: C_25  and  C_26
REMARK                            x       y       z     vdW  Elec       q    Type
REMARK                         _______ _______ _______ _____ _____    ______ ____
ROOT
ATOM      5  C   UNL     1      -0.509   1.110  24.914  0.00  0.00    +0.184 C 
ATOM      6  C   UNL     1      -0.248   0.327  24.873  0.00  0.00    +0.076 C 
ATOM      7  C   UNL     1      -0.779  -0.292  24.999  0.00  0.00    +0.076 A 
ATOM      8  C   UNL     1      -1.571  -0.130  25.166  0.00  0.00    +0.070 A 
ATOM      9  C   UNL     1      -1.832   0.652  25.207  0.00  0.00    +0.141 C 
ATOM     10  N   UNL     1      -1.301   1.271  25.081  0.00  0.00    -0.140 NA
ATOM     24  N   UNL     1      -1.964  -0.848  25.264  0.00  0.00    -0.307 N 
ATOM     33  C   UNL     1      -1.414  -1.455  25.158  0.00  0.00    +0.178 A 
ATOM     34  N   UNL     1      -0.683  -1.111  24.994  0.00  0.00    -0.229 NA
ENDROOT
BRANCH  10  11
ATOM     11  S   UNL     1      -1.562   2.053  25.122  0.00  0.00    +0.066 S 
ATOM     12  O   UNL     1      -1.545   2.015  25.946  0.00  0.00    -0.153 OA
ATOM     13  O   UNL     1      -1.579   2.090  24.298  0.00  0.00    -0.153 OA
BRANCH  11  14
ATOM     14  C   UNL     1      -1.823   2.834  25.163  0.00  0.00    +0.140 A 
ATOM     15  C   UNL     1      -1.341   3.413  25.501  0.00  0.00    +0.021 A 
ATOM     16  C   UNL     1      -1.602   4.195  25.542  0.00  0.00    +0.001 A 
ATOM     17  C   UNL     1      -2.345   4.398  25.245  0.00  0.00    +0.002 A 
ATOM     18  C   UNL     1      -2.827   3.819  24.907  0.00  0.00    +0.019 A 
ATOM     19  C   UNL     1      -2.566   3.037  24.866  0.00  0.00    +0.100 A 
ATOM     20  N   UNL     1      -3.047   2.459  24.529  0.00  0.00    -0.242 NA
ATOM     21  C   UNL     1      -3.789   2.662  24.232  0.00  0.00    +0.099 A 
ATOM     22  C   UNL     1      -4.051   3.444  24.273  0.00  0.00    +0.021 A 
ATOM     23  C   UNL     1      -3.569   4.022  24.611  0.00  0.00    +0.003 A 
ENDBRANCH  11  14
ENDBRANCH  10  11
BRANCH   5   3
ATOM      3  C   UNL     1       0.021   1.728  24.789  0.00  0.00    +0.334 C 
ATOM      4  O   UNL     1       0.343   2.133  25.431  0.00  0.00    -0.249 OA
BRANCH   3   2
ATOM      1  C   UNL     1       1.023   2.052  23.822  0.00  0.00    +0.256 C 
ATOM      2  O   UNL     1       0.229   1.943  24.020  0.00  0.00    -0.443 OA
ENDBRANCH   3   2
ENDBRANCH   5   3
BRANCH  24  25
ATOM     25  C   UNL     1      -2.764  -0.944  25.438  0.00  0.00    +0.134 C 
BRANCH  25  26
ATOM     26  C   UNL     1      -3.233  -1.428  24.962  0.00  0.00    +0.000 A 
ATOM     27  C   UNL     1      -3.724  -1.092  24.391  0.00  0.00    -0.002 A 
ATOM     28  C   UNL     1      -4.194  -1.575  23.914  0.00  0.00    +0.011 A 
ATOM     29  C   UNL     1      -4.172  -2.394  24.009  0.00  0.00    +0.058 A 
ATOM     30 CL   UNL     1      -4.641  -2.877  23.533  0.00  0.00    -0.082 Cl
ATOM     31  C   UNL     1      -3.680  -2.730  24.581  0.00  0.00    +0.011 A 
ATOM     32  C   UNL     1      -3.211  -2.247  25.057  0.00  0.00    -0.002 A 
ENDBRANCH  25  26
ENDBRANCH  24  25
TORSDOF 6
ENDMDL
MODEL 3
REMARK VINA RESULT:     -11.4      1.612      3.427
REMARK  Name = 
REMARK  6 active torsions:
REMARK  status: ('A' for Active; 'I' for Inactive)
REMARK    1  A    between atoms: O_2  and  C_3
REMARK    2  A    between atoms: C_3  and  C_5
REMARK    3  A    between atoms: N_10  and  S_11
REMARK    4  A    between atoms: S_11  and  C_14
REMARK    5  A    between atoms: N_24  and  C_25
REMARK    6  A    between atoms: C_25  and  C_26
REMARK                            x       y       z     vdW  Elec       q    Type
REMARK                         _______ _______ _______ _____ _____    ______ ____
ROOT
ATOM      5  C   UNL     1      -1.744   3.409  25.132  0.00  0.00    +0.184 C 
ATOM      6  C   UNL     1      -0.939   3.258  25.030  0.00  0.00    +0.076 C 
ATOM      7  C   UNL     1      -0.690   2.522  24.753  0.00  0.00    +0.076 A 
ATOM      8  C   UNL     1      -1.244   1.936  24.577  0.00  0.00    +0.070 A 
ATOM      9  C   UNL     1      -2.050   2.087  24.679  0.00  0.00    +0.141 C 
ATOM     10  N   UNL     1      -2.299   2.824  24.957  0.00  0.00    -0.140 NA
ATOM     24  N   UNL     1      -0.838   1.269  24.315  0.00  0.00    -0.307 N 
ATOM     33  C   UNL     1      -0.030   1.441  24.328  0.00  0.00    +0.178 A 
ATOM     34  N   UNL     1       0.061   2.215  24.598  0.00  0.00    -0.229 NA
ENDROOT
BRANCH  10  11
ATOM     11  S   UNL     1      -3.103   2.975  25.059  0.00  0.00    +0.066 S 
ATOM     12  O   UNL     1      -3.169   3.164  24.258  0.00  0.00    -0.153 OA
ATOM     13  O   UNL     1      -3.038   2.785  25.859  0.00  0.00    -0.153 OA
BRANCH  11  14
ATOM     14  C   UNL     1      -3.908   3.126  25.161  0.00  0.00    +0.140 A 
ATOM     15  C   UNL     1      -4.170   3.898  25.286  0.00  0.00    +0.021 A 
ATOM     16  C   UNL     1      -4.975   4.049  25.388  0.00  0.00    +0.001 A 
ATOM     17  C   UNL     1      -5.517   3.428  25.365  0.00  0.00    +0.002 A 
ATOM     18  C   UNL     1      -5.256   2.655  25.239  0.00  0.00    +0.019 A 
ATOM     19  C   UNL     1      -4.450   2.504  25.137  0.00  0.00    +0.100 A 
ATOM     20  N   UNL     1      -4.188   1.732  25.012  0.00  0.00    -0.242 NA
ATOM     21  C   UNL     1      -4.730   1.112  24.988  0.00  0.00    +0.099 A 
ATOM     22  C   UNL     1      -5.536   1.263  25.090  0.00  0.00    +0.021 A 
ATOM     23  C   UNL     1      -5.798   2.034  25.216  0.00  0.00    +0.003 A 
ENDBRANCH  11  14
ENDBRANCH  10  11
BRANCH   5   3
ATOM      3  C   UNL     1      -1.994   4.144  25.409  0.00  0.00    +0.334 C 
ATOM      4  O   UNL     1      -2.238   4.229  26.192  0.00  0.00    -0.249 OA
BRANCH   3   2
ATOM      1  C   UNL     1      -1.633   5.499  25.130  0.00  0.00    +0.256 C 
ATOM      2  O   UNL     1      -1.999   4.796  24.903  0.00  0.00    -0.443 OA
ENDBRANCH   3   2
ENDBRANCH   5   3
BRANCH  24  25
ATOM     25  C   UNL     1      -1.177   0.554  24.081  0.00  0.00    +0.134 C 
BRANCH  25  26
ATOM     26  C   UNL     1      -0.931  -0.152  24.430  0.00  0.00    +0.000 A 
ATOM     27  C   UNL     1      -1.303  -0.423  25.114  0.00  0.00    -0.002 A 
ATOM     28  C   UNL     1      -1.058  -1.129  25.464  0.00  0.00    +0.011 A 
ATOM     29  C   UNL     1      -0.441  -1.563  25.130  0.00  0.00    +0.058 A 
ATOM     30 CL   UNL     1      -0.196  -2.268  25.480  0.00  0.00    -0.082 Cl
ATOM     31  C   UNL     1      -0.069  -1.290  24.445  0.00  0.00    +0.011 A 
ATOM     32  C   UNL     1      -0.314  -0.585  24.096  0.00  0.00    -0.002 A 
ENDBRANCH  25  26
ENDBRANCH  24  25
TORSDOF 6
ENDMDL
MODEL 4
REMARK VINA RESULT:     -11.2      2.119      4.191
REMARK  Name = 
REMARK  6 active torsions:
REMARK  status: ('A' for Active; 'I' for Inactive)
REMARK    1  A    between atoms: O_2  and  C_3
REMARK    2  A    between atoms: C_3  and  C_5
REMARK    3  A    between atoms: N_10  and  S_11
REMARK    4  A    between atoms: S_11  and  C_14
REMARK    5  A    between atoms: N_24  and  C_25
REMARK    6  A    between atoms: C_25  and  C_26
REMARK                            x       y       z     vdW  Elec       q    Type
REMARK                         _______ _______ _______ _____ _____    ______ ____
ROOT
ATOM      5  C   UNL     1      -0.980   2.573  25.322  0.00  0.00    +0.184 C 
ATOM      6  C   UNL     1      -1.316   3.295  25.540  0.00  0.00    +0.076 C 
ATOM      7  C   UNL     1      -2.098   3.464  25.334  0.00  0.00    +0.076 A 
ATOM      8  C   UNL     1      -2.543   2.912  24.912  0.00  0.00    +0.070 A 
ATOM      9  C   UNL     1      -2.206   2.190  24.694  0.00  0.00    +0.141 C 
ATOM     10  N   UNL     1      -1.425   2.021  24.900  0.00  0.00    -0.140 NA
ATOM     24  N   UNL     1      -3.293   3.230  24.788  0.00  0.00    -0.307 N 
ATOM     33  C   UNL     1      -3.312   3.979  25.134  0.00  0.00    +0.178 A 
ATOM     34  N   UNL     1      -2.574   4.124  25.471  0.00  0.00    -0.229 NA
ENDROOT
BRANCH  10  11
ATOM     11  S   UNL     1      -1.089   1.300  24.683  0.00  0.00    +0.066 S 
ATOM     12  O   UNL     1      -1.122   1.048  25.468  0.00  0.00    -0.153 OA
ATOM     13  O   UNL     1      -1.055   1.552  23.898  0.00  0.00    -0.153 OA
BRANCH  11  14
ATOM     14  C   UNL     1      -0.752   0.578  24.466  0.00  0.00    +0.140 A 
ATOM     15  C   UNL     1      -0.029   0.564  24.068  0.00  0.00    +0.021 A 
ATOM     16  C   UNL     1       0.307  -0.158  23.850  0.00  0.00    +0.001 A 
ATOM     17  C   UNL     1      -0.080  -0.864  24.031  0.00  0.00    +0.002 A 
ATOM     18  C   UNL     1      -0.803  -0.850  24.429  0.00  0.00    +0.019 A 
ATOM     19  C   UNL     1      -1.139  -0.128  24.646  0.00  0.00    +0.100 A 
ATOM     20  N   UNL     1      -1.862  -0.113  25.043  0.00  0.00    -0.242 NA
ATOM     21  C   UNL     1      -2.248  -0.818  25.224  0.00  0.00    +0.099 A 
ATOM     22  C   UNL     1      -1.911  -1.540  25.006  0.00  0.00    +0.021 A 
ATOM     23  C   UNL     1      -1.189  -1.555  24.609  0.00  0.00    +0.003 A 
ENDBRANCH  11  14
ENDBRANCH  10  11
BRANCH   5   3
ATOM      3  C   UNL     1      -0.199   2.404  25.527  0.00  0.00    +0.334 C 
ATOM      4  O   UNL     1       0.400   2.477  24.966  0.00  0.00    -0.249 OA
BRANCH   3   2
ATOM      1  C   UNL     1       0.581   2.540  26.717  0.00  0.00    +0.256 C 
ATOM      2  O   UNL     1      -0.018   2.161  26.295  0.00  0.00    -0.443 OA
ENDBRANCH   3   2
ENDBRANCH   5   3
BRANCH  24  25
ATOM     25  C   UNL     1      -3.916   2.865  24.388  0.00  0.00    +0.134 C 
BRANCH  25  26
ATOM     26  C   UNL     1      -4.587   2.625  24.804  0.00  0.00    +0.000 A 
ATOM     27  C   UNL     1      -4.781   1.824  24.844  0.00  0.00    -0.002 A 
ATOM     28  C   UNL     1      -5.452   1.583  25.260  0.00  0.00    +0.011 A 
ATOM     29  C   UNL     1      -5.928   2.143  25.635  0.00  0.00    +0.058 A 
ATOM     30 CL   UNL     1      -6.598   1.902  26.050  0.00  0.00    -0.082 Cl
ATOM     31  C   UNL     1      -5.733   2.944  25.595  0.00  0.00    +0.011 A 
ATOM     32  C   UNL     1      -5.062   3.185  25.179  0.00  0.00    -0.002 A 
ENDBRANCH  25  26
ENDBRANCH  24  25
TORSDOF 6
ENDMDL
MODEL 5
REMARK VINA RESULT:     -11.1      2.517      5.415
REMARK  Name = 
REMARK  6 active torsions:
REMARK  status: ('A' for Active; 'I' for Inactive)
REMARK    1  A    between atoms: O_2  and  C_3
REMARK    2  A    between atoms: C_3  and  C_5
REMARK    3  A    between atoms: N_10  and  S_11
REMARK    4  A    between atoms: S_11  and  C_14
REMARK    5  A    between atoms: N_24  and  C_25
REMARK    6  A    between atoms: C_25  and  C_26
REMARK                            x       y       z     vdW  Elec       q    Type
REMARK                         _______ _______ _______ _____ _____    ______ ____
ROOT
ATOM      5  C   UNL     1      -0.471   0.401  24.433  0.00  0.00    +0.184 C 
ATOM      6  C   UNL     1      -0.133   1.154  24.476  0.00  0.00    +0.076 C 
ATOM      7  C   UNL     1      -0.558   1.778  24.809  0.00  0.00    +0.076 A 
ATOM      8  C   UNL     1      -1.320   1.651  25.099  0.00  0.00    +0.070 A 
ATOM      9  C   UNL     1      -1.657   0.898  25.057  0.00  0.00    +0.141 C 
ATOM     10  N   UNL     1      -1.232   0.274  24.724  0.00  0.00    -0.140 NA
ATOM     24  N   UNL     1      -1.604   2.366  25.395  0.00  0.00    -0.307 N 
ATOM     33  C   UNL     1      -1.017   2.936  25.287  0.00  0.00    +0.178 A 
ATOM     34  N   UNL     1      -0.371   2.573  24.925  0.00  0.00    -0.229 NA
ENDROOT
BRANCH  10  11
ATOM     11  S   UNL     1      -1.569  -0.478  24.682  0.00  0.00    +0.066 S 
ATOM     12  O   UNL     1      -1.720  -0.365  23.879  0.00  0.00    -0.153 OA
ATOM     13  O   UNL     1      -1.419  -0.590  25.485  0.00  0.00    -0.153 OA
BRANCH  11  14
ATOM     14  C   UNL     1      -1.906  -1.230  24.640  0.00  0.00    +0.140 A 
ATOM     15  C   UNL     1      -1.443  -1.897  24.784  0.00  0.00    +0.021 A 
ATOM     16  C   UNL     1      -1.781  -2.650  24.742  0.00  0.00    +0.001 A 
ATOM     17  C   UNL     1      -2.580  -2.733  24.556  0.00  0.00    +0.002 A 
ATOM     18  C   UNL     1      -3.043  -2.066  24.411  0.00  0.00    +0.019 A 
ATOM     19  C   UNL     1      -2.706  -1.313  24.453  0.00  0.00    +0.100 A 
ATOM     20  N   UNL     1      -3.168  -0.646  24.309  0.00  0.00    -0.242 NA
ATOM     21  C   UNL     1      -3.966  -0.729  24.123  0.00  0.00    +0.099 A 
ATOM     22  C   UNL     1      -4.304  -1.482  24.080  0.00  0.00    +0.021 A 
ATOM     23  C   UNL     1      -3.842  -2.149  24.225  0.00  0.00    +0.003 A 
ENDBRANCH  11  14
ENDBRANCH  10  11
BRANCH   5   3
ATOM      3  C   UNL     1      -0.046  -0.223  24.101  0.00  0.00    +0.334 C 
ATOM      4  O   UNL     1       0.279  -0.805  24.585  0.00  0.00    -0.249 OA
BRANCH   3   2
ATOM      1  C   UNL     1       0.804  -0.388  22.964  0.00  0.00    +0.256 C 
ATOM      2  O   UNL     1       0.053  -0.264  23.283  0.00  0.00    -0.443 OA
ENDBRANCH   3   2
ENDBRANCH   5   3
BRANCH  24  25
ATOM     25  C   UNL     1      -2.343   2.491  25.738  0.00  0.00    +0.134 C 
BRANCH  25  26
ATOM     26  C   UNL     1      -2.861   3.043  25.411  0.00  0.00    +0.000 A 
ATOM     27  C   UNL     1      -3.407   2.807  24.839  0.00  0.00    -0.002 A 
ATOM     28  C   UNL     1      -3.925   3.360  24.511  0.00  0.00    +0.011 A 
ATOM     29  C   UNL     1      -3.897   4.147  24.754  0.00  0.00    +0.058 A 
ATOM     30 CL   UNL     1      -4.414   4.699  24.426  0.00  0.00    -0.082 Cl
ATOM     31  C   UNL     1      -3.350   4.383  25.326  0.00  0.00    +0.011 A 
ATOM     32  C   UNL     1      -2.833   3.831  25.654  0.00  0.00    -0.002 A 
ENDBRANCH  25  26
ENDBRANCH  24  25
TORSDOF 6
ENDMDL
