MODEL 1
REMARK VINA RESULT:     -10.2      0.000      0.000
REMARK  Name = 
REMARK  7 active torsions:
REMARK  status: ('A' for Active; 'I' for Inactive)
REMARK    1  A    between atoms: O_2  and  C_3
REMARK    2  A    between atoms: C_3  and  C_4
REMARK    3  A    between atoms: C_6  and  C_7
REMARK    4  A    between atoms: C_7  and  C_8
REMARK    5  A    between atoms: C_10  and  N_11
REMARK    6  A    between atoms: N_11  and  C_12
REMARK    7  A    between atoms: C_12  and  C_13
REMARK                            x       y       z     vdW  Elec       q    Type
REMARK                         _______ _______ _______ _____ _____    ______ ____
ROOT
ATOM      8  C   UNL     1      -4.523   2.326  25.040  0.00  0.00    +0.009 C 
ATOM      9  C   UNL     1      -3.940   1.750  24.940  0.00  0.00    +0.018 C 
ATOM     10  C   UNL     1      -4.523   1.166  24.922  0.00  0.00    +0.073 C 
ATOM     19  C   UNL     1      -5.104   1.741  25.022  0.00  0.00    +0.015 C 
ATOM     20  C   UNL     1      -5.806   1.308  25.027  0.00  0.00    +0.001 C 
ATOM     21  C   UNL     1      -5.806   2.165  25.115  0.00  0.00    +0.001 C 
ENDROOT
BRANCH   8   7
ATOM      7  C   UNL     1      -4.523   3.146  25.123  0.00  0.00    +0.049 C 
BRANCH   7   6
ATOM      4  C   UNL     1      -2.685   4.206  25.362  0.00  0.00    +0.184 A 
ATOM      5  C   UNL     1      -3.271   3.878  24.882  0.00  0.00    +0.056 A 
ATOM      6  C   UNL     1      -3.840   3.536  25.372  0.00  0.00    +0.100 A 
ATOM     22  N   UNL     1      -3.606   3.653  26.155  0.00  0.00    -0.082 NA
ATOM     23  O   UNL     1      -2.893   4.067  26.149  0.00  0.00    -0.356 OA
BRANCH   4   3
ATOM      3  C   UNL     1      -2.011   4.603  25.102  0.00  0.00    +0.209 C 
BRANCH   3   2
ATOM      1  C   UNL     1      -0.598   4.621  24.891  0.00  0.00    +0.175 C 
ATOM      2  O   UNL     1      -1.264   4.284  25.242  0.00  0.00    -0.343 OA
ENDBRANCH   3   2
ENDBRANCH   4   3
ENDBRANCH   7   6
ENDBRANCH   8   7
BRANCH  10  11
ATOM     11  N   UNL     1      -4.523   0.345  24.838  0.00  0.00    -0.215 NA
BRANCH  11  12
ATOM     12  C   UNL     1      -3.824  -0.050  24.645  0.00  0.00    +0.116 C 
BRANCH  12  13
ATOM     13  C   UNL     1      -3.809  -0.875  24.624  0.00  0.00    +0.014 A 
ATOM     14  C   UNL     1      -4.086  -1.275  23.959  0.00  0.00    +0.000 A 
ATOM     15  C   UNL     1      -4.071  -2.100  23.937  0.00  0.00    +0.020 A 
ATOM     16  C   UNL     1      -3.778  -2.524  24.581  0.00  0.00    +0.099 A 
ATOM     17  N   UNL     1      -3.500  -2.123  25.247  0.00  0.00    -0.243 NA
ATOM     18  C   UNL     1      -3.515  -1.298  25.268  0.00  0.00    +0.096 A 
ENDBRANCH  12  13
ENDBRANCH  11  12
ENDBRANCH  10  11
TORSDOF 7
ENDMDL
MODEL 2
REMARK VINA RESULT:      -9.6      2.052      4.933
REMARK  Name = 
REMARK  7 active torsions:
REMARK  status: ('A' for Active; 'I' for Inactive)
REMARK    1  A    between atoms: O_2  and  C_3
REMARK    2  A    between atoms: C_3  and  C_4
REMARK    3  A    between atoms: C_6  and  C_7
REMARK    4  A    between atoms: C_7  and  C_8
REMARK    5  A    between atoms: C_10  and  N_11
REMARK    6  A    between atoms: N_11  and  C_12
REMARK    7  A    between atoms: C_12  and  C_13
REMARK                            x       y       z     vdW  Elec       q    Type
REMARK                         _______ _______ _______ _____ _____    ______ ____
ROOT
ATOM      8  C   UNL     1      -4.120   1.220  24.790  0.00  0.00    +0.009 C 
ATOM      9  C   UNL     1      -3.329   1.425  24.907  0.00  0.00    +0.018 C 
ATOM     10  C   UNL     1      -3.527   2.223  24.837  0.00  0.00    +0.073 C 
ATOM     19  C   UNL     1      -4.317   2.018  24.719  0.00  0.00    +0.015 C 
ATOM     20  C   UNL     1      -4.692   2.746  24.624  0.00  0.00    +0.001 C 
ATOM     21  C   UNL     1      -5.131   2.005  24.589  0.00  0.00    +0.001 C 
ENDROOT
BRANCH   8   7
ATOM      7  C   UNL     1      -4.540   0.511  24.756  0.00  0.00    +0.049 C 
BRANCH   7   6
ATOM      4  C   UNL     1      -3.550  -1.377  24.862  0.00  0.00    +0.184 A 
ATOM      5  C   UNL     1      -3.873  -0.756  24.425  0.00  0.00    +0.056 A 
ATOM      6  C   UNL     1      -4.169  -0.198  24.955  0.00  0.00    +0.100 A 
ATOM     22  N   UNL     1      -4.030  -0.474  25.721  0.00  0.00    -0.082 NA
ATOM     23  O   UNL     1      -3.647  -1.203  25.663  0.00  0.00    -0.356 OA
BRANCH   4   3
ATOM      3  C   UNL     1      -3.193  -2.053  24.554  0.00  0.00    +0.209 C 
BRANCH   3   2
ATOM      1  C   UNL     1      -2.016  -2.820  24.292  0.00  0.00    +0.175 C 
ATOM      2  O   UNL     1      -2.381  -2.169  24.642  0.00  0.00    -0.343 OA
ENDBRANCH   3   2
ENDBRANCH   4   3
ENDBRANCH   7   6
ENDBRANCH   8   7
BRANCH  10  11
ATOM     11  N   UNL     1      -3.107   2.932  24.870  0.00  0.00    -0.215 NA
BRANCH  11  12
ATOM     12  C   UNL     1      -2.361   2.954  25.224  0.00  0.00    +0.116 C 
BRANCH  12  13
ATOM     13  C   UNL     1      -1.879   3.617  25.129  0.00  0.00    +0.014 A 
ATOM     14  C   UNL     1      -2.127   4.350  25.414  0.00  0.00    +0.000 A 
ATOM     15  C   UNL     1      -1.645   5.013  25.320  0.00  0.00    +0.020 A 
ATOM     16  C   UNL     1      -0.915   4.943  24.941  0.00  0.00    +0.099 A 
ATOM     17  N   UNL     1      -0.668   4.209  24.656  0.00  0.00    -0.243 NA
ATOM     18  C   UNL     1      -1.149   3.546  24.750  0.00  0.00    +0.096 A 
ENDBRANCH  12  13
ENDBRANCH  11  12
ENDBRANCH  10  11
TORSDOF 7
ENDMDL
MODEL 3
REMARK VINA RESULT:      -8.8      2.465      4.520
REMARK  Name = 
REMARK  7 active torsions:
REMARK  status: ('A' for Active; 'I' for Inactive)
REMARK    1  A    between atoms: O_2  and  C_3
REMARK    2  A    between atoms: C_3  and  C_4
REMARK    3  A    between atoms: C_6  and  C_7
REMARK    4  A    between atoms: C_7  and  C_8
REMARK    5  A    between atoms: C_10  and  N_11
REMARK    6  A    between atoms: N_11  and  C_12
REMARK    7  A    between atoms: C_12  and  C_13
REMARK                            x       y       z     vdW  Elec       q    Type
REMARK                         _______ _______ _______ _____ _____    ______ ____
ROOT
ATOM      8  C   UNL     1      -2.937  -1.260  24.688  0.00  0.00    +0.009 C 
ATOM      9  C   UNL     1      -2.996  -0.496  24.995  0.00  0.00    +0.018 C 
ATOM     10  C   UNL     1      -3.786  -0.464  24.761  0.00  0.00    +0.073 C 
ATOM     19  C   UNL     1      -3.727  -1.227  24.455  0.00  0.00    +0.015 C 
ATOM     20  C   UNL     1      -4.482  -1.374  24.157  0.00  0.00    +0.001 C 
ATOM     21  C   UNL     1      -3.854  -1.962  24.102  0.00  0.00    +0.001 C 
ENDROOT
BRANCH   8   7
ATOM      7  C   UNL     1      -2.337  -1.823  24.636  0.00  0.00    +0.049 C 
BRANCH   7   6
ATOM      4  C   UNL     1      -0.320  -1.167  24.389  0.00  0.00    +0.184 A 
ATOM      5  C   UNL     1      -1.064  -1.345  24.078  0.00  0.00    +0.056 A 
ATOM      6  C   UNL     1      -1.547  -1.591  24.699  0.00  0.00    +0.100 A 
ATOM     22  N   UNL     1      -1.103  -1.566  25.394  0.00  0.00    -0.082 NA
ATOM     23  O   UNL     1      -0.345  -1.304  25.203  0.00  0.00    -0.356 OA
BRANCH   4   3
ATOM      3  C   UNL     1       0.333  -0.900  23.962  0.00  0.00    +0.209 C 
BRANCH   3   2
ATOM      1  C   UNL     1       0.932   0.062  23.091  0.00  0.00    +0.175 C 
ATOM      2  O   UNL     1       0.300  -0.179  23.564  0.00  0.00    -0.343 OA
ENDBRANCH   3   2
ENDBRANCH   4   3
ENDBRANCH   7   6
ENDBRANCH   8   7
BRANCH  10  11
ATOM     11  N   UNL     1      -4.387   0.099  24.813  0.00  0.00    -0.215 NA
BRANCH  11  12
ATOM     12  C   UNL     1      -4.242   0.826  25.177  0.00  0.00    +0.116 C 
BRANCH  12  13
ATOM     13  C   UNL     1      -4.805   1.427  25.136  0.00  0.00    +0.014 A 
ATOM     14  C   UNL     1      -5.499   1.373  25.578  0.00  0.00    +0.000 A 
ATOM     15  C   UNL     1      -6.062   1.975  25.537  0.00  0.00    +0.020 A 
ATOM     16  C   UNL     1      -5.931   2.631  25.055  0.00  0.00    +0.099 A 
ATOM     17  N   UNL     1      -5.236   2.685  24.613  0.00  0.00    -0.243 NA
ATOM     18  C   UNL     1      -4.673   2.083  24.654  0.00  0.00    +0.096 A 
ENDBRANCH  12  13
ENDBRANCH  11  12
ENDBRANCH  10  11
TORSDOF 7
ENDMDL
MODEL 4
REMARK VINA RESULT:      -8.6      2.298      3.080
REMARK  Name = 
REMARK  7 active torsions:
REMARK  status: ('A' for Active; 'I' for Inactive)
REMARK    1  A    between atoms: O_2  and  C_3
REMARK    2  A    between atoms: C_3  and  C_4
REMARK    3  A    between atoms: C_6  and  C_7
REMARK    4  A    between atoms: C_7  and  C_8
REMARK    5  A    between atoms: C_10  and  N_11
REMARK    6  A    between atoms: N_11  and  C_12
REMARK    7  A    between atoms: C_12  and  C_13
REMARK                            x       y       z     vdW  Elec       q    Type
REMARK                         _______ _______ _______ _____ _____    ______ ____
ROOT
ATOM      8  C   UNL     1      -0.668   0.729  24.814  0.00  0.00    +0.009 C 
ATOM      9  C   UNL     1      -1.429   0.516  25.048  0.00  0.00    +0.018 C 
ATOM     10  C   UNL     1      -1.334  -0.218  24.682  0.00  0.00    +0.073 C 
ATOM     19  C   UNL     1      -0.573  -0.004  24.448  0.00  0.00    +0.015 C 
ATOM     20  C   UNL     1      -0.304  -0.666  24.038  0.00  0.00    +0.001 C 
ATOM     21  C   UNL     1       0.189   0.034  24.136  0.00  0.00    +0.001 C 
ENDROOT
BRANCH   8   7
ATOM      7  C   UNL     1      -0.196   1.400  24.907  0.00  0.00    +0.049 C 
BRANCH   7   6
ATOM      4  C   UNL     1      -1.075   3.252  25.500  0.00  0.00    +0.184 A 
ATOM      5  C   UNL     1      -0.857   2.712  24.915  0.00  0.00    +0.056 A 
ATOM      6  C   UNL     1      -0.498   2.068  25.284  0.00  0.00    +0.100 A 
ATOM     22  N   UNL     1      -0.493   2.209  26.097  0.00  0.00    -0.082 NA
ATOM     23  O   UNL     1      -0.850   2.941  26.231  0.00  0.00    -0.356 OA
BRANCH   4   3
ATOM      3  C   UNL     1      -1.451   3.976  25.377  0.00  0.00    +0.209 C 
BRANCH   3   2
ATOM      1  C   UNL     1      -1.385   5.369  25.070  0.00  0.00    +0.175 C 
ATOM      2  O   UNL     1      -1.009   4.644  25.183  0.00  0.00    -0.343 OA
ENDBRANCH   3   2
ENDBRANCH   4   3
ENDBRANCH   7   6
ENDBRANCH   8   7
BRANCH  10  11
ATOM     11  N   UNL     1      -1.806  -0.888  24.589  0.00  0.00    -0.215 NA
BRANCH  11  12
ATOM     12  C   UNL     1      -2.585  -0.886  24.862  0.00  0.00    +0.116 C 
BRANCH  12  13
ATOM     13  C   UNL     1      -3.110  -1.474  24.617  0.00  0.00    +0.014 A 
ATOM     14  C   UNL     1      -3.741  -1.283  24.122  0.00  0.00    +0.000 A 
ATOM     15  C   UNL     1      -4.265  -1.870  23.877  0.00  0.00    +0.020 A 
ATOM     16  C   UNL     1      -4.160  -2.649  24.127  0.00  0.00    +0.099 A 
ATOM     17  N   UNL     1      -3.528  -2.840  24.624  0.00  0.00    -0.243 NA
ATOM     18  C   UNL     1      -3.003  -2.252  24.869  0.00  0.00    +0.096 A 
ENDBRANCH  12  13
ENDBRANCH  11  12
ENDBRANCH  10  11
TORSDOF 7
ENDMDL
MODEL 5
REMARK VINA RESULT:      -8.3      2.639      4.150
REMARK  Name = 
REMARK  7 active torsions:
REMARK  status: ('A' for Active; 'I' for Inactive)
REMARK    1  A    between atoms: O_2  and  C_3
REMARK    2  A    between atoms: C_3  and  C_4
REMARK    3  A    between atoms: C_6  and  C_7
REMARK    4  A    between atoms: C_7  and  C_8
REMARK    5  A    between atoms: C_10  and  N_11
REMARK    6  A    between atoms: N_11  and  C_12
REMARK    7  A    between atoms: C_12  and  C_13
REMARK                            x       y       z     vdW  Elec       q    Type
REMARK                         _______ _______ _______ _____ _____    ______ ____
ROOT
ATOM      8  C   UNL     1      -1.501   3.530  25.137  0.00  0.00    +0.009 C 
ATOM      9  C   UNL     1      -2.087   2.950  25.098  0.00  0.00    +0.018 C 
ATOM     10  C   UNL     1      -2.661   3.521  25.259  0.00  0.00    +0.073 C 
ATOM     19  C   UNL     1      -2.075   4.099  25.298  0.00  0.00    +0.015 C 
ATOM     20  C   UNL     1      -2.496   4.789  25.464  0.00  0.00    +0.001 C 
ATOM     21  C   UNL     1      -1.639   4.795  25.374  0.00  0.00    +0.001 C 
ENDROOT
BRANCH   8   7
ATOM      7  C   UNL     1      -0.681   3.536  25.051  0.00  0.00    +0.049 C 
BRANCH   7   6
ATOM      4  C   UNL     1       0.335   1.767  24.420  0.00  0.00    +0.184 A 
ATOM      5  C   UNL     1      -0.075   2.463  24.249  0.00  0.00    +0.056 A 
ATOM      6  C   UNL     1      -0.269   2.826  24.963  0.00  0.00    +0.100 A 
ATOM     22  N   UNL     1       0.020   2.355  25.577  0.00  0.00    -0.082 NA
ATOM     23  O   UNL     1       0.393   1.701  25.241  0.00  0.00    -0.356 OA
BRANCH   4   3
ATOM      3  C   UNL     1       0.634   1.232  23.869  0.00  0.00    +0.209 C 
BRANCH   3   2
ATOM      1  C   UNL     1       0.577  -0.044  23.228  0.00  0.00    +0.175 C 
ATOM      2  O   UNL     1       0.251   0.513  23.741  0.00  0.00    -0.343 OA
ENDBRANCH   3   2
ENDBRANCH   4   3
ENDBRANCH   7   6
ENDBRANCH   8   7
BRANCH  10  11
ATOM     11  N   UNL     1      -3.481   3.515  25.346  0.00  0.00    -0.215 NA
BRANCH  11  12
ATOM     12  C   UNL     1      -3.940   2.995  24.897  0.00  0.00    +0.116 C 
BRANCH  12  13
ATOM     13  C   UNL     1      -4.691   2.776  25.158  0.00  0.00    +0.014 A 
ATOM     14  C   UNL     1      -5.018   2.059  24.917  0.00  0.00    +0.000 A 
ATOM     15  C   UNL     1      -5.769   1.840  25.179  0.00  0.00    +0.020 A 
ATOM     16  C   UNL     1      -6.193   2.337  25.682  0.00  0.00    +0.099 A 
ATOM     17  N   UNL     1      -5.865   3.056  25.924  0.00  0.00    -0.243 NA
ATOM     18  C   UNL     1      -5.114   3.275  25.662  0.00  0.00    +0.096 A 
ENDBRANCH  12  13
ENDBRANCH  11  12
ENDBRANCH  10  11
TORSDOF 7
ENDMDL
MODEL 6
REMARK VINA RESULT:      -8.3      2.310      3.480
REMARK  Name = 
REMARK  7 active torsions:
REMARK  status: ('A' for Active; 'I' for Inactive)
REMARK    1  A    between atoms: O_2  and  C_3
REMARK    2  A    between atoms: C_3  and  C_4
REMARK    3  A    between atoms: C_6  and  C_7
REMARK    4  A    between atoms: C_7  and  C_8
REMARK    5  A    between atoms: C_10  and  N_11
REMARK    6  A    between atoms: N_11  and  C_12
REMARK    7  A    between atoms: C_12  and  C_13
REMARK                            x       y       z     vdW  Elec       q    Type
REMARK                         _______ _______ _______ _____ _____    ______ ____
ROOT
ATOM      8  C   UNL     1      -1.906   2.958  25.341  0.00  0.00    +0.009 C 
ATOM      9  C   UNL     1      -2.112   2.197  25.098  0.00  0.00    +0.018 C 
ATOM     10  C   UNL     1      -1.341   1.943  25.245  0.00  0.00    +0.073 C 
ATOM     19  C   UNL     1      -1.136   2.703  25.488  0.00  0.00    +0.015 C 
ATOM     20  C   UNL     1      -0.339   2.633  25.688  0.00  0.00    +0.001 C 
ATOM     21  C   UNL     1      -0.757   3.383  25.760  0.00  0.00    +0.001 C 
ENDROOT
BRANCH   8   7
ATOM      7  C   UNL     1      -2.306   3.677  25.410  0.00  0.00    +0.049 C 
BRANCH   7   6
ATOM      4  C   UNL     1      -4.437   3.660  25.285  0.00  0.00    +0.184 A 
ATOM      5  C   UNL     1      -3.738   3.528  25.704  0.00  0.00    +0.056 A 
ATOM      6  C   UNL     1      -3.106   3.725  25.213  0.00  0.00    +0.100 A 
ATOM     22  N   UNL     1      -3.412   3.978  24.490  0.00  0.00    -0.082 NA
ATOM     23  O   UNL     1      -4.235   3.938  24.534  0.00  0.00    -0.356 OA
BRANCH   4   3
ATOM      3  C   UNL     1      -5.202   3.536  25.565  0.00  0.00    +0.209 C 
BRANCH   3   2
ATOM      1  C   UNL     1      -6.196   2.554  25.868  0.00  0.00    +0.175 C 
ATOM      2  O   UNL     1      -5.608   2.846  25.368  0.00  0.00    -0.343 OA
ENDBRANCH   3   2
ENDBRANCH   4   3
ENDBRANCH   7   6
ENDBRANCH   8   7
BRANCH  10  11
ATOM     11  N   UNL     1      -0.941   1.224  25.177  0.00  0.00    -0.215 NA
BRANCH  11  12
ATOM     12  C   UNL     1      -1.331   0.562  24.876  0.00  0.00    +0.116 C 
BRANCH  12  13
ATOM     13  C   UNL     1      -0.952  -0.171  24.864  0.00  0.00    +0.014 A 
ATOM     14  C   UNL     1      -1.097  -0.720  25.462  0.00  0.00    +0.000 A 
ATOM     15  C   UNL     1      -0.717  -1.452  25.450  0.00  0.00    +0.020 A 
ATOM     16  C   UNL     1      -0.192  -1.635  24.841  0.00  0.00    +0.099 A 
ATOM     17  N   UNL     1      -0.046  -1.085  24.243  0.00  0.00    -0.243 NA
ATOM     18  C   UNL     1      -0.426  -0.353  24.255  0.00  0.00    +0.096 A 
ENDBRANCH  12  13
ENDBRANCH  11  12
ENDBRANCH  10  11
TORSDOF 7
ENDMDL
MODEL 7
REMARK VINA RESULT:      -8.2      1.620      2.544
REMARK  Name = 
REMARK  7 active torsions:
REMARK  status: ('A' for Active; 'I' for Inactive)
REMARK    1  A    between atoms: O_2  and  C_3
REMARK    2  A    between atoms: C_3  and  C_4
REMARK    3  A    between atoms: C_6  and  C_7
REMARK    4  A    between atoms: C_7  and  C_8
REMARK    5  A    between atoms: C_10  and  N_11
REMARK    6  A    between atoms: N_11  and  C_12
REMARK    7  A    between atoms: C_12  and  C_13
REMARK                            x       y       z     vdW  Elec       q    Type
REMARK                         _______ _______ _______ _____ _____    ______ ____
ROOT
ATOM      8  C   UNL     1      -2.191   1.486  24.987  0.00  0.00    +0.009 C 
ATOM      9  C   UNL     1      -2.865   1.030  24.852  0.00  0.00    +0.018 C 
ATOM     10  C   UNL     1      -2.410   0.343  24.911  0.00  0.00    +0.073 C 
ATOM     19  C   UNL     1      -1.737   0.800  25.046  0.00  0.00    +0.015 C 
ATOM     20  C   UNL     1      -1.139   0.240  25.135  0.00  0.00    +0.001 C 
ATOM     21  C   UNL     1      -0.977   1.084  25.191  0.00  0.00    +0.001 C 
ENDROOT
BRANCH   8   7
ATOM      7  C   UNL     1      -2.036   2.295  25.041  0.00  0.00    +0.049 C 
BRANCH   7   6
ATOM      4  C   UNL     1      -3.689   3.644  25.022  0.00  0.00    +0.184 A 
ATOM      5  C   UNL     1      -3.208   3.100  25.412  0.00  0.00    +0.056 A 
ATOM      6  C   UNL     1      -2.632   2.841  24.881  0.00  0.00    +0.100 A 
ATOM     22  N   UNL     1      -2.758   3.225  24.162  0.00  0.00    -0.082 NA
ATOM     23  O   UNL     1      -3.411   3.721  24.248  0.00  0.00    -0.356 OA
BRANCH   4   3
ATOM      3  C   UNL     1      -4.335   4.041  25.346  0.00  0.00    +0.209 C 
BRANCH   3   2
ATOM      1  C   UNL     1      -5.730   4.088  25.654  0.00  0.00    +0.175 C 
ATOM      2  O   UNL     1      -5.092   3.719  25.285  0.00  0.00    -0.343 OA
ENDBRANCH   3   2
ENDBRANCH   4   3
ENDBRANCH   7   6
ENDBRANCH   8   7
BRANCH  10  11
ATOM     11  N   UNL     1      -2.565  -0.465  24.857  0.00  0.00    -0.215 NA
BRANCH  11  12
ATOM     12  C   UNL     1      -3.342  -0.741  24.907  0.00  0.00    +0.116 C 
BRANCH  12  13
ATOM     13  C   UNL     1      -3.520  -1.516  24.688  0.00  0.00    +0.014 A 
ATOM     14  C   UNL     1      -3.960  -1.662  24.007  0.00  0.00    +0.000 A 
ATOM     15  C   UNL     1      -4.137  -2.437  23.788  0.00  0.00    +0.020 A 
ATOM     16  C   UNL     1      -3.874  -3.067  24.252  0.00  0.00    +0.099 A 
ATOM     17  N   UNL     1      -3.433  -2.921  24.934  0.00  0.00    -0.243 NA
ATOM     18  C   UNL     1      -3.256  -2.145  25.152  0.00  0.00    +0.096 A 
ENDBRANCH  12  13
ENDBRANCH  11  12
ENDBRANCH  10  11
TORSDOF 7
ENDMDL
