MODEL 1
REMARK VINA RESULT:     -11.5      0.000      0.000
REMARK  Name = 
REMARK  6 active torsions:
REMARK  status: ('A' for Active; 'I' for Inactive)
REMARK    1  A    between atoms: O_2  and  C_3
REMARK    2  A    between atoms: C_6  and  C_7
REMARK    3  A    between atoms: C_7  and  N_8
REMARK    4  A    between atoms: N_8  and  C_9
REMARK    5  A    between atoms: C_15  and  C_16
REMARK    6  A    between atoms: C_19  and  C_22
REMARK                            x       y       z     vdW  Elec       q    Type
REMARK                         _______ _______ _______ _____ _____    ______ ____
ROOT
ATOM      9  C   UNL     1      -4.319   1.960  24.936  0.00  0.00    +0.110 C 
ATOM     10  C   UNL     1      -5.083   2.188  25.143  0.00  0.00    +0.198 C 
ATOM     11  O   UNL     1      -5.741   1.693  25.198  0.00  0.00    -0.219 OA
ATOM     12  C   UNL     1      -5.076   3.001  25.285  0.00  0.00    +0.184 C 
ATOM     13  O   UNL     1      -5.725   3.461  25.508  0.00  0.00    -0.220 OA
ATOM     14  C   UNL     1      -4.307   3.274  25.166  0.00  0.00    +0.041 C 
ATOM     15  C   UNL     1      -3.838   2.630  24.950  0.00  0.00    +0.045 C 
ENDROOT
BRANCH  15  16
ATOM     16  C   UNL     1      -3.032   2.654  24.778  0.00  0.00    -0.002 A 
ATOM     17  C   UNL     1      -2.775   2.649  23.995  0.00  0.00    +0.094 A 
ATOM     18  N   UNL     1      -1.969   2.673  23.824  0.00  0.00    -0.240 NA
ATOM     19  C   UNL     1      -1.418   2.702  24.437  0.00  0.00    +0.153 A 
ATOM     20  C   UNL     1      -1.674   2.707  25.221  0.00  0.00    +0.023 A 
ATOM     21  C   UNL     1      -2.481   2.683  25.393  0.00  0.00    -0.001 A 
BRANCH  19  22
ATOM     22  C   UNL     1      -0.612   2.726  24.267  0.00  0.00    +0.435 C 
ATOM     23  F   UNL     1       0.196   2.750  24.097  0.00  0.00    -0.164 F 
ATOM     24  F   UNL     1      -0.598   1.903  24.209  0.00  0.00    -0.164 F 
ATOM     25  F   UNL     1      -0.624   3.548  24.325  0.00  0.00    -0.164 F 
ENDBRANCH  19  22
ENDBRANCH  15  16
BRANCH   9   8
ATOM      8  N   UNL     1      -4.076   1.193  24.747  0.00  0.00    -0.212 NA
BRANCH   8   7
ATOM      7  C   UNL     1      -4.470   0.545  25.071  0.00  0.00    +0.115 C 
BRANCH   7   6
ATOM      3  C   UNL     1      -3.594  -1.741  24.708  0.00  0.00    +0.139 A 
ATOM      4  C   UNL     1      -3.491  -1.370  25.438  0.00  0.00    +0.037 A 
ATOM      5  C   UNL     1      -3.782  -0.609  25.559  0.00  0.00    +0.000 A 
ATOM      6  C   UNL     1      -4.178  -0.217  24.950  0.00  0.00    -0.005 A 
ATOM     26  C   UNL     1      -4.281  -0.588  24.221  0.00  0.00    +0.000 A 
ATOM     27  C   UNL     1      -3.989  -1.349  24.100  0.00  0.00    +0.037 A 
BRANCH   3   2
ATOM      1  C   UNL     1      -2.494  -2.622  24.478  0.00  0.00    +0.252 C 
ATOM      2  O   UNL     1      -3.302  -2.503  24.588  0.00  0.00    -0.471 OA
ENDBRANCH   3   2
ENDBRANCH   7   6
ENDBRANCH   8   7
ENDBRANCH   9   8
TORSDOF 6
ENDMDL
MODEL 2
REMARK VINA RESULT:     -11.2      2.306      4.066
REMARK  Name = 
REMARK  6 active torsions:
REMARK  status: ('A' for Active; 'I' for Inactive)
REMARK    1  A    between atoms: O_2  and  C_3
REMARK    2  A    between atoms: C_6  and  C_7
REMARK    3  A    between atoms: C_7  and  N_8
REMARK    4  A    between atoms: N_8  and  C_9
REMARK    5  A    between atoms: C_15  and  C_16
REMARK    6  A    between atoms: C_19  and  C_22
REMARK                            x       y       z     vdW  Elec       q    Type
REMARK                         _______ _______ _______ _____ _____    ______ ____
ROOT
ATOM      9  C   UNL     1      -4.010   1.433  24.801  0.00  0.00    +0.110 C 
ATOM     10  C   UNL     1      -4.492   2.093  24.912  0.00  0.00    +0.198 C 
ATOM     11  O   UNL     1      -4.251   2.881  24.885  0.00  0.00    -0.219 OA
ATOM     12  C   UNL     1      -5.260   1.825  25.057  0.00  0.00    +0.184 C 
ATOM     13  O   UNL     1      -5.920   2.300  25.199  0.00  0.00    -0.220 OA
ATOM     14  C   UNL     1      -5.251   1.001  25.035  0.00  0.00    +0.041 C 
ATOM     15  C   UNL     1      -4.478   0.758  24.876  0.00  0.00    +0.045 C 
ENDROOT
BRANCH  15  16
ATOM     16  C   UNL     1      -4.220  -0.023  24.806  0.00  0.00    -0.002 A 
ATOM     17  C   UNL     1      -3.978  -0.440  25.474  0.00  0.00    +0.094 A 
ATOM     18  N   UNL     1      -3.721  -1.220  25.404  0.00  0.00    -0.240 NA
ATOM     19  C   UNL     1      -3.706  -1.584  24.663  0.00  0.00    +0.153 A 
ATOM     20  C   UNL     1      -3.948  -1.166  23.994  0.00  0.00    +0.023 A 
ATOM     21  C   UNL     1      -4.205  -0.386  24.064  0.00  0.00    -0.001 A 
BRANCH  19  22
ATOM     22  C   UNL     1      -3.448  -2.364  24.592  0.00  0.00    +0.435 C 
ATOM     23  F   UNL     1      -3.191  -3.145  24.520  0.00  0.00    -0.164 F 
ATOM     24  F   UNL     1      -2.687  -2.134  24.810  0.00  0.00    -0.164 F 
ATOM     25  F   UNL     1      -4.209  -2.594  24.374  0.00  0.00    -0.164 F 
ENDBRANCH  19  22
ENDBRANCH  15  16
BRANCH   9   8
ATOM      8  N   UNL     1      -3.200   1.446  24.642  0.00  0.00    -0.212 NA
BRANCH   8   7
ATOM      7  C   UNL     1      -2.745   2.095  24.870  0.00  0.00    +0.115 C 
BRANCH   7   6
ATOM      3  C   UNL     1      -0.291   2.060  24.552  0.00  0.00    +0.139 A 
ATOM      4  C   UNL     1      -0.611   1.976  25.307  0.00  0.00    +0.037 A 
ATOM      5  C   UNL     1      -1.428   1.988  25.413  0.00  0.00    +0.000 A 
ATOM      6  C   UNL     1      -1.927   2.083  24.764  0.00  0.00    -0.005 A 
ATOM     26  C   UNL     1      -1.608   2.168  24.008  0.00  0.00    +0.000 A 
ATOM     27  C   UNL     1      -0.791   2.156  23.902  0.00  0.00    +0.037 A 
BRANCH   3   2
ATOM      1  C   UNL     1       0.874   1.463  23.980  0.00  0.00    +0.252 C 
ATOM      2  O   UNL     1       0.527   2.048  24.445  0.00  0.00    -0.471 OA
ENDBRANCH   3   2
ENDBRANCH   7   6
ENDBRANCH   8   7
ENDBRANCH   9   8
TORSDOF 6
ENDMDL
MODEL 3
REMARK VINA RESULT:     -10.8      2.732      3.633
REMARK  Name = 
REMARK  6 active torsions:
REMARK  status: ('A' for Active; 'I' for Inactive)
REMARK    1  A    between atoms: O_2  and  C_3
REMARK    2  A    between atoms: C_6  and  C_7
REMARK    3  A    between atoms: C_7  and  N_8
REMARK    4  A    between atoms: N_8  and  C_9
REMARK    5  A    between atoms: C_15  and  C_16
REMARK    6  A    between atoms: C_19  and  C_22
REMARK                            x       y       z     vdW  Elec       q    Type
REMARK                         _______ _______ _______ _____ _____    ______ ____
ROOT
ATOM      9  C   UNL     1      -1.921   3.118  25.000  0.00  0.00    +0.110 C 
ATOM     10  C   UNL     1      -1.322   3.678  25.076  0.00  0.00    +0.198 C 
ATOM     11  O   UNL     1      -0.511   3.527  25.063  0.00  0.00    -0.219 OA
ATOM     12  C   UNL     1      -1.675   4.418  25.169  0.00  0.00    +0.184 C 
ATOM     13  O   UNL     1      -1.280   5.136  25.264  0.00  0.00    -0.220 OA
ATOM     14  C   UNL     1      -2.493   4.314  25.149  0.00  0.00    +0.041 C 
ATOM     15  C   UNL     1      -2.646   3.509  25.045  0.00  0.00    +0.045 C 
ENDROOT
BRANCH  15  16
ATOM     16  C   UNL     1      -3.392   3.161  24.995  0.00  0.00    -0.002 A 
ATOM     17  C   UNL     1      -3.813   2.985  25.681  0.00  0.00    +0.094 A 
ATOM     18  N   UNL     1      -4.558   2.637  25.630  0.00  0.00    -0.240 NA
ATOM     19  C   UNL     1      -4.883   2.463  24.892  0.00  0.00    +0.153 A 
ATOM     20  C   UNL     1      -4.462   2.638  24.205  0.00  0.00    +0.023 A 
ATOM     21  C   UNL     1      -3.716   2.987  24.255  0.00  0.00    -0.001 A 
BRANCH  19  22
ATOM     22  C   UNL     1      -5.629   2.114  24.840  0.00  0.00    +0.435 C 
ATOM     23  F   UNL     1      -6.375   1.765  24.789  0.00  0.00    -0.164 F 
ATOM     24  F   UNL     1      -5.980   2.831  25.050  0.00  0.00    -0.164 F 
ATOM     25  F   UNL     1      -5.279   1.398  24.631  0.00  0.00    -0.164 F 
ENDBRANCH  19  22
ENDBRANCH  15  16
BRANCH   9   8
ATOM      8  N   UNL     1      -1.816   2.305  24.896  0.00  0.00    -0.212 NA
BRANCH   8   7
ATOM      7  C   UNL     1      -1.116   1.946  25.143  0.00  0.00    +0.115 C 
BRANCH   7   6
ATOM      3  C   UNL     1      -0.826  -0.500  24.894  0.00  0.00    +0.139 A 
ATOM      4  C   UNL     1      -1.096  -0.186  25.608  0.00  0.00    +0.037 A 
ATOM      5  C   UNL     1      -1.193   0.628  25.691  0.00  0.00    +0.000 A 
ATOM      6  C   UNL     1      -1.019   1.131  25.060  0.00  0.00    -0.005 A 
ATOM     26  C   UNL     1      -0.749   0.817  24.346  0.00  0.00    +0.000 A 
ATOM     27  C   UNL     1      -0.653   0.003  24.264  0.00  0.00    +0.037 A 
BRANCH   3   2
ATOM      1  C   UNL     1      -1.381  -1.792  24.644  0.00  0.00    +0.252 C 
ATOM      2  O   UNL     1      -0.729  -1.315  24.812  0.00  0.00    -0.471 OA
ENDBRANCH   3   2
ENDBRANCH   7   6
ENDBRANCH   8   7
ENDBRANCH   9   8
TORSDOF 6
ENDMDL
