MODEL 1
REMARK VINA RESULT:     -11.0      0.000      0.000
REMARK  Name = 
REMARK  5 active torsions:
REMARK  status: ('A' for Active; 'I' for Inactive)
REMARK    1  A    between atoms: C_7  and  N_10
REMARK    2  A    between atoms: N_10  and  C_11
REMARK    3  A    between atoms: C_14  and  C_15
REMARK    4  A    between atoms: C_15  and  N_16
REMARK    5  A    between atoms: C_17  and  C_19
REMARK                            x       y       z     vdW  Elec       q    Type
REMARK                         _______ _______ _______ _____ _____    ______ ____
ROOT
ATOM     11  C   UNL     1      -4.327   0.851  24.617  0.00  0.00    +0.135 C 
ATOM     12  C   UNL     1      -3.709   0.981  24.085  0.00  0.00    +0.162 C 
ATOM     13  O   UNL     1      -3.418   1.742  24.215  0.00  0.00    -0.350 OA
ATOM     14  C   UNL     1      -3.856   2.082  24.826  0.00  0.00    +0.169 C 
ATOM     26  C   UNL     1      -4.418   1.531  25.074  0.00  0.00    +0.199 C 
ATOM     27  O   UNL     1      -4.973   1.641  25.675  0.00  0.00    -0.219 OA
ENDROOT
BRANCH  11  10
ATOM     10  N   UNL     1      -4.776   0.161  24.679  0.00  0.00    -0.216 NA
BRANCH  10   7
ATOM      1  C   UNL     1      -2.869  -3.061  25.203  0.00  0.00    +0.095 C 
ATOM      2  C   UNL     1      -3.297  -2.786  24.553  0.00  0.00    +0.226 C 
ATOM      3  O   UNL     1      -3.354  -3.248  23.872  0.00  0.00    -0.275 OA
ATOM      4  N   UNL     1      -3.666  -2.050  24.585  0.00  0.00    -0.279 N 
ATOM      5  C   UNL     1      -4.094  -1.775  23.935  0.00  0.00    +0.095 C 
ATOM      6  C   UNL     1      -4.464  -1.037  23.966  0.00  0.00    +0.039 C 
ATOM      7  C   UNL     1      -4.406  -0.576  24.648  0.00  0.00    +0.076 C 
ATOM      8  C   UNL     1      -3.978  -0.851  25.297  0.00  0.00    +0.039 C 
ATOM      9  C   UNL     1      -3.609  -1.587  25.266  0.00  0.00    +0.095 C 
ENDBRANCH  10   7
ENDBRANCH  11  10
BRANCH  14  15
ATOM     15  C   UNL     1      -3.751   2.840  25.135  0.00  0.00    +0.148 C 
BRANCH  15  16
ATOM     16  N   UNL     1      -3.058   3.258  24.972  0.00  0.00    -0.199 NA
ATOM     17  C   UNL     1      -2.840   3.896  25.449  0.00  0.00    +0.265 C 
ATOM     18  O   UNL     1      -3.314   4.114  26.088  0.00  0.00    -0.268 OA
BRANCH  17  19
ATOM     19  C   UNL     1      -2.148   4.314  25.287  0.00  0.00    +0.055 A 
ATOM     20  C   UNL     1      -1.428   3.915  25.231  0.00  0.00    +0.007 A 
ATOM     21  C   UNL     1      -0.736   4.333  25.069  0.00  0.00    +0.030 A 
ATOM     22  C   UNL     1      -0.764   5.152  24.963  0.00  0.00    +0.140 A 
ATOM     23  F   UNL     1      -0.071   5.570  24.801  0.00  0.00    -0.204 F 
ATOM     24  C   UNL     1      -1.483   5.550  25.019  0.00  0.00    +0.030 A 
ATOM     25  C   UNL     1      -2.175   5.132  25.181  0.00  0.00    +0.007 A 
ENDBRANCH  17  19
ENDBRANCH  15  16
ENDBRANCH  14  15
TORSDOF 5
ENDMDL
MODEL 2
REMARK VINA RESULT:     -10.5      2.703      6.294
REMARK  Name = 
REMARK  5 active torsions:
REMARK  status: ('A' for Active; 'I' for Inactive)
REMARK    1  A    between atoms: C_7  and  N_10
REMARK    2  A    between atoms: N_10  and  C_11
REMARK    3  A    between atoms: C_14  and  C_15
REMARK    4  A    between atoms: C_15  and  N_16
REMARK    5  A    between atoms: C_17  and  C_19
REMARK                            x       y       z     vdW  Elec       q    Type
REMARK                         _______ _______ _______ _____ _____    ______ ____
ROOT
ATOM     11  C   UNL     1      -0.466   1.293  25.180  0.00  0.00    +0.135 C 
ATOM     12  C   UNL     1      -0.576   1.281  24.362  0.00  0.00    +0.162 C 
ATOM     13  O   UNL     1      -0.842   0.529  24.152  0.00  0.00    -0.350 OA
ATOM     14  C   UNL     1      -0.896   0.076  24.840  0.00  0.00    +0.169 C 
ATOM     26  C   UNL     1      -0.664   0.548  25.475  0.00  0.00    +0.199 C 
ATOM     27  O   UNL     1      -0.634   0.316  26.266  0.00  0.00    -0.219 OA
ENDROOT
BRANCH  11  10
ATOM     10  N   UNL     1      -0.204   1.936  25.625  0.00  0.00    -0.216 NA
BRANCH  10   7
ATOM      1  C   UNL     1      -1.312   5.454  24.791  0.00  0.00    +0.095 C 
ATOM      2  C   UNL     1      -1.653   4.881  25.277  0.00  0.00    +0.226 C 
ATOM      3  O   UNL     1      -2.356   5.045  25.677  0.00  0.00    -0.275 OA
ATOM      4  N   UNL     1      -1.291   4.146  25.364  0.00  0.00    -0.279 N 
ATOM      5  C   UNL     1      -1.632   3.573  25.850  0.00  0.00    +0.095 C 
ATOM      6  C   UNL     1      -1.269   2.836  25.938  0.00  0.00    +0.039 C 
ATOM      7  C   UNL     1      -0.566   2.673  25.538  0.00  0.00    +0.076 C 
ATOM      8  C   UNL     1      -0.225   3.246  25.052  0.00  0.00    +0.039 C 
ATOM      9  C   UNL     1      -0.587   3.981  24.965  0.00  0.00    +0.095 C 
ENDBRANCH  10   7
ENDBRANCH  11  10
BRANCH  14  15
ATOM     15  C   UNL     1      -1.139  -0.711  24.884  0.00  0.00    +0.148 C 
BRANCH  15  16
ATOM     16  N   UNL     1      -1.893  -0.925  24.623  0.00  0.00    -0.199 NA
ATOM     17  C   UNL     1      -2.139  -1.711  24.673  0.00  0.00    +0.265 C 
ATOM     18  O   UNL     1      -1.632  -2.283  24.984  0.00  0.00    -0.268 OA
BRANCH  17  19
ATOM     19  C   UNL     1      -2.891  -1.925  24.412  0.00  0.00    +0.055 A 
ATOM     20  C   UNL     1      -3.456  -1.343  24.259  0.00  0.00    +0.007 A 
ATOM     21  C   UNL     1      -4.208  -1.557  23.998  0.00  0.00    +0.030 A 
ATOM     22  C   UNL     1      -4.397  -2.354  23.890  0.00  0.00    +0.140 A 
ATOM     23  F   UNL     1      -5.150  -2.568  23.629  0.00  0.00    -0.204 F 
ATOM     24  C   UNL     1      -3.833  -2.935  24.044  0.00  0.00    +0.030 A 
ATOM     25  C   UNL     1      -3.080  -2.721  24.304  0.00  0.00    +0.007 A 
ENDBRANCH  17  19
ENDBRANCH  15  16
ENDBRANCH  14  15
TORSDOF 5
ENDMDL
MODEL 3
REMARK VINA RESULT:      -9.9      2.012      2.490
REMARK  Name = 
REMARK  5 active torsions:
REMARK  status: ('A' for Active; 'I' for Inactive)
REMARK    1  A    between atoms: C_7  and  N_10
REMARK    2  A    between atoms: N_10  and  C_11
REMARK    3  A    between atoms: C_14  and  C_15
REMARK    4  A    between atoms: C_15  and  N_16
REMARK    5  A    between atoms: C_17  and  C_19
REMARK                            x       y       z     vdW  Elec       q    Type
REMARK                         _______ _______ _______ _____ _____    ______ ____
ROOT
ATOM     11  C   UNL     1      -1.229  -0.412  25.172  0.00  0.00    +0.135 C 
ATOM     12  C   UNL     1      -1.166  -0.142  24.394  0.00  0.00    +0.162 C 
ATOM     13  O   UNL     1      -0.840   0.615  24.414  0.00  0.00    -0.350 OA
ATOM     14  C   UNL     1      -0.702   0.813  25.203  0.00  0.00    +0.169 C 
ATOM     26  C   UNL     1      -0.943   0.179  25.671  0.00  0.00    +0.199 C 
ATOM     27  O   UNL     1      -0.903   0.141  26.494  0.00  0.00    -0.219 OA
ENDROOT
BRANCH  11  10
ATOM     10  N   UNL     1      -1.527  -1.144  25.408  0.00  0.00    -0.216 NA
BRANCH  10   7
ATOM      1  C   UNL     1      -4.139  -3.096  23.494  0.00  0.00    +0.095 C 
ATOM      2  C   UNL     1      -4.197  -2.396  23.927  0.00  0.00    +0.226 C 
ATOM      3  O   UNL     1      -4.923  -2.010  23.988  0.00  0.00    -0.275 OA
ATOM      4  N   UNL     1      -3.530  -2.084  24.297  0.00  0.00    -0.279 N 
ATOM      5  C   UNL     1      -3.588  -1.384  24.729  0.00  0.00    +0.095 C 
ATOM      6  C   UNL     1      -2.921  -1.070  25.100  0.00  0.00    +0.039 C 
ATOM      7  C   UNL     1      -2.195  -1.458  25.038  0.00  0.00    +0.076 C 
ATOM      8  C   UNL     1      -2.137  -2.158  24.605  0.00  0.00    +0.039 C 
ATOM      9  C   UNL     1      -2.804  -2.470  24.235  0.00  0.00    +0.095 C 
ENDBRANCH  10   7
ENDBRANCH  11  10
BRANCH  14  15
ATOM     15  C   UNL     1      -0.380   1.523  25.475  0.00  0.00    +0.148 C 
BRANCH  15  16
ATOM     16  N   UNL     1      -0.750   2.239  25.296  0.00  0.00    -0.199 NA
ATOM     17  C   UNL     1      -0.454   2.944  25.607  0.00  0.00    +0.265 C 
ATOM     18  O   UNL     1       0.210   2.933  26.096  0.00  0.00    -0.268 OA
BRANCH  17  19
ATOM     19  C   UNL     1      -0.823   3.660  25.428  0.00  0.00    +0.055 A 
ATOM     20  C   UNL     1      -1.582   3.814  25.710  0.00  0.00    +0.007 A 
ATOM     21  C   UNL     1      -1.951   4.530  25.531  0.00  0.00    +0.030 A 
ATOM     22  C   UNL     1      -1.560   5.092  25.070  0.00  0.00    +0.140 A 
ATOM     23  F   UNL     1      -1.929   5.808  24.892  0.00  0.00    -0.204 F 
ATOM     24  C   UNL     1      -0.801   4.937  24.788  0.00  0.00    +0.030 A 
ATOM     25  C   UNL     1      -0.432   4.222  24.967  0.00  0.00    +0.007 A 
ENDBRANCH  17  19
ENDBRANCH  15  16
ENDBRANCH  14  15
TORSDOF 5
ENDMDL
MODEL 4
REMARK VINA RESULT:      -9.3      2.096      5.855
REMARK  Name = 
REMARK  5 active torsions:
REMARK  status: ('A' for Active; 'I' for Inactive)
REMARK    1  A    between atoms: C_7  and  N_10
REMARK    2  A    between atoms: N_10  and  C_11
REMARK    3  A    between atoms: C_14  and  C_15
REMARK    4  A    between atoms: C_15  and  N_16
REMARK    5  A    between atoms: C_17  and  C_19
REMARK                            x       y       z     vdW  Elec       q    Type
REMARK                         _______ _______ _______ _____ _____    ______ ____
ROOT
ATOM     11  C   UNL     1      -3.904   2.597  24.743  0.00  0.00    +0.135 C 
ATOM     12  C   UNL     1      -3.590   2.414  24.002  0.00  0.00    +0.162 C 
ATOM     13  O   UNL     1      -3.830   1.650  23.806  0.00  0.00    -0.350 OA
ATOM     14  C   UNL     1      -4.292   1.361  24.426  0.00  0.00    +0.169 C 
ATOM     26  C   UNL     1      -4.337   1.946  25.004  0.00  0.00    +0.199 C 
ATOM     27  O   UNL     1      -4.745   1.891  25.720  0.00  0.00    -0.219 OA
ENDROOT
BRANCH  11  10
ATOM     10  N   UNL     1      -3.802   3.308  25.150  0.00  0.00    -0.216 NA
BRANCH  10   7
ATOM      1  C   UNL     1      -0.808   5.562  24.649  0.00  0.00    +0.095 C 
ATOM      2  C   UNL     1      -0.888   4.854  25.066  0.00  0.00    +0.226 C 
ATOM      3  O   UNL     1      -0.238   4.534  25.461  0.00  0.00    -0.275 OA
ATOM      4  N   UNL     1      -1.616   4.468  25.086  0.00  0.00    -0.279 N 
ATOM      5  C   UNL     1      -1.695   3.760  25.503  0.00  0.00    +0.095 C 
ATOM      6  C   UNL     1      -2.424   3.373  25.524  0.00  0.00    +0.039 C 
ATOM      7  C   UNL     1      -3.073   3.695  25.129  0.00  0.00    +0.076 C 
ATOM      8  C   UNL     1      -2.993   4.403  24.712  0.00  0.00    +0.039 C 
ATOM      9  C   UNL     1      -2.266   4.789  24.691  0.00  0.00    +0.095 C 
ENDBRANCH  10   7
ENDBRANCH  11  10
BRANCH  14  15
ATOM     15  C   UNL     1      -4.646   0.616  24.461  0.00  0.00    +0.148 C 
BRANCH  15  16
ATOM     16  N   UNL     1      -4.176  -0.061  24.524  0.00  0.00    -0.199 NA
ATOM     17  C   UNL     1      -4.514  -0.807  24.420  0.00  0.00    +0.265 C 
ATOM     18  O   UNL     1      -5.319  -0.876  24.253  0.00  0.00    -0.268 OA
BRANCH  17  19
ATOM     19  C   UNL     1      -4.046  -1.483  24.483  0.00  0.00    +0.055 A 
ATOM     20  C   UNL     1      -4.082  -2.066  23.901  0.00  0.00    +0.007 A 
ATOM     21  C   UNL     1      -3.615  -2.742  23.964  0.00  0.00    +0.030 A 
ATOM     22  C   UNL     1      -3.110  -2.836  24.610  0.00  0.00    +0.140 A 
ATOM     23  F   UNL     1      -2.641  -3.513  24.673  0.00  0.00    -0.204 F 
ATOM     24  C   UNL     1      -3.073  -2.253  25.192  0.00  0.00    +0.030 A 
ATOM     25  C   UNL     1      -3.541  -1.577  25.129  0.00  0.00    +0.007 A 
ENDBRANCH  17  19
ENDBRANCH  15  16
ENDBRANCH  14  15
TORSDOF 5
ENDMDL
MODEL 5
REMARK VINA RESULT:      -8.8      4.594      5.776
REMARK  Name = 
REMARK  5 active torsions:
REMARK  status: ('A' for Active; 'I' for Inactive)
REMARK    1  A    between atoms: C_7  and  N_10
REMARK    2  A    between atoms: N_10  and  C_11
REMARK    3  A    between atoms: C_14  and  C_15
REMARK    4  A    between atoms: C_15  and  N_16
REMARK    5  A    between atoms: C_17  and  C_19
REMARK                            x       y       z     vdW  Elec       q    Type
REMARK                         _______ _______ _______ _____ _____    ______ ____
ROOT
ATOM     11  C   UNL     1      -0.579   0.718  24.244  0.00  0.00    +0.135 C 
ATOM     12  C   UNL     1      -0.177   1.438  24.204  0.00  0.00    +0.162 C 
ATOM     13  O   UNL     1       0.494   1.328  23.738  0.00  0.00    -0.350 OA
ATOM     14  C   UNL     1       0.508   0.541  23.492  0.00  0.00    +0.169 C 
ATOM     26  C   UNL     1      -0.155   0.164  23.804  0.00  0.00    +0.199 C 
ATOM     27  O   UNL     1      -0.359  -0.628  23.696  0.00  0.00    -0.219 OA
ENDROOT
BRANCH  11  10
ATOM     10  N   UNL     1      -1.282   0.577  24.654  0.00  0.00    -0.216 NA
BRANCH  10   7
ATOM      1  C   UNL     1      -3.774   3.397  25.013  0.00  0.00    +0.095 C 
ATOM      2  C   UNL     1      -3.752   2.759  24.491  0.00  0.00    +0.226 C 
ATOM      3  O   UNL     1      -4.348   2.668  23.927  0.00  0.00    -0.275 OA
ATOM      4  N   UNL     1      -3.135   2.214  24.531  0.00  0.00    -0.279 N 
ATOM      5  C   UNL     1      -3.113   1.577  24.009  0.00  0.00    +0.095 C 
ATOM      6  C   UNL     1      -2.495   1.031  24.049  0.00  0.00    +0.039 C 
ATOM      7  C   UNL     1      -1.900   1.123  24.613  0.00  0.00    +0.076 C 
ATOM      8  C   UNL     1      -1.922   1.761  25.136  0.00  0.00    +0.039 C 
ATOM      9  C   UNL     1      -2.539   2.306  25.095  0.00  0.00    +0.095 C 
ENDBRANCH  10   7
ENDBRANCH  11  10
BRANCH  14  15
ATOM     15  C   UNL     1       1.085   0.192  23.015  0.00  0.00    +0.148 C 
BRANCH  15  16
ATOM     16  N   UNL     1       1.884   0.283  23.202  0.00  0.00    -0.199 NA
ATOM     17  C   UNL     1       2.461   0.100  22.641  0.00  0.00    +0.265 C 
ATOM     18  O   UNL     1       2.240  -0.172  21.894  0.00  0.00    -0.268 OA
BRANCH  17  19
ATOM     19  C   UNL     1       3.259   0.191  22.827  0.00  0.00    +0.055 A 
ATOM     20  C   UNL     1       3.649   0.894  22.643  0.00  0.00    +0.007 A 
ATOM     21  C   UNL     1       4.447   0.985  22.829  0.00  0.00    +0.030 A 
ATOM     22  C   UNL     1       4.857   0.371  23.199  0.00  0.00    +0.140 A 
ATOM     23  F   UNL     1       5.656   0.462  23.385  0.00  0.00    -0.204 F 
ATOM     24  C   UNL     1       4.468  -0.332  23.382  0.00  0.00    +0.030 A 
ATOM     25  C   UNL     1       3.669  -0.423  23.196  0.00  0.00    +0.007 A 
ENDBRANCH  17  19
ENDBRANCH  15  16
ENDBRANCH  14  15
TORSDOF 5
ENDMDL
MODEL 6
REMARK VINA RESULT:      -8.5      2.265      2.853
REMARK  Name = 
REMARK  5 active torsions:
REMARK  status: ('A' for Active; 'I' for Inactive)
REMARK    1  A    between atoms: C_7  and  N_10
REMARK    2  A    between atoms: N_10  and  C_11
REMARK    3  A    between atoms: C_14  and  C_15
REMARK    4  A    between atoms: C_15  and  N_16
REMARK    5  A    between atoms: C_17  and  C_19
REMARK                            x       y       z     vdW  Elec       q    Type
REMARK                         _______ _______ _______ _____ _____    ______ ____
ROOT
ATOM     11  C   UNL     1      -0.678   0.455  24.732  0.00  0.00    +0.135 C 
ATOM     12  C   UNL     1      -0.675   0.668  23.934  0.00  0.00    +0.162 C 
ATOM     13  O   UNL     1      -0.867   1.468  23.883  0.00  0.00    -0.350 OA
ATOM     14  C   UNL     1      -0.990   1.750  24.649  0.00  0.00    +0.169 C 
ATOM     26  C   UNL     1      -0.873   1.124  25.173  0.00  0.00    +0.199 C 
ATOM     27  O   UNL     1      -0.939   1.161  25.995  0.00  0.00    -0.219 OA
ENDROOT
BRANCH  11  10
ATOM     10  N   UNL     1      -0.516  -0.295  25.035  0.00  0.00    -0.216 NA
BRANCH  10   7
ATOM      1  C   UNL     1      -3.323  -2.825  24.945  0.00  0.00    +0.095 C 
ATOM      2  C   UNL     1      -2.623  -2.779  24.510  0.00  0.00    +0.226 C 
ATOM      3  O   UNL     1      -2.451  -3.355  23.944  0.00  0.00    -0.275 OA
ATOM      4  N   UNL     1      -2.097  -2.159  24.641  0.00  0.00    -0.279 N 
ATOM      5  C   UNL     1      -1.397  -2.113  24.207  0.00  0.00    +0.095 C 
ATOM      6  C   UNL     1      -0.870  -1.491  24.338  0.00  0.00    +0.039 C 
ATOM      7  C   UNL     1      -1.043  -0.916  24.904  0.00  0.00    +0.076 C 
ATOM      8  C   UNL     1      -1.743  -0.962  25.338  0.00  0.00    +0.039 C 
ATOM      9  C   UNL     1      -2.269  -1.583  25.207  0.00  0.00    +0.095 C 
ENDBRANCH  10   7
ENDBRANCH  11  10
BRANCH  14  15
ATOM     15  C   UNL     1      -1.193   2.523  24.854  0.00  0.00    +0.148 C 
BRANCH  15  16
ATOM     16  N   UNL     1      -1.986   2.724  24.966  0.00  0.00    -0.199 NA
ATOM     17  C   UNL     1      -2.203   3.517  25.040  0.00  0.00    +0.265 C 
ATOM     18  O   UNL     1      -1.628   4.108  25.002  0.00  0.00    -0.268 OA
BRANCH  17  19
ATOM     19  C   UNL     1      -2.995   3.719  25.152  0.00  0.00    +0.055 A 
ATOM     20  C   UNL     1      -3.506   3.758  24.507  0.00  0.00    +0.007 A 
ATOM     21  C   UNL     1      -4.298   3.960  24.619  0.00  0.00    +0.030 A 
ATOM     22  C   UNL     1      -4.579   4.123  25.378  0.00  0.00    +0.140 A 
ATOM     23  F   UNL     1      -5.371   4.325  25.490  0.00  0.00    -0.204 F 
ATOM     24  C   UNL     1      -4.067   4.084  26.024  0.00  0.00    +0.030 A 
ATOM     25  C   UNL     1      -3.276   3.882  25.911  0.00  0.00    +0.007 A 
ENDBRANCH  17  19
ENDBRANCH  15  16
ENDBRANCH  14  15
TORSDOF 5
ENDMDL
