MODEL 1
REMARK VINA RESULT:     -10.1      0.000      0.000
REMARK  Name = 
REMARK  5 active torsions:
REMARK  status: ('A' for Active; 'I' for Inactive)
REMARK    1  A    between atoms: C_2  and  O_10
REMARK    2  A    between atoms: N_3  and  C_4
REMARK    3  A    between atoms: O_10  and  C_11
REMARK    4  A    between atoms: C_15  and  N_19
REMARK    5  A    between atoms: C_22  and  C_26
REMARK                            x       y       z     vdW  Elec       q    Type
REMARK                         _______ _______ _______ _____ _____    ______ ____
ROOT
ATOM     11  C   UNL     1       0.984   0.527  23.319  0.00  0.00    +0.229 C 
ATOM     12  C   UNL     1       0.975   1.337  23.475  0.00  0.00    +0.188 C 
ATOM     13  O   UNL     1       0.277   1.512  23.877  0.00  0.00    -0.348 OA
ATOM     14  C   UNL     1      -0.147   0.810  23.969  0.00  0.00    +0.168 C 
ATOM     15  C   UNL     1      -0.841   0.485  24.275  0.00  0.00    +0.155 C 
ATOM     16  C   UNL     1      -0.833  -0.325  24.119  0.00  0.00    +0.166 C 
ATOM     17  O   UNL     1      -0.134  -0.500  23.718  0.00  0.00    -0.348 OA
ATOM     18  C   UNL     1       0.290   0.201  23.625  0.00  0.00    +0.186 C 
ENDROOT
BRANCH  15  19
ATOM     19  N   UNL     1      -1.438   0.898  24.667  0.00  0.00    -0.200 NA
ATOM     20  C   UNL     1      -2.202   0.914  24.354  0.00  0.00    +0.237 A 
ATOM     21  N   UNL     1      -2.799   1.327  24.747  0.00  0.00    -0.212 NA
ATOM     22  C   UNL     1      -3.563   1.343  24.434  0.00  0.00    +0.086 A 
ATOM     23  C   UNL     1      -3.729   0.946  23.730  0.00  0.00    +0.040 A 
ATOM     24  C   UNL     1      -3.132   0.534  23.338  0.00  0.00    +0.103 A 
ATOM     25  N   UNL     1      -2.368   0.518  23.650  0.00  0.00    -0.211 NA
BRANCH  22  26
ATOM     26  C   UNL     1      -4.160   1.755  24.826  0.00  0.00    +0.021 A 
ATOM     27  C   UNL     1      -4.168   2.580  24.814  0.00  0.00    +0.042 A 
ATOM     28  C   UNL     1      -4.765   2.993  25.206  0.00  0.00    +0.176 A 
ATOM     29  C   UNL     1      -5.354   2.580  25.610  0.00  0.00    +0.176 A 
ATOM     30  O   UNL     1      -5.868   3.132  25.944  0.00  0.00    -0.435 OA
ATOM     31  C   UNL     1      -5.597   3.885  25.746  0.00  0.00    +0.429 C 
ATOM     32  O   UNL     1      -4.916   3.799  25.290  0.00  0.00    -0.435 OA
ATOM     33  C   UNL     1      -5.346   1.755  25.623  0.00  0.00    +0.040 A 
ATOM     34  C   UNL     1      -4.749   1.343  25.230  0.00  0.00    +0.005 A 
ENDBRANCH  22  26
ENDBRANCH  15  19
BRANCH  11  10
ATOM     10  O   UNL     1       1.581   0.114  22.928  0.00  0.00    -0.432 OA
BRANCH  10   2
ATOM      1  O   UNL     1       2.582   1.012  23.410  0.00  0.00    -0.224 OA
ATOM      2  C   UNL     1       2.372   0.282  23.089  0.00  0.00    +0.425 C 
ATOM      3  N   UNL     1       2.954  -0.281  22.928  0.00  0.00    -0.142 NA
BRANCH   3   4
ATOM      4  C   UNL     1       3.745  -0.113  23.089  0.00  0.00    +0.077 A 
ATOM      5  C   UNL     1       4.114   0.529  22.725  0.00  0.00    +0.017 A 
ATOM      6  C   UNL     1       4.905   0.697  22.886  0.00  0.00    +0.001 A 
ATOM      7  C   UNL     1       5.329   0.223  23.412  0.00  0.00    +0.000 A 
ATOM      8  C   UNL     1       4.961  -0.419  23.777  0.00  0.00    +0.001 A 
ATOM      9  C   UNL     1       4.170  -0.587  23.616  0.00  0.00    +0.017 A 
ENDBRANCH   3   4
ENDBRANCH  10   2
ENDBRANCH  11  10
TORSDOF 5
ENDMDL
MODEL 2
REMARK VINA RESULT:     -10.0      1.396      7.515
REMARK  Name = 
REMARK  5 active torsions:
REMARK  status: ('A' for Active; 'I' for Inactive)
REMARK    1  A    between atoms: C_2  and  O_10
REMARK    2  A    between atoms: N_3  and  C_4
REMARK    3  A    between atoms: O_10  and  C_11
REMARK    4  A    between atoms: C_15  and  N_19
REMARK    5  A    between atoms: C_22  and  C_26
REMARK                            x       y       z     vdW  Elec       q    Type
REMARK                         _______ _______ _______ _____ _____    ______ ____
ROOT
ATOM     11  C   UNL     1      -2.136   1.536  23.825  0.00  0.00    +0.229 C 
ATOM     12  C   UNL     1      -1.737   2.256  23.877  0.00  0.00    +0.188 C 
ATOM     13  O   UNL     1      -0.929   2.097  23.922  0.00  0.00    -0.348 OA
ATOM     14  C   UNL     1      -0.829   1.279  23.898  0.00  0.00    +0.168 C 
ATOM     15  C   UNL     1      -0.266   0.674  23.912  0.00  0.00    +0.155 C 
ATOM     16  C   UNL     1      -0.666  -0.046  23.861  0.00  0.00    +0.166 C 
ATOM     17  O   UNL     1      -1.474   0.114  23.815  0.00  0.00    -0.348 OA
ATOM     18  C   UNL     1      -1.575   0.931  23.839  0.00  0.00    +0.186 C 
ENDROOT
BRANCH  15  19
ATOM     19  N   UNL     1       0.550   0.773  23.967  0.00  0.00    -0.200 NA
ATOM     20  C   UNL     1       1.046   0.433  23.402  0.00  0.00    +0.237 A 
ATOM     21  N   UNL     1       1.864   0.531  23.456  0.00  0.00    -0.212 NA
ATOM     22  C   UNL     1       2.359   0.191  22.891  0.00  0.00    +0.086 A 
ATOM     23  C   UNL     1       2.036  -0.248  22.272  0.00  0.00    +0.040 A 
ATOM     24  C   UNL     1       1.220  -0.347  22.217  0.00  0.00    +0.103 A 
ATOM     25  N   UNL     1       0.724  -0.007  22.782  0.00  0.00    -0.211 NA
BRANCH  22  26
ATOM     26  C   UNL     1       3.176   0.290  22.946  0.00  0.00    +0.021 A 
ATOM     27  C   UNL     1       3.634  -0.274  23.335  0.00  0.00    +0.042 A 
ATOM     28  C   UNL     1       4.452  -0.176  23.390  0.00  0.00    +0.176 A 
ATOM     29  C   UNL     1       4.810   0.488  23.056  0.00  0.00    +0.176 A 
ATOM     30  O   UNL     1       5.621   0.437  23.196  0.00  0.00    -0.435 OA
ATOM     31  C   UNL     1       5.764  -0.257  23.617  0.00  0.00    +0.429 C 
ATOM     32  O   UNL     1       5.041  -0.636  23.737  0.00  0.00    -0.435 OA
ATOM     33  C   UNL     1       4.351   1.053  22.667  0.00  0.00    +0.040 A 
ATOM     34  C   UNL     1       3.534   0.953  22.612  0.00  0.00    +0.005 A 
ENDBRANCH  22  26
ENDBRANCH  15  19
BRANCH  11  10
ATOM     10  O   UNL     1      -2.953   1.437  23.770  0.00  0.00    -0.432 OA
BRANCH  10   2
ATOM      1  O   UNL     1      -3.184   1.866  25.113  0.00  0.00    -0.224 OA
ATOM      2  C   UNL     1      -3.448   1.774  24.338  0.00  0.00    +0.425 C 
ATOM      3  N   UNL     1      -4.208   2.020  24.128  0.00  0.00    -0.142 NA
BRANCH   3   4
ATOM      4  C   UNL     1      -4.703   2.357  24.695  0.00  0.00    +0.077 A 
ATOM      5  C   UNL     1      -5.264   1.892  25.082  0.00  0.00    +0.017 A 
ATOM      6  C   UNL     1      -5.759   2.229  25.649  0.00  0.00    +0.001 A 
ATOM      7  C   UNL     1      -5.694   3.031  25.831  0.00  0.00    +0.000 A 
ATOM      8  C   UNL     1      -5.132   3.497  25.444  0.00  0.00    +0.001 A 
ATOM      9  C   UNL     1      -4.637   3.160  24.877  0.00  0.00    +0.017 A 
ENDBRANCH   3   4
ENDBRANCH  10   2
ENDBRANCH  11  10
TORSDOF 5
ENDMDL
MODEL 3
REMARK VINA RESULT:      -8.9      2.258      7.197
REMARK  Name = 
REMARK  5 active torsions:
REMARK  status: ('A' for Active; 'I' for Inactive)
REMARK    1  A    between atoms: C_2  and  O_10
REMARK    2  A    between atoms: N_3  and  C_4
REMARK    3  A    between atoms: O_10  and  C_11
REMARK    4  A    between atoms: C_15  and  N_19
REMARK    5  A    between atoms: C_22  and  C_26
REMARK                            x       y       z     vdW  Elec       q    Type
REMARK                         _______ _______ _______ _____ _____    ______ ____
ROOT
ATOM     11  C   UNL     1      -1.822   0.501  24.875  0.00  0.00    +0.229 C 
ATOM     12  C   UNL     1      -1.353   0.223  25.494  0.00  0.00    +0.188 C 
ATOM     13  O   UNL     1      -0.564   0.376  25.305  0.00  0.00    -0.348 OA
ATOM     14  C   UNL     1      -0.547   0.749  24.570  0.00  0.00    +0.168 C 
ATOM     15  C   UNL     1      -0.047   1.073  23.998  0.00  0.00    +0.155 C 
ATOM     16  C   UNL     1      -0.516   1.351  23.379  0.00  0.00    +0.166 C 
ATOM     17  O   UNL     1      -1.305   1.198  23.568  0.00  0.00    -0.348 OA
ATOM     18  C   UNL     1      -1.323   0.826  24.303  0.00  0.00    +0.186 C 
ENDROOT
BRANCH  15  19
ATOM     19  N   UNL     1       0.775   1.113  24.039  0.00  0.00    -0.200 NA
ATOM     20  C   UNL     1       1.236   0.703  23.491  0.00  0.00    +0.237 A 
ATOM     21  N   UNL     1       2.059   0.742  23.531  0.00  0.00    -0.212 NA
ATOM     22  C   UNL     1       2.520   0.332  22.983  0.00  0.00    +0.086 A 
ATOM     23  C   UNL     1       2.156  -0.117  22.394  0.00  0.00    +0.040 A 
ATOM     24  C   UNL     1       1.334  -0.157  22.353  0.00  0.00    +0.103 A 
ATOM     25  N   UNL     1       0.873   0.253  22.901  0.00  0.00    -0.211 NA
BRANCH  22  26
ATOM     26  C   UNL     1       3.342   0.372  23.023  0.00  0.00    +0.021 A 
ATOM     27  C   UNL     1       3.764  -0.218  23.415  0.00  0.00    +0.042 A 
ATOM     28  C   UNL     1       4.588  -0.179  23.456  0.00  0.00    +0.176 A 
ATOM     29  C   UNL     1       4.988   0.451  23.105  0.00  0.00    +0.176 A 
ATOM     30  O   UNL     1       5.795   0.344  23.234  0.00  0.00    -0.435 OA
ATOM     31  C   UNL     1       5.894  -0.352  23.665  0.00  0.00    +0.429 C 
ATOM     32  O   UNL     1       5.148  -0.675  23.802  0.00  0.00    -0.435 OA
ATOM     33  C   UNL     1       4.565   1.042  22.712  0.00  0.00    +0.040 A 
ATOM     34  C   UNL     1       3.742   1.002  22.672  0.00  0.00    +0.005 A 
ENDBRANCH  22  26
ENDBRANCH  15  19
BRANCH  11  10
ATOM     10  O   UNL     1      -2.644   0.462  24.834  0.00  0.00    -0.432 OA
BRANCH  10   2
ATOM      1  O   UNL     1      -3.303  -0.580  25.556  0.00  0.00    -0.224 OA
ATOM      2  C   UNL     1      -3.023  -0.271  24.845  0.00  0.00    +0.425 C 
ATOM      3  N   UNL     1      -3.121  -0.694  24.143  0.00  0.00    -0.142 NA
BRANCH   3   4
ATOM      4  C   UNL     1      -3.500  -1.427  24.153  0.00  0.00    +0.077 A 
ATOM      5  C   UNL     1      -4.275  -1.495  23.879  0.00  0.00    +0.017 A 
ATOM      6  C   UNL     1      -4.653  -2.228  23.890  0.00  0.00    +0.001 A 
ATOM      7  C   UNL     1      -4.257  -2.894  24.174  0.00  0.00    +0.000 A 
ATOM      8  C   UNL     1      -3.482  -2.826  24.448  0.00  0.00    +0.001 A 
ATOM      9  C   UNL     1      -3.103  -2.093  24.438  0.00  0.00    +0.017 A 
ENDBRANCH   3   4
ENDBRANCH  10   2
ENDBRANCH  11  10
TORSDOF 5
ENDMDL
MODEL 4
REMARK VINA RESULT:      -8.3      2.285      3.046
REMARK  Name = 
REMARK  5 active torsions:
REMARK  status: ('A' for Active; 'I' for Inactive)
REMARK    1  A    between atoms: C_2  and  O_10
REMARK    2  A    between atoms: N_3  and  C_4
REMARK    3  A    between atoms: O_10  and  C_11
REMARK    4  A    between atoms: C_15  and  N_19
REMARK    5  A    between atoms: C_22  and  C_26
REMARK                            x       y       z     vdW  Elec       q    Type
REMARK                         _______ _______ _______ _____ _____    ______ ____
ROOT
ATOM     11  C   UNL     1       2.377   0.840  23.014  0.00  0.00    +0.229 C 
ATOM     12  C   UNL     1       2.214   0.200  22.520  0.00  0.00    +0.188 C 
ATOM     13  O   UNL     1       1.412   0.020  22.592  0.00  0.00    -0.348 OA
ATOM     14  C   UNL     1       1.080   0.549  23.131  0.00  0.00    +0.168 C 
ATOM     15  C   UNL     1       0.378   0.764  23.508  0.00  0.00    +0.155 C 
ATOM     16  C   UNL     1       0.542   1.404  24.002  0.00  0.00    +0.166 C 
ATOM     17  O   UNL     1       1.344   1.584  23.930  0.00  0.00    -0.348 OA
ATOM     18  C   UNL     1       1.676   1.056  23.392  0.00  0.00    +0.186 C 
ENDROOT
BRANCH  15  19
ATOM     19  N   UNL     1      -0.356   0.403  23.409  0.00  0.00    -0.200 NA
ATOM     20  C   UNL     1      -0.787   0.156  24.068  0.00  0.00    +0.237 A 
ATOM     21  N   UNL     1      -1.522  -0.205  23.969  0.00  0.00    -0.212 NA
ATOM     22  C   UNL     1      -1.953  -0.453  24.628  0.00  0.00    +0.086 A 
ATOM     23  C   UNL     1      -1.647  -0.339  25.386  0.00  0.00    +0.040 A 
ATOM     24  C   UNL     1      -0.913   0.022  25.485  0.00  0.00    +0.103 A 
ATOM     25  N   UNL     1      -0.482   0.269  24.826  0.00  0.00    -0.211 NA
BRANCH  22  26
ATOM     26  C   UNL     1      -2.687  -0.814  24.529  0.00  0.00    +0.021 A 
ATOM     27  C   UNL     1      -2.731  -1.616  24.343  0.00  0.00    +0.042 A 
ATOM     28  C   UNL     1      -3.466  -1.977  24.244  0.00  0.00    +0.176 A 
ATOM     29  C   UNL     1      -4.158  -1.536  24.330  0.00  0.00    +0.176 A 
ATOM     30  O   UNL     1      -4.799  -2.037  24.200  0.00  0.00    -0.435 OA
ATOM     31  C   UNL     1      -4.504  -2.789  24.034  0.00  0.00    +0.429 C 
ATOM     32  O   UNL     1      -3.681  -2.752  24.060  0.00  0.00    -0.435 OA
ATOM     33  C   UNL     1      -4.114  -0.732  24.516  0.00  0.00    +0.040 A 
ATOM     34  C   UNL     1      -3.379  -0.372  24.615  0.00  0.00    +0.005 A 
ENDBRANCH  22  26
ENDBRANCH  15  19
BRANCH  11  10
ATOM     10  O   UNL     1       3.112   1.201  23.113  0.00  0.00    -0.432 OA
BRANCH  10   2
ATOM      1  O   UNL     1       4.050   0.419  22.372  0.00  0.00    -0.224 OA
ATOM      2  C   UNL     1       3.801   0.748  23.086  0.00  0.00    +0.425 C 
ATOM      3  N   UNL     1       4.241   0.624  23.773  0.00  0.00    -0.142 NA
BRANCH   3   4
ATOM      4  C   UNL     1       4.930   0.171  23.745  0.00  0.00    +0.077 A 
ATOM      5  C   UNL     1       4.930  -0.598  24.042  0.00  0.00    +0.017 A 
ATOM      6  C   UNL     1       5.619  -1.051  24.014  0.00  0.00    +0.001 A 
ATOM      7  C   UNL     1       6.308  -0.735  23.690  0.00  0.00    +0.000 A 
ATOM      8  C   UNL     1       6.308   0.035  23.392  0.00  0.00    +0.001 A 
ATOM      9  C   UNL     1       5.619   0.488  23.420  0.00  0.00    +0.017 A 
ENDBRANCH   3   4
ENDBRANCH  10   2
ENDBRANCH  11  10
TORSDOF 5
ENDMDL
MODEL 5
REMARK VINA RESULT:      -6.7     17.193     18.263
REMARK  Name = 
REMARK  5 active torsions:
REMARK  status: ('A' for Active; 'I' for Inactive)
REMARK    1  A    between atoms: C_2  and  O_10
REMARK    2  A    between atoms: N_3  and  C_4
REMARK    3  A    between atoms: O_10  and  C_11
REMARK    4  A    between atoms: C_15  and  N_19
REMARK    5  A    between atoms: C_22  and  C_26
REMARK                            x       y       z     vdW  Elec       q    Type
REMARK                         _______ _______ _______ _____ _____    ______ ____
ROOT
ATOM     11  C   UNL     1      16.552  -6.205  26.483  0.00  0.00    +0.229 C 
ATOM     12  C   UNL     1      15.916  -6.606  26.142  0.00  0.00    +0.188 C 
ATOM     13  O   UNL     1      15.443  -6.899  26.751  0.00  0.00    -0.348 OA
ATOM     14  C   UNL     1      15.786  -6.678  27.468  0.00  0.00    +0.168 C 
ATOM     15  C   UNL     1      15.704  -6.723  28.288  0.00  0.00    +0.155 C 
ATOM     16  C   UNL     1      16.340  -6.322  28.629  0.00  0.00    +0.166 C 
ATOM     17  O   UNL     1      16.813  -6.029  28.020  0.00  0.00    -0.348 OA
ATOM     18  C   UNL     1      16.471  -6.249  27.303  0.00  0.00    +0.186 C 
ENDROOT
BRANCH  15  19
ATOM     19  N   UNL     1      15.096  -7.101  28.695  0.00  0.00    -0.200 NA
ATOM     20  C   UNL     1      14.719  -6.720  29.322  0.00  0.00    +0.237 A 
ATOM     21  N   UNL     1      14.109  -7.099  29.730  0.00  0.00    -0.212 NA
ATOM     22  C   UNL     1      13.733  -6.717  30.357  0.00  0.00    +0.086 A 
ATOM     23  C   UNL     1      13.966  -5.957  30.577  0.00  0.00    +0.040 A 
ATOM     24  C   UNL     1      14.575  -5.578  30.170  0.00  0.00    +0.103 A 
ATOM     25  N   UNL     1      14.951  -5.960  29.543  0.00  0.00    -0.211 NA
BRANCH  22  26
ATOM     26  C   UNL     1      13.124  -7.096  30.764  0.00  0.00    +0.021 A 
ATOM     27  C   UNL     1      13.291  -7.741  31.250  0.00  0.00    +0.042 A 
ATOM     28  C   UNL     1      12.682  -8.120  31.657  0.00  0.00    +0.176 A 
ATOM     29  C   UNL     1      11.905  -7.854  31.578  0.00  0.00    +0.176 A 
ATOM     30  O   UNL     1      11.422  -8.333  32.044  0.00  0.00    -0.435 OA
ATOM     31  C   UNL     1      11.900  -8.897  32.410  0.00  0.00    +0.429 C 
ATOM     32  O   UNL     1      12.678  -8.765  32.171  0.00  0.00    -0.435 OA
ATOM     33  C   UNL     1      11.737  -7.208  31.092  0.00  0.00    +0.040 A 
ATOM     34  C   UNL     1      12.347  -6.829  30.685  0.00  0.00    +0.005 A 
ENDBRANCH  22  26
ENDBRANCH  15  19
BRANCH  11  10
ATOM     10  O   UNL     1      17.161  -5.826  26.076  0.00  0.00    -0.432 OA
BRANCH  10   2
ATOM      1  O   UNL     1      16.657  -5.800  24.740  0.00  0.00    -0.224 OA
ATOM      2  C   UNL     1      16.997  -5.411  25.382  0.00  0.00    +0.425 C 
ATOM      3  N   UNL     1      17.174  -4.607  25.332  0.00  0.00    -0.142 NA
BRANCH   3   4
ATOM      4  C   UNL     1      17.011  -4.192  24.638  0.00  0.00    +0.077 A 
ATOM      5  C   UNL     1      17.405  -4.383  23.939  0.00  0.00    +0.017 A 
ATOM      6  C   UNL     1      17.241  -3.968  23.245  0.00  0.00    +0.001 A 
ATOM      7  C   UNL     1      16.683  -3.361  23.249  0.00  0.00    +0.000 A 
ATOM      8  C   UNL     1      16.289  -3.168  23.948  0.00  0.00    +0.001 A 
ATOM      9  C   UNL     1      16.452  -3.584  24.642  0.00  0.00    +0.017 A 
ENDBRANCH   3   4
ENDBRANCH  10   2
ENDBRANCH  11  10
TORSDOF 5
ENDMDL
