MODEL 1
REMARK VINA RESULT:     -11.9      0.000      0.000
REMARK  Name = 
REMARK  3 active torsions:
REMARK  status: ('A' for Active; 'I' for Inactive)
REMARK    1  A    between atoms: C_2  and  C_3
REMARK    2  A    between atoms: C_14  and  O_16
REMARK    3  A    between atoms: O_16  and  C_17
REMARK                            x       y       z     vdW  Elec       q    Type
REMARK                         _______ _______ _______ _____ _____    ______ ____
ROOT
ATOM      1  O   UNL     1      -4.677   0.431  24.774  0.00  0.00    -0.275 OA
ATOM      2  C   UNL     1      -3.937   0.094  24.632  0.00  0.00    +0.225 C 
ATOM      9  N   UNL     1      -3.296   0.576  24.435  0.00  0.00    -0.273 N 
ATOM     10  C   UNL     1      -2.582   0.184  24.304  0.00  0.00    +0.126 C 
ATOM     11  C   UNL     1      -1.849   0.504  24.102  0.00  0.00    +0.164 C 
ATOM     12  O   UNL     1      -1.650   1.295  23.980  0.00  0.00    -0.348 OA
ATOM     13  C   UNL     1      -2.133   1.961  24.031  0.00  0.00    +0.187 C 
ATOM     14  C   UNL     1      -2.936   2.001  24.216  0.00  0.00    +0.215 C 
ATOM     15  C   UNL     1      -3.454   1.384  24.396  0.00  0.00    +0.139 C 
ENDROOT
BRANCH   2   3
ATOM      3  C   UNL     1      -3.839  -0.723  24.686  0.00  0.00    +0.077 C 
ATOM      4  C   UNL     1      -3.573  -1.061  25.389  0.00  0.00    +0.009 C 
ATOM      5  C   UNL     1      -3.475  -1.878  25.443  0.00  0.00    +0.000 C 
ATOM      6  C   UNL     1      -3.641  -2.358  24.794  0.00  0.00    +0.000 C 
ATOM      7  C   UNL     1      -3.907  -2.019  24.089  0.00  0.00    +0.000 C 
ATOM      8  C   UNL     1      -4.006  -1.203  24.035  0.00  0.00    +0.009 C 
ENDBRANCH   2   3
BRANCH  14  16
ATOM     16  O   UNL     1      -3.266   2.758  24.222  0.00  0.00    -0.475 OA
BRANCH  16  17
ATOM     17  C   UNL     1      -3.107   3.271  24.850  0.00  0.00    +0.139 A 
ATOM     18  C   UNL     1      -3.655   3.353  25.462  0.00  0.00    +0.037 A 
ATOM     19  C   UNL     1      -3.497   3.865  26.089  0.00  0.00    +0.003 A 
ATOM     20  C   UNL     1      -2.793   4.295  26.103  0.00  0.00    +0.000 A 
ATOM     21  C   UNL     1      -2.246   4.213  25.491  0.00  0.00    +0.003 A 
ATOM     22  C   UNL     1      -2.404   3.700  24.865  0.00  0.00    +0.037 A 
ENDBRANCH  16  17
ENDBRANCH  14  16
TORSDOF 3
ENDMDL
MODEL 2
REMARK VINA RESULT:     -11.6      1.014      4.406
REMARK  Name = 
REMARK  3 active torsions:
REMARK  status: ('A' for Active; 'I' for Inactive)
REMARK    1  A    between atoms: C_2  and  C_3
REMARK    2  A    between atoms: C_14  and  O_16
REMARK    3  A    between atoms: O_16  and  C_17
REMARK                            x       y       z     vdW  Elec       q    Type
REMARK                         _______ _______ _______ _____ _____    ______ ____
ROOT
ATOM      1  O   UNL     1      -3.065   2.786  26.010  0.00  0.00    -0.275 OA
ATOM      2  C   UNL     1      -2.641   2.877  25.309  0.00  0.00    +0.225 C 
ATOM      9  N   UNL     1      -2.772   2.361  24.678  0.00  0.00    -0.273 N 
ATOM     10  C   UNL     1      -2.320   2.500  24.002  0.00  0.00    +0.126 C 
ATOM     11  C   UNL     1      -2.322   2.086  23.288  0.00  0.00    +0.164 C 
ATOM     12  O   UNL     1      -2.777   1.432  23.074  0.00  0.00    -0.348 OA
ATOM     13  C   UNL     1      -3.342   1.030  23.520  0.00  0.00    +0.187 C 
ATOM     14  C   UNL     1      -3.592   1.183  24.291  0.00  0.00    +0.215 C 
ATOM     15  C   UNL     1      -3.338   1.775  24.807  0.00  0.00    +0.139 C 
ENDROOT
BRANCH   2   3
ATOM      3  C   UNL     1      -2.086   3.483  25.237  0.00  0.00    +0.077 C 
ATOM      4  C   UNL     1      -2.331   4.247  25.043  0.00  0.00    +0.009 C 
ATOM      5  C   UNL     1      -1.777   4.852  24.972  0.00  0.00    +0.000 C 
ATOM      6  C   UNL     1      -0.976   4.696  25.094  0.00  0.00    +0.000 C 
ATOM      7  C   UNL     1      -0.730   3.931  25.288  0.00  0.00    +0.000 C 
ATOM      8  C   UNL     1      -1.285   3.326  25.359  0.00  0.00    +0.009 C 
ENDBRANCH   2   3
BRANCH  14  16
ATOM     16  O   UNL     1      -4.172   0.676  24.586  0.00  0.00    -0.475 OA
BRANCH  16  17
ATOM     17  C   UNL     1      -4.006  -0.127  24.687  0.00  0.00    +0.139 A 
ATOM     18  C   UNL     1      -3.651  -0.390  25.384  0.00  0.00    +0.037 A 
ATOM     19  C   UNL     1      -3.485  -1.191  25.485  0.00  0.00    +0.003 A 
ATOM     20  C   UNL     1      -3.673  -1.729  24.888  0.00  0.00    +0.000 A 
ATOM     21  C   UNL     1      -4.027  -1.466  24.192  0.00  0.00    +0.003 A 
ATOM     22  C   UNL     1      -4.193  -0.665  24.091  0.00  0.00    +0.037 A 
ENDBRANCH  16  17
ENDBRANCH  14  16
TORSDOF 3
ENDMDL
MODEL 3
REMARK VINA RESULT:     -11.5      1.132      4.467
REMARK  Name = 
REMARK  3 active torsions:
REMARK  status: ('A' for Active; 'I' for Inactive)
REMARK    1  A    between atoms: C_2  and  C_3
REMARK    2  A    between atoms: C_14  and  O_16
REMARK    3  A    between atoms: O_16  and  C_17
REMARK                            x       y       z     vdW  Elec       q    Type
REMARK                         _______ _______ _______ _____ _____    ______ ____
ROOT
ATOM      1  O   UNL     1      -5.080   1.415  24.962  0.00  0.00    -0.275 OA
ATOM      2  C   UNL     1      -4.299   1.661  24.865  0.00  0.00    +0.225 C 
ATOM      9  N   UNL     1      -3.682   1.121  24.965  0.00  0.00    -0.273 N 
ATOM     10  C   UNL     1      -2.922   1.423  24.856  0.00  0.00    +0.126 C 
ATOM     11  C   UNL     1      -2.199   1.030  24.915  0.00  0.00    +0.164 C 
ATOM     12  O   UNL     1      -2.058   0.239  25.099  0.00  0.00    -0.348 OA
ATOM     13  C   UNL     1      -2.604  -0.355  25.268  0.00  0.00    +0.187 C 
ATOM     14  C   UNL     1      -3.427  -0.305  25.295  0.00  0.00    +0.215 C 
ATOM     15  C   UNL     1      -3.907   0.353  25.161  0.00  0.00    +0.139 C 
ENDROOT
BRANCH   2   3
ATOM      3  C   UNL     1      -4.134   2.445  24.669  0.00  0.00    +0.077 C 
ATOM      4  C   UNL     1      -4.048   2.663  23.878  0.00  0.00    +0.009 C 
ATOM      5  C   UNL     1      -3.883   3.446  23.682  0.00  0.00    +0.000 C 
ATOM      6  C   UNL     1      -3.804   4.013  24.276  0.00  0.00    +0.000 C 
ATOM      7  C   UNL     1      -3.890   3.795  25.068  0.00  0.00    +0.000 C 
ATOM      8  C   UNL     1      -4.055   3.012  25.264  0.00  0.00    +0.009 C 
ENDBRANCH   2   3
BRANCH  14  16
ATOM     16  O   UNL     1      -3.823  -1.005  25.483  0.00  0.00    -0.475 OA
BRANCH  16  17
ATOM     17  C   UNL     1      -3.793  -1.646  24.963  0.00  0.00    +0.139 A 
ATOM     18  C   UNL     1      -3.323  -2.300  25.143  0.00  0.00    +0.037 A 
ATOM     19  C   UNL     1      -3.294  -2.941  24.625  0.00  0.00    +0.003 A 
ATOM     20  C   UNL     1      -3.734  -2.927  23.927  0.00  0.00    +0.000 A 
ATOM     21  C   UNL     1      -4.204  -2.274  23.748  0.00  0.00    +0.003 A 
ATOM     22  C   UNL     1      -4.233  -1.633  24.266  0.00  0.00    +0.037 A 
ENDBRANCH  16  17
ENDBRANCH  14  16
TORSDOF 3
ENDMDL
