MODEL 1
REMARK VINA RESULT:     -11.2      0.000      0.000
REMARK  Name = 
REMARK  7 active torsions:
REMARK  status: ('A' for Active; 'I' for Inactive)
REMARK    1  A    between atoms: C_2  and  C_3
REMARK    2  A    between atoms: C_3  and  S_4
REMARK    3  A    between atoms: S_4  and  N_7
REMARK    4  A    between atoms: N_7  and  C_8
REMARK    5  A    between atoms: N_20  and  C_21
REMARK    6  A    between atoms: C_23  and  O_24
REMARK    7  A    between atoms: C_27  and  O_28
REMARK                            x       y       z     vdW  Elec       q    Type
REMARK                         _______ _______ _______ _____ _____    ______ ____
ROOT
ATOM      8  C   UNL     1      -3.050   3.053  24.931  0.00  0.00    +0.147 A 
ATOM      9  C   UNL     1      -3.649   3.608  25.054  0.00  0.00    +0.024 A 
ATOM     10  C   UNL     1      -4.428   3.358  25.160  0.00  0.00    +0.014 A 
ATOM     11  C   UNL     1      -4.608   2.553  25.144  0.00  0.00    +0.041 A 
ATOM     12  C   UNL     1      -5.322   1.980  25.222  0.00  0.00    +0.058 C 
ATOM     13  C   UNL     1      -6.016   1.976  25.329  0.00  0.00    +0.011 C 
ATOM     14  C   UNL     1      -5.423   1.432  25.208  0.00  0.00    +0.043 C 
ATOM     15  C   UNL     1      -4.855   0.633  25.077  0.00  0.00    +0.097 C 
ATOM     16  N   UNL     1      -4.112   1.003  24.983  0.00  0.00    -0.262 N 
ATOM     17  C   UNL     1      -4.788   1.199  25.097  0.00  0.00    +0.101 C 
ATOM     18  C   UNL     1      -3.299   1.077  24.862  0.00  0.00    +0.327 C 
ATOM     19  O   UNL     1      -2.951   1.826  24.849  0.00  0.00    -0.250 OA
ATOM     20  N   UNL     1      -2.836   0.404  24.753  0.00  0.00    -0.162 NA
ATOM     31  C   UNL     1      -4.670   2.022  25.124  0.00  0.00    +0.110 C 
ATOM     32  N   UNL     1      -4.010   1.998  25.021  0.00  0.00    -0.298 N 
ATOM     33  C   UNL     1      -3.231   2.249  24.915  0.00  0.00    +0.277 A 
ATOM     34  O   UNL     1      -2.491   1.909  24.783  0.00  0.00    -0.266 OA
ENDROOT
BRANCH  20  21
ATOM     21  C   UNL     1      -3.183  -0.343  24.766  0.00  0.00    +0.081 A 
ATOM     22  C   UNL     1      -3.215  -0.772  25.470  0.00  0.00    +0.054 A 
ATOM     23  C   UNL     1      -3.563  -1.519  25.484  0.00  0.00    +0.143 A 
ATOM     26  C   UNL     1      -3.880  -1.839  24.792  0.00  0.00    +0.074 A 
ATOM     27  C   UNL     1      -3.848  -1.411  24.088  0.00  0.00    +0.143 A 
ATOM     30  C   UNL     1      -3.501  -0.663  24.074  0.00  0.00    +0.054 A 
BRANCH  23  24
ATOM     24  O   UNL     1      -3.594  -1.948  26.188  0.00  0.00    -0.471 OA
ATOM     25  C   UNL     1      -2.971  -1.901  26.727  0.00  0.00    +0.252 C 
ENDBRANCH  23  24
BRANCH  27  28
ATOM     28  O   UNL     1      -4.165  -1.731  23.396  0.00  0.00    -0.471 OA
ATOM     29  C   UNL     1      -4.379  -2.528  23.370  0.00  0.00    +0.252 C 
ENDBRANCH  27  28
ENDBRANCH  20  21
BRANCH   8   7
ATOM      7  N   UNL     1      -2.272   3.304  24.825  0.00  0.00    -0.096 NA
BRANCH   7   4
ATOM      4  S   UNL     1      -2.067   4.088  24.977  0.00  0.00    +0.073 S 
ATOM      5  O   UNL     1      -2.257   4.289  24.200  0.00  0.00    -0.153 OA
ATOM      6  O   UNL     1      -1.876   3.888  25.754  0.00  0.00    -0.153 OA
BRANCH   4   3
ATOM      3  C   UNL     1      -1.861   4.873  25.129  0.00  0.00    +0.174 C 
BRANCH   3   2
ATOM      1  C   UNL     1      -0.944   5.950  24.926  0.00  0.00    +0.002 C 
ATOM      2  C   UNL     1      -1.100   5.140  24.958  0.00  0.00    +0.027 C 
ENDBRANCH   3   2
ENDBRANCH   4   3
ENDBRANCH   7   4
ENDBRANCH   8   7
TORSDOF 7
ENDMDL
MODEL 2
REMARK VINA RESULT:     -10.6      2.018      3.278
REMARK  Name = 
REMARK  7 active torsions:
REMARK  status: ('A' for Active; 'I' for Inactive)
REMARK    1  A    between atoms: C_2  and  C_3
REMARK    2  A    between atoms: C_3  and  S_4
REMARK    3  A    between atoms: S_4  and  N_7
REMARK    4  A    between atoms: N_7  and  C_8
REMARK    5  A    between atoms: N_20  and  C_21
REMARK    6  A    between atoms: C_23  and  O_24
REMARK    7  A    between atoms: C_27  and  O_28
REMARK                            x       y       z     vdW  Elec       q    Type
REMARK                         _______ _______ _______ _____ _____    ______ ____
ROOT
ATOM      8  C   UNL     1      -4.218   1.534  24.978  0.00  0.00    +0.147 A 
ATOM      9  C   UNL     1      -4.967   1.225  24.819  0.00  0.00    +0.024 A 
ATOM     10  C   UNL     1      -5.045   0.446  24.559  0.00  0.00    +0.014 A 
ATOM     11  C   UNL     1      -4.374  -0.023  24.458  0.00  0.00    +0.041 A 
ATOM     12  C   UNL     1      -4.129  -0.871  24.200  0.00  0.00    +0.058 C 
ATOM     13  C   UNL     1      -4.400  -1.480  23.980  0.00  0.00    +0.011 C 
ATOM     14  C   UNL     1      -3.663  -1.171  24.139  0.00  0.00    +0.043 C 
ATOM     15  C   UNL     1      -2.703  -0.984  24.275  0.00  0.00    +0.097 C 
ATOM     16  N   UNL     1      -2.749  -0.190  24.530  0.00  0.00    -0.262 N 
ATOM     17  C   UNL     1      -3.197  -0.706  24.327  0.00  0.00    +0.101 C 
ATOM     18  C   UNL     1      -2.496   0.550  24.792  0.00  0.00    +0.327 C 
ATOM     19  O   UNL     1      -3.047   1.146  24.943  0.00  0.00    -0.250 OA
ATOM     20  N   UNL     1      -1.691   0.695  24.902  0.00  0.00    -0.162 NA
ATOM     31  C   UNL     1      -3.910  -0.284  24.409  0.00  0.00    +0.110 C 
ATOM     32  N   UNL     1      -3.626   0.286  24.617  0.00  0.00    -0.298 N 
ATOM     33  C   UNL     1      -3.548   1.065  24.877  0.00  0.00    +0.277 A 
ATOM     34  O   UNL     1      -2.942   1.581  25.093  0.00  0.00    -0.266 OA
ENDROOT
BRANCH  20  21
ATOM     21  C   UNL     1      -1.140   0.101  24.751  0.00  0.00    +0.081 A 
ATOM     22  C   UNL     1      -0.745   0.079  24.028  0.00  0.00    +0.054 A 
ATOM     23  C   UNL     1      -0.194  -0.515  23.876  0.00  0.00    +0.143 A 
ATOM     26  C   UNL     1      -0.037  -1.088  24.449  0.00  0.00    +0.074 A 
ATOM     27  C   UNL     1      -0.432  -1.066  25.172  0.00  0.00    +0.143 A 
ATOM     30  C   UNL     1      -0.984  -0.473  25.324  0.00  0.00    +0.054 A 
BRANCH  23  24
ATOM     24  O   UNL     1       0.202  -0.537  23.152  0.00  0.00    -0.471 OA
ATOM     25  C   UNL     1       0.858  -0.052  23.027  0.00  0.00    +0.252 C 
ENDBRANCH  23  24
BRANCH  27  28
ATOM     28  O   UNL     1      -0.276  -1.640  25.745  0.00  0.00    -0.471 OA
ATOM     29  C   UNL     1      -0.060  -2.403  25.516  0.00  0.00    +0.252 C 
ENDBRANCH  27  28
ENDBRANCH  20  21
BRANCH   8   7
ATOM      7  N   UNL     1      -4.141   2.313  25.239  0.00  0.00    -0.096 NA
BRANCH   7   4
ATOM      4  S   UNL     1      -4.805   2.800  25.285  0.00  0.00    +0.073 S 
ATOM      5  O   UNL     1      -4.933   2.552  26.061  0.00  0.00    -0.153 OA
ATOM      6  O   UNL     1      -4.678   3.049  24.509  0.00  0.00    -0.153 OA
BRANCH   4   3
ATOM      3  C   UNL     1      -5.470   3.288  25.333  0.00  0.00    +0.174 C 
BRANCH   3   2
ATOM      1  C   UNL     1      -6.046   4.573  25.574  0.00  0.00    +0.002 C 
ATOM      2  C   UNL     1      -5.386   4.079  25.551  0.00  0.00    +0.027 C 
ENDBRANCH   3   2
ENDBRANCH   4   3
ENDBRANCH   7   4
ENDBRANCH   8   7
TORSDOF 7
ENDMDL
MODEL 3
REMARK VINA RESULT:     -10.5      2.436      3.574
REMARK  Name = 
REMARK  7 active torsions:
REMARK  status: ('A' for Active; 'I' for Inactive)
REMARK    1  A    between atoms: C_2  and  C_3
REMARK    2  A    between atoms: C_3  and  S_4
REMARK    3  A    between atoms: S_4  and  N_7
REMARK    4  A    between atoms: N_7  and  C_8
REMARK    5  A    between atoms: N_20  and  C_21
REMARK    6  A    between atoms: C_23  and  O_24
REMARK    7  A    between atoms: C_27  and  O_28
REMARK                            x       y       z     vdW  Elec       q    Type
REMARK                         _______ _______ _______ _____ _____    ______ ____
ROOT
ATOM      8  C   UNL     1      -2.819   2.991  25.180  0.00  0.00    +0.147 A 
ATOM      9  C   UNL     1      -2.595   3.614  25.673  0.00  0.00    +0.024 A 
ATOM     10  C   UNL     1      -1.832   3.639  25.985  0.00  0.00    +0.014 A 
ATOM     11  C   UNL     1      -1.293   3.041  25.806  0.00  0.00    +0.041 A 
ATOM     12  C   UNL     1      -0.427   2.786  25.977  0.00  0.00    +0.058 C 
ATOM     13  C   UNL     1       0.146   2.986  26.329  0.00  0.00    +0.011 C 
ATOM     14  C   UNL     1      -0.079   2.372  25.843  0.00  0.00    +0.043 C 
ATOM     15  C   UNL     1      -0.158   1.561  25.285  0.00  0.00    +0.097 C 
ATOM     16  N   UNL     1      -0.950   1.643  25.031  0.00  0.00    -0.262 N 
ATOM     17  C   UNL     1      -0.489   1.998  25.441  0.00  0.00    +0.101 C 
ATOM     18  C   UNL     1      -1.656   1.466  24.641  0.00  0.00    +0.327 C 
ATOM     19  O   UNL     1      -2.306   1.969  24.716  0.00  0.00    -0.250 OA
ATOM     20  N   UNL     1      -1.711   0.786  24.178  0.00  0.00    -0.162 NA
ATOM     31  C   UNL     1      -0.985   2.630  25.659  0.00  0.00    +0.110 C 
ATOM     32  N   UNL     1      -1.517   2.418  25.314  0.00  0.00    -0.298 N 
ATOM     33  C   UNL     1      -2.280   2.393  25.001  0.00  0.00    +0.277 A 
ATOM     34  O   UNL     1      -2.725   1.903  24.509  0.00  0.00    -0.266 OA
ENDROOT
BRANCH  20  21
ATOM     21  C   UNL     1      -1.062   0.283  24.103  0.00  0.00    +0.081 A 
ATOM     22  C   UNL     1      -0.967  -0.348  24.626  0.00  0.00    +0.054 A 
ATOM     23  C   UNL     1      -0.318  -0.852  24.552  0.00  0.00    +0.143 A 
ATOM     26  C   UNL     1       0.237  -0.724  23.954  0.00  0.00    +0.074 A 
ATOM     27  C   UNL     1       0.142  -0.093  23.432  0.00  0.00    +0.143 A 
ATOM     30  C   UNL     1      -0.507   0.410  23.506  0.00  0.00    +0.054 A 
BRANCH  23  24
ATOM     24  O   UNL     1      -0.223  -1.483  25.074  0.00  0.00    -0.471 OA
ATOM     25  C   UNL     1      -0.819  -2.050  25.148  0.00  0.00    +0.252 C 
ENDBRANCH  23  24
BRANCH  27  28
ATOM     28  O   UNL     1       0.697   0.035  22.834  0.00  0.00    -0.471 OA
ATOM     29  C   UNL     1       1.471  -0.238  22.925  0.00  0.00    +0.252 C 
ENDBRANCH  27  28
ENDBRANCH  20  21
BRANCH   8   7
ATOM      7  N   UNL     1      -3.582   2.967  24.868  0.00  0.00    -0.096 NA
BRANCH   7   4
ATOM      4  S   UNL     1      -4.160   3.482  25.151  0.00  0.00    +0.073 S 
ATOM      5  O   UNL     1      -4.348   2.945  25.747  0.00  0.00    -0.153 OA
ATOM      6  O   UNL     1      -3.973   4.020  24.555  0.00  0.00    -0.153 OA
BRANCH   4   3
ATOM      3  C   UNL     1      -4.740   3.998  25.435  0.00  0.00    +0.174 C 
BRANCH   3   2
ATOM      1  C   UNL     1      -6.121   4.325  25.595  0.00  0.00    +0.002 C 
ATOM      2  C   UNL     1      -5.533   3.773  25.422  0.00  0.00    +0.027 C 
ENDBRANCH   3   2
ENDBRANCH   4   3
ENDBRANCH   7   4
ENDBRANCH   8   7
TORSDOF 7
ENDMDL
MODEL 4
REMARK VINA RESULT:     -10.0      2.867      4.494
REMARK  Name = 
REMARK  7 active torsions:
REMARK  status: ('A' for Active; 'I' for Inactive)
REMARK    1  A    between atoms: C_2  and  C_3
REMARK    2  A    between atoms: C_3  and  S_4
REMARK    3  A    between atoms: S_4  and  N_7
REMARK    4  A    between atoms: N_7  and  C_8
REMARK    5  A    between atoms: N_20  and  C_21
REMARK    6  A    between atoms: C_23  and  O_24
REMARK    7  A    between atoms: C_27  and  O_28
REMARK                            x       y       z     vdW  Elec       q    Type
REMARK                         _______ _______ _______ _____ _____    ______ ____
ROOT
ATOM      8  C   UNL     1      -0.096   0.195  23.687  0.00  0.00    +0.147 A 
ATOM      9  C   UNL     1       0.073  -0.551  23.995  0.00  0.00    +0.024 A 
ATOM     10  C   UNL     1      -0.421  -0.883  24.566  0.00  0.00    +0.014 A 
ATOM     11  C   UNL     1      -1.084  -0.468  24.830  0.00  0.00    +0.041 A 
ATOM     12  C   UNL     1      -1.789  -0.546  25.414  0.00  0.00    +0.058 C 
ATOM     13  C   UNL     1      -2.068  -0.985  25.884  0.00  0.00    +0.011 C 
ATOM     14  C   UNL     1      -2.231  -0.248  25.578  0.00  0.00    +0.043 C 
ATOM     15  C   UNL     1      -2.591   0.639  25.334  0.00  0.00    +0.097 C 
ATOM     16  N   UNL     1      -2.023   0.869  24.766  0.00  0.00    -0.262 N 
ATOM     17  C   UNL     1      -2.149   0.310  25.189  0.00  0.00    +0.101 C 
ATOM     18  C   UNL     1      -1.645   1.338  24.202  0.00  0.00    +0.327 C 
ATOM     19  O   UNL     1      -0.957   1.068  23.835  0.00  0.00    -0.250 OA
ATOM     20  N   UNL     1      -1.954   2.077  24.006  0.00  0.00    -0.162 NA
ATOM     31  C   UNL     1      -1.498  -0.158  24.965  0.00  0.00    +0.110 C 
ATOM     32  N   UNL     1      -1.252   0.279  24.521  0.00  0.00    -0.298 N 
ATOM     33  C   UNL     1      -0.758   0.611  23.950  0.00  0.00    +0.277 A 
ATOM     34  O   UNL     1      -0.712   1.305  23.508  0.00  0.00    -0.266 OA
ENDROOT
BRANCH  20  21
ATOM     21  C   UNL     1      -2.641   2.348  24.373  0.00  0.00    +0.081 A 
ATOM     22  C   UNL     1      -2.591   2.811  25.053  0.00  0.00    +0.054 A 
ATOM     23  C   UNL     1      -3.277   3.082  25.421  0.00  0.00    +0.143 A 
ATOM     26  C   UNL     1      -4.016   2.889  25.107  0.00  0.00    +0.074 A 
ATOM     27  C   UNL     1      -4.067   2.426  24.426  0.00  0.00    +0.143 A 
ATOM     30  C   UNL     1      -3.380   2.155  24.059  0.00  0.00    +0.054 A 
BRANCH  23  24
ATOM     24  O   UNL     1      -3.226   3.545  26.101  0.00  0.00    -0.471 OA
ATOM     25  C   UNL     1      -2.873   4.290  26.067  0.00  0.00    +0.252 C 
ENDBRANCH  23  24
BRANCH  27  28
ATOM     28  O   UNL     1      -4.806   2.234  24.113  0.00  0.00    -0.471 OA
ATOM     29  C   UNL     1      -5.447   2.108  24.616  0.00  0.00    +0.252 C 
ENDBRANCH  27  28
ENDBRANCH  20  21
BRANCH   8   7
ATOM      7  N   UNL     1       0.399   0.526  23.116  0.00  0.00    -0.096 NA
BRANCH   7   4
ATOM      4  S   UNL     1       1.147   0.207  22.983  0.00  0.00    +0.073 S 
ATOM      5  O   UNL     1       1.468   0.729  23.535  0.00  0.00    -0.153 OA
ATOM      6  O   UNL     1       0.827  -0.315  22.430  0.00  0.00    -0.153 OA
BRANCH   4   3
ATOM      3  C   UNL     1       1.897  -0.112  22.850  0.00  0.00    +0.174 C 
BRANCH   3   2
ATOM      1  C   UNL     1       3.255   0.088  22.452  0.00  0.00    +0.002 C 
ATOM      2  C   UNL     1       2.466   0.326  22.443  0.00  0.00    +0.027 C 
ENDBRANCH   3   2
ENDBRANCH   4   3
ENDBRANCH   7   4
ENDBRANCH   8   7
TORSDOF 7
ENDMDL
MODEL 5
REMARK VINA RESULT:      -9.8      1.773      4.713
REMARK  Name = 
REMARK  7 active torsions:
REMARK  status: ('A' for Active; 'I' for Inactive)
REMARK    1  A    between atoms: C_2  and  C_3
REMARK    2  A    between atoms: C_3  and  S_4
REMARK    3  A    between atoms: S_4  and  N_7
REMARK    4  A    between atoms: N_7  and  C_8
REMARK    5  A    between atoms: N_20  and  C_21
REMARK    6  A    between atoms: C_23  and  O_24
REMARK    7  A    between atoms: C_27  and  O_28
REMARK                            x       y       z     vdW  Elec       q    Type
REMARK                         _______ _______ _______ _____ _____    ______ ____
ROOT
ATOM      8  C   UNL     1      -3.633  -0.049  24.330  0.00  0.00    +0.147 A 
ATOM      9  C   UNL     1      -4.448   0.056  24.395  0.00  0.00    +0.024 A 
ATOM     10  C   UNL     1      -4.752   0.781  24.645  0.00  0.00    +0.014 A 
ATOM     11  C   UNL     1      -4.240   1.400  24.831  0.00  0.00    +0.041 A 
ATOM     12  C   UNL     1      -4.250   2.273  25.119  0.00  0.00    +0.058 C 
ATOM     13  C   UNL     1      -4.691   2.786  25.305  0.00  0.00    +0.011 C 
ATOM     14  C   UNL     1      -3.886   2.678  25.240  0.00  0.00    +0.043 C 
ATOM     15  C   UNL     1      -2.901   2.743  25.225  0.00  0.00    +0.097 C 
ATOM     16  N   UNL     1      -2.713   1.972  24.963  0.00  0.00    -0.262 N 
ATOM     17  C   UNL     1      -3.298   2.351  25.110  0.00  0.00    +0.101 C 
ATOM     18  C   UNL     1      -2.251   1.328  24.733  0.00  0.00    +0.327 C 
ATOM     19  O   UNL     1      -2.611   0.619  24.513  0.00  0.00    -0.250 OA
ATOM     20  N   UNL     1      -1.429   1.394  24.724  0.00  0.00    -0.162 NA
ATOM     31  C   UNL     1      -3.866   1.767  24.938  0.00  0.00    +0.110 C 
ATOM     32  N   UNL     1      -3.424   1.295  24.766  0.00  0.00    -0.298 N 
ATOM     33  C   UNL     1      -3.120   0.570  24.515  0.00  0.00    +0.277 A 
ATOM     34  O   UNL     1      -2.382   0.230  24.375  0.00  0.00    -0.266 OA
ENDROOT
BRANCH  20  21
ATOM     21  C   UNL     1      -1.069   2.102  24.945  0.00  0.00    +0.081 A 
ATOM     22  C   UNL     1      -0.815   2.212  25.722  0.00  0.00    +0.054 A 
ATOM     23  C   UNL     1      -0.455   2.919  25.943  0.00  0.00    +0.143 A 
ATOM     26  C   UNL     1      -0.347   3.519  25.387  0.00  0.00    +0.074 A 
ATOM     27  C   UNL     1      -0.601   3.410  24.609  0.00  0.00    +0.143 A 
ATOM     30  C   UNL     1      -0.961   2.702  24.388  0.00  0.00    +0.054 A 
BRANCH  23  24
ATOM     24  O   UNL     1      -0.202   3.029  26.721  0.00  0.00    -0.471 OA
ATOM     25  C   UNL     1       0.467   2.630  26.996  0.00  0.00    +0.252 C 
ENDBRANCH  23  24
BRANCH  27  28
ATOM     28  O   UNL     1      -0.493   4.010  24.052  0.00  0.00    -0.471 OA
ATOM     29  C   UNL     1      -0.540   4.800  24.284  0.00  0.00    +0.252 C 
ENDBRANCH  27  28
ENDBRANCH  20  21
BRANCH   8   7
ATOM      7  N   UNL     1      -3.330  -0.774  24.079  0.00  0.00    -0.096 NA
BRANCH   7   4
ATOM      4  S   UNL     1      -3.821  -1.436  24.043  0.00  0.00    +0.073 S 
ATOM      5  O   UNL     1      -4.015  -1.250  23.264  0.00  0.00    -0.153 OA
ATOM      6  O   UNL     1      -3.626  -1.622  24.823  0.00  0.00    -0.153 OA
BRANCH   4   3
ATOM      3  C   UNL     1      -4.312  -2.099  24.007  0.00  0.00    +0.174 C 
BRANCH   3   2
ATOM      1  C   UNL     1      -4.429  -3.504  23.777  0.00  0.00    +0.002 C 
ATOM      2  C   UNL     1      -3.985  -2.856  24.027  0.00  0.00    +0.027 C 
ENDBRANCH   3   2
ENDBRANCH   4   3
ENDBRANCH   7   4
ENDBRANCH   8   7
TORSDOF 7
ENDMDL
MODEL 6
REMARK VINA RESULT:      -9.6      1.662      2.664
REMARK  Name = 
REMARK  7 active torsions:
REMARK  status: ('A' for Active; 'I' for Inactive)
REMARK    1  A    between atoms: C_2  and  C_3
REMARK    2  A    between atoms: C_3  and  S_4
REMARK    3  A    between atoms: S_4  and  N_7
REMARK    4  A    between atoms: N_7  and  C_8
REMARK    5  A    between atoms: N_20  and  C_21
REMARK    6  A    between atoms: C_23  and  O_24
REMARK    7  A    between atoms: C_27  and  O_28
REMARK                            x       y       z     vdW  Elec       q    Type
REMARK                         _______ _______ _______ _____ _____    ______ ____
ROOT
ATOM      8  C   UNL     1      -1.212   2.270  24.846  0.00  0.00    +0.147 A 
ATOM      9  C   UNL     1      -0.424   2.327  24.607  0.00  0.00    +0.024 A 
ATOM     10  C   UNL     1      -0.022   1.654  24.350  0.00  0.00    +0.014 A 
ATOM     11  C   UNL     1      -0.408   0.925  24.332  0.00  0.00    +0.041 A 
ATOM     12  C   UNL     1      -0.259   0.044  24.115  0.00  0.00    +0.058 C 
ATOM     13  C   UNL     1       0.240  -0.387  23.874  0.00  0.00    +0.011 C 
ATOM     14  C   UNL     1      -0.538  -0.439  24.111  0.00  0.00    +0.043 C 
ATOM     15  C   UNL     1      -1.460  -0.701  24.352  0.00  0.00    +0.097 C 
ATOM     16  N   UNL     1      -1.759   0.041  24.590  0.00  0.00    -0.262 N 
ATOM     17  C   UNL     1      -1.146  -0.225  24.344  0.00  0.00    +0.101 C 
ATOM     18  C   UNL     1      -2.299   0.600  24.868  0.00  0.00    +0.327 C 
ATOM     19  O   UNL     1      -2.071   1.390  24.948  0.00  0.00    -0.250 OA
ATOM     20  N   UNL     1      -3.065   0.370  25.066  0.00  0.00    -0.162 NA
ATOM     31  C   UNL     1      -0.703   0.479  24.339  0.00  0.00    +0.110 C 
ATOM     32  N   UNL     1      -1.195   0.869  24.570  0.00  0.00    -0.298 N 
ATOM     33  C   UNL     1      -1.598   1.542  24.827  0.00  0.00    +0.277 A 
ATOM     34  O   UNL     1      -2.350   1.738  25.103  0.00  0.00    -0.266 OA
ENDROOT
BRANCH  20  21
ATOM     21  C   UNL     1      -3.293  -0.419  24.987  0.00  0.00    +0.081 A 
ATOM     22  C   UNL     1      -3.179  -0.946  25.610  0.00  0.00    +0.054 A 
ATOM     23  C   UNL     1      -3.406  -1.735  25.531  0.00  0.00    +0.143 A 
ATOM     26  C   UNL     1      -3.749  -1.997  24.828  0.00  0.00    +0.074 A 
ATOM     27  C   UNL     1      -3.863  -1.469  24.204  0.00  0.00    +0.143 A 
ATOM     30  C   UNL     1      -3.636  -0.681  24.283  0.00  0.00    +0.054 A 
BRANCH  23  24
ATOM     24  O   UNL     1      -3.292  -2.262  26.155  0.00  0.00    -0.471 OA
ATOM     25  C   UNL     1      -3.271  -1.984  26.932  0.00  0.00    +0.252 C 
ENDBRANCH  23  24
BRANCH  27  28
ATOM     28  O   UNL     1      -4.206  -1.731  23.500  0.00  0.00    -0.471 OA
ATOM     29  C   UNL     1      -4.439  -2.519  23.423  0.00  0.00    +0.252 C 
ENDBRANCH  27  28
ENDBRANCH  20  21
BRANCH   8   7
ATOM      7  N   UNL     1      -1.614   2.943  25.102  0.00  0.00    -0.096 NA
BRANCH   7   4
ATOM      4  S   UNL     1      -1.260   3.686  25.036  0.00  0.00    +0.073 S 
ATOM      5  O   UNL     1      -1.598   3.780  24.290  0.00  0.00    -0.153 OA
ATOM      6  O   UNL     1      -0.922   3.591  25.783  0.00  0.00    -0.153 OA
BRANCH   4   3
ATOM      3  C   UNL     1      -0.906   4.429  24.969  0.00  0.00    +0.174 C 
BRANCH   3   2
ATOM      1  C   UNL     1      -1.039   5.847  24.865  0.00  0.00    +0.002 C 
ATOM      2  C   UNL     1      -1.364   5.111  25.044  0.00  0.00    +0.027 C 
ENDBRANCH   3   2
ENDBRANCH   4   3
ENDBRANCH   7   4
ENDBRANCH   8   7
TORSDOF 7
ENDMDL
MODEL 7
REMARK VINA RESULT:      -9.1      1.795      2.649
REMARK  Name = 
REMARK  7 active torsions:
REMARK  status: ('A' for Active; 'I' for Inactive)
REMARK    1  A    between atoms: C_2  and  C_3
REMARK    2  A    between atoms: C_3  and  S_4
REMARK    3  A    between atoms: S_4  and  N_7
REMARK    4  A    between atoms: N_7  and  C_8
REMARK    5  A    between atoms: N_20  and  C_21
REMARK    6  A    between atoms: C_23  and  O_24
REMARK    7  A    between atoms: C_27  and  O_28
REMARK                            x       y       z     vdW  Elec       q    Type
REMARK                         _______ _______ _______ _____ _____    ______ ____
ROOT
ATOM      8  C   UNL     1      -4.042   2.583  24.692  0.00  0.00    +0.147 A 
ATOM      9  C   UNL     1      -3.965   3.118  24.068  0.00  0.00    +0.024 A 
ATOM     10  C   UNL     1      -3.499   2.925  23.415  0.00  0.00    +0.014 A 
ATOM     11  C   UNL     1      -3.110   2.199  23.386  0.00  0.00    +0.041 A 
ATOM     12  C   UNL     1      -2.553   1.708  22.843  0.00  0.00    +0.058 C 
ATOM     13  C   UNL     1      -2.221   1.737  22.226  0.00  0.00    +0.011 C 
ATOM     14  C   UNL     1      -2.299   1.212  22.844  0.00  0.00    +0.043 C 
ATOM     15  C   UNL     1      -2.269   0.456  23.480  0.00  0.00    +0.097 C 
ATOM     16  N   UNL     1      -2.763   0.760  24.081  0.00  0.00    -0.262 N 
ATOM     17  C   UNL     1      -2.514   0.970  23.447  0.00  0.00    +0.101 C 
ATOM     18  C   UNL     1      -3.179   0.790  24.793  0.00  0.00    +0.327 C 
ATOM     19  O   UNL     1      -3.627   1.457  24.981  0.00  0.00    -0.250 OA
ATOM     20  N   UNL     1      -3.147   0.154  25.317  0.00  0.00    -0.162 NA
ATOM     31  C   UNL     1      -2.880   1.717  23.417  0.00  0.00    +0.110 C 
ATOM     32  N   UNL     1      -3.187   1.664  24.010  0.00  0.00    -0.298 N 
ATOM     33  C   UNL     1      -3.653   1.857  24.663  0.00  0.00    +0.277 A 
ATOM     34  O   UNL     1      -3.878   1.513  25.377  0.00  0.00    -0.266 OA
ENDROOT
BRANCH  20  21
ATOM     21  C   UNL     1      -2.699  -0.513  25.129  0.00  0.00    +0.081 A 
ATOM     22  C   UNL     1      -1.900  -0.544  25.331  0.00  0.00    +0.054 A 
ATOM     23  C   UNL     1      -1.452  -1.210  25.144  0.00  0.00    +0.143 A 
ATOM     26  C   UNL     1      -1.803  -1.847  24.754  0.00  0.00    +0.074 A 
ATOM     27  C   UNL     1      -2.602  -1.816  24.551  0.00  0.00    +0.143 A 
ATOM     30  C   UNL     1      -3.050  -1.150  24.739  0.00  0.00    +0.054 A 
BRANCH  23  24
ATOM     24  O   UNL     1      -0.653  -1.241  25.346  0.00  0.00    -0.471 OA
ATOM     25  C   UNL     1      -0.246  -1.958  25.307  0.00  0.00    +0.252 C 
ENDBRANCH  23  24
BRANCH  27  28
ATOM     28  O   UNL     1      -2.953  -2.453  24.161  0.00  0.00    -0.471 OA
ATOM     29  C   UNL     1      -3.603  -2.836  24.497  0.00  0.00    +0.252 C 
ENDBRANCH  27  28
ENDBRANCH  20  21
BRANCH   8   7
ATOM      7  N   UNL     1      -4.508   2.777  25.344  0.00  0.00    -0.096 NA
BRANCH   7   4
ATOM      4  S   UNL     1      -4.885   3.509  25.380  0.00  0.00    +0.073 S 
ATOM      5  O   UNL     1      -4.221   3.833  25.747  0.00  0.00    -0.153 OA
ATOM      6  O   UNL     1      -5.548   3.186  25.012  0.00  0.00    -0.153 OA
BRANCH   4   3
ATOM      3  C   UNL     1      -5.261   4.243  25.416  0.00  0.00    +0.174 C 
BRANCH   3   2
ATOM      1  C   UNL     1      -6.402   5.031  25.762  0.00  0.00    +0.002 C 
ATOM      2  C   UNL     1      -6.006   4.307  25.765  0.00  0.00    +0.027 C 
ENDBRANCH   3   2
ENDBRANCH   4   3
ENDBRANCH   7   4
ENDBRANCH   8   7
TORSDOF 7
ENDMDL
