MODEL 1
REMARK VINA RESULT:     -11.4      0.000      0.000
REMARK  Name = 
REMARK  6 active torsions:
REMARK  status: ('A' for Active; 'I' for Inactive)
REMARK    1  A    between atoms: N_2  and  C_4
REMARK    2  A    between atoms: C_7  and  C_8
REMARK    3  A    between atoms: C_8  and  N_9
REMARK    4  A    between atoms: N_9  and  C_10
REMARK    5  A    between atoms: C_12  and  C_15
REMARK    6  A    between atoms: N_18  and  C_22
REMARK                            x       y       z     vdW  Elec       q    Type
REMARK                         _______ _______ _______ _____ _____    ______ ____
ROOT
ATOM     10  C   UNL     1      -4.863   1.172  24.753  0.00  0.00    +0.095 C 
ATOM     11  C   UNL     1      -4.215   1.626  24.986  0.00  0.00    +0.031 C 
ATOM     12  C   UNL     1      -4.469   2.407  25.067  0.00  0.00    +0.048 C 
ATOM     13  C   UNL     1      -5.272   2.435  24.883  0.00  0.00    -0.025 C 
ATOM     14  C   UNL     1      -5.516   1.670  24.689  0.00  0.00    -0.013 C 
ENDROOT
BRANCH  12  15
ATOM     15  C   UNL     1      -4.000   3.048  25.291  0.00  0.00    +0.010 A 
ATOM     16  C   UNL     1      -3.273   3.255  24.962  0.00  0.00    +0.058 A 
ATOM     17  C   UNL     1      -2.886   2.859  24.351  0.00  0.00    +0.052 C 
ATOM     18  N   UNL     1      -3.000   3.930  25.353  0.00  0.00    -0.234 N 
ATOM     19  N   UNL     1      -3.558   4.138  25.922  0.00  0.00    -0.170 NA
ATOM     20  C   UNL     1      -4.177   3.593  25.885  0.00  0.00    +0.077 A 
ATOM     21  C   UNL     1      -4.854   3.594  26.357  0.00  0.00    +0.054 C 
BRANCH  18  22
ATOM     22  C   UNL     1      -2.292   4.326  25.199  0.00  0.00    +0.083 A 
ATOM     23  C   UNL     1      -2.304   5.116  24.963  0.00  0.00    +0.019 A 
ATOM     24  C   UNL     1      -1.597   5.511  24.810  0.00  0.00    -0.002 A 
ATOM     25  C   UNL     1      -0.877   5.117  24.893  0.00  0.00    -0.011 A 
ATOM     26  C   UNL     1      -0.170   5.512  24.740  0.00  0.00    +0.032 C 
ATOM     27  C   UNL     1      -0.865   4.327  25.130  0.00  0.00    +0.055 A 
ATOM     28 CL   UNL     1      -0.145   3.932  25.214  0.00  0.00    -0.083 Cl
ATOM     29  C   UNL     1      -1.572   3.931  25.283  0.00  0.00    +0.030 A 
ENDBRANCH  18  22
ENDBRANCH  12  15
BRANCH  10   9
ATOM      9  N   UNL     1      -4.858   0.359  24.609  0.00  0.00    -0.210 NA
BRANCH   9   8
ATOM      8  C   UNL     1      -4.610  -0.163  25.197  0.00  0.00    +0.115 C 
BRANCH   8   7
ATOM      4  C   UNL     1      -3.327  -2.191  24.591  0.00  0.00    +0.048 A 
ATOM      5  C   UNL     1      -3.889  -1.888  24.070  0.00  0.00    +0.014 A 
ATOM      6  C   UNL     1      -4.317  -1.212  24.272  0.00  0.00    -0.002 A 
ATOM      7  C   UNL     1      -4.182  -0.839  24.995  0.00  0.00    -0.005 A 
ATOM     30  C   UNL     1      -3.619  -1.142  25.516  0.00  0.00    -0.002 A 
ATOM     31  C   UNL     1      -3.191  -1.818  25.314  0.00  0.00    +0.014 A 
BRANCH   4   2
ATOM      1  C   UNL     1      -3.294  -3.575  24.238  0.00  0.00    +0.112 C 
ATOM      2  N   UNL     1      -2.899  -2.867  24.389  0.00  0.00    -0.304 N 
ATOM      3  C   UNL     1      -2.077  -2.834  24.338  0.00  0.00    +0.112 C 
ENDBRANCH   4   2
ENDBRANCH   8   7
ENDBRANCH   9   8
ENDBRANCH  10   9
TORSDOF 6
ENDMDL
MODEL 2
REMARK VINA RESULT:     -11.2      3.507      5.127
REMARK  Name = 
REMARK  6 active torsions:
REMARK  status: ('A' for Active; 'I' for Inactive)
REMARK    1  A    between atoms: N_2  and  C_4
REMARK    2  A    between atoms: C_7  and  C_8
REMARK    3  A    between atoms: C_8  and  N_9
REMARK    4  A    between atoms: N_9  and  C_10
REMARK    5  A    between atoms: C_12  and  C_15
REMARK    6  A    between atoms: N_18  and  C_22
REMARK                            x       y       z     vdW  Elec       q    Type
REMARK                         _______ _______ _______ _____ _____    ______ ____
ROOT
ATOM     10  C   UNL     1      -0.866  -0.565  24.392  0.00  0.00    +0.095 C 
ATOM     11  C   UNL     1      -1.525  -0.125  24.163  0.00  0.00    +0.031 C 
ATOM     12  C   UNL     1      -2.154  -0.335  24.654  0.00  0.00    +0.048 C 
ATOM     13  C   UNL     1      -1.882  -0.904  25.186  0.00  0.00    -0.025 C 
ATOM     14  C   UNL     1      -1.086  -1.046  25.023  0.00  0.00    -0.013 C 
ENDROOT
BRANCH  12  15
ATOM     15  C   UNL     1      -2.919  -0.029  24.620  0.00  0.00    +0.010 A 
ATOM     16  C   UNL     1      -3.153   0.722  24.868  0.00  0.00    +0.058 A 
ATOM     17  C   UNL     1      -2.663   1.299  25.195  0.00  0.00    +0.052 C 
ATOM     18  N   UNL     1      -3.964   0.794  24.732  0.00  0.00    -0.234 N 
ATOM     19  N   UNL     1      -4.231   0.088  24.400  0.00  0.00    -0.170 NA
ATOM     20  C   UNL     1      -3.585  -0.421  24.330  0.00  0.00    +0.077 A 
ATOM     21  C   UNL     1      -3.602  -1.188  24.024  0.00  0.00    +0.054 C 
BRANCH  18  22
ATOM     22  C   UNL     1      -4.427   1.457  24.900  0.00  0.00    +0.083 A 
ATOM     23  C   UNL     1      -4.280   2.170  24.513  0.00  0.00    +0.019 A 
ATOM     24  C   UNL     1      -4.743   2.832  24.680  0.00  0.00    -0.002 A 
ATOM     25  C   UNL     1      -5.352   2.781  25.234  0.00  0.00    -0.011 A 
ATOM     26  C   UNL     1      -5.814   3.443  25.402  0.00  0.00    +0.032 C 
ATOM     27  C   UNL     1      -5.498   2.068  25.622  0.00  0.00    +0.055 A 
ATOM     28 CL   UNL     1      -6.106   2.016  26.176  0.00  0.00    -0.083 Cl
ATOM     29  C   UNL     1      -5.035   1.405  25.454  0.00  0.00    +0.030 A 
ENDBRANCH  18  22
ENDBRANCH  12  15
BRANCH  10   9
ATOM      9  N   UNL     1      -0.116  -0.529  24.048  0.00  0.00    -0.210 NA
BRANCH   9   8
ATOM      8  C   UNL     1       0.073   0.089  23.535  0.00  0.00    +0.115 C 
BRANCH   8   7
ATOM      4  C   UNL     1       2.399   0.363  22.733  0.00  0.00    +0.048 A 
ATOM      5  C   UNL     1       1.926  -0.239  22.428  0.00  0.00    +0.014 A 
ATOM      6  C   UNL     1       1.150  -0.331  22.695  0.00  0.00    -0.002 A 
ATOM      7  C   UNL     1       0.848   0.180  23.268  0.00  0.00    -0.005 A 
ATOM     30  C   UNL     1       1.321   0.783  23.573  0.00  0.00    -0.002 A 
ATOM     31  C   UNL     1       2.097   0.874  23.305  0.00  0.00    +0.014 A 
BRANCH   4   2
ATOM      1  C   UNL     1       3.728   0.846  22.934  0.00  0.00    +0.112 C 
ATOM      2  N   UNL     1       3.174   0.455  22.466  0.00  0.00    -0.304 N 
ATOM      3  C   UNL     1       3.394   0.155  21.730  0.00  0.00    +0.112 C 
ENDBRANCH   4   2
ENDBRANCH   8   7
ENDBRANCH   9   8
ENDBRANCH  10   9
TORSDOF 6
ENDMDL
MODEL 3
REMARK VINA RESULT:     -10.2      3.420      4.991
REMARK  Name = 
REMARK  6 active torsions:
REMARK  status: ('A' for Active; 'I' for Inactive)
REMARK    1  A    between atoms: N_2  and  C_4
REMARK    2  A    between atoms: C_7  and  C_8
REMARK    3  A    between atoms: C_8  and  N_9
REMARK    4  A    between atoms: N_9  and  C_10
REMARK    5  A    between atoms: C_12  and  C_15
REMARK    6  A    between atoms: N_18  and  C_22
REMARK                            x       y       z     vdW  Elec       q    Type
REMARK                         _______ _______ _______ _____ _____    ______ ____
ROOT
ATOM     10  C   UNL     1      -0.064   2.282  24.921  0.00  0.00    +0.095 C 
ATOM     11  C   UNL     1      -0.811   2.473  24.629  0.00  0.00    +0.031 C 
ATOM     12  C   UNL     1      -1.270   2.742  25.260  0.00  0.00    +0.048 C 
ATOM     13  C   UNL     1      -0.805   2.718  25.941  0.00  0.00    -0.025 C 
ATOM     14  C   UNL     1      -0.059   2.433  25.731  0.00  0.00    -0.013 C 
ENDROOT
BRANCH  12  15
ATOM     15  C   UNL     1      -2.055   2.992  25.217  0.00  0.00    +0.010 A 
ATOM     16  C   UNL     1      -2.718   2.503  25.176  0.00  0.00    +0.058 A 
ATOM     17  C   UNL     1      -2.713   1.678  25.171  0.00  0.00    +0.052 C 
ATOM     18  N   UNL     1      -3.387   2.984  25.140  0.00  0.00    -0.234 N 
ATOM     19  N   UNL     1      -3.139   3.770  25.160  0.00  0.00    -0.170 NA
ATOM     20  C   UNL     1      -2.314   3.775  25.207  0.00  0.00    +0.077 A 
ATOM     21  C   UNL     1      -1.834   4.446  25.238  0.00  0.00    +0.054 C 
BRANCH  18  22
ATOM     22  C   UNL     1      -4.169   2.724  25.094  0.00  0.00    +0.083 A 
ATOM     23  C   UNL     1      -4.452   2.389  24.395  0.00  0.00    +0.019 A 
ATOM     24  C   UNL     1      -5.233   2.129  24.349  0.00  0.00    -0.002 A 
ATOM     25  C   UNL     1      -5.733   2.204  25.002  0.00  0.00    -0.011 A 
ATOM     26  C   UNL     1      -6.514   1.944  24.956  0.00  0.00    +0.032 C 
ATOM     27  C   UNL     1      -5.450   2.539  25.701  0.00  0.00    +0.055 A 
ATOM     28 CL   UNL     1      -5.948   2.614  26.354  0.00  0.00    -0.083 Cl
ATOM     29  C   UNL     1      -4.668   2.799  25.747  0.00  0.00    +0.030 A 
ENDBRANCH  18  22
ENDBRANCH  12  15
BRANCH  10   9
ATOM      9  N   UNL     1       0.569   1.991  24.479  0.00  0.00    -0.210 NA
BRANCH   9   8
ATOM      8  C   UNL     1       0.490   1.286  24.059  0.00  0.00    +0.115 C 
BRANCH   8   7
ATOM      4  C   UNL     1       2.416   0.367  22.804  0.00  0.00    +0.048 A 
ATOM      5  C   UNL     1       2.463   1.119  23.139  0.00  0.00    +0.014 A 
ATOM      6  C   UNL     1       1.820   1.426  23.558  0.00  0.00    -0.002 A 
ATOM      7  C   UNL     1       1.132   0.980  23.641  0.00  0.00    -0.005 A 
ATOM     30  C   UNL     1       1.084   0.228  23.306  0.00  0.00    -0.002 A 
ATOM     31  C   UNL     1       1.727  -0.078  22.887  0.00  0.00    +0.014 A 
BRANCH   4   2
ATOM      1  C   UNL     1       3.724  -0.206  22.792  0.00  0.00    +0.112 C 
ATOM      2  N   UNL     1       3.058   0.061  22.386  0.00  0.00    -0.304 N 
ATOM      3  C   UNL     1       3.033   0.023  21.563  0.00  0.00    +0.112 C 
ENDBRANCH   4   2
ENDBRANCH   8   7
ENDBRANCH   9   8
ENDBRANCH  10   9
TORSDOF 6
ENDMDL
MODEL 4
REMARK VINA RESULT:     -10.1      4.579      5.895
REMARK  Name = 
REMARK  6 active torsions:
REMARK  status: ('A' for Active; 'I' for Inactive)
REMARK    1  A    between atoms: N_2  and  C_4
REMARK    2  A    between atoms: C_7  and  C_8
REMARK    3  A    between atoms: C_8  and  N_9
REMARK    4  A    between atoms: N_9  and  C_10
REMARK    5  A    between atoms: C_12  and  C_15
REMARK    6  A    between atoms: N_18  and  C_22
REMARK                            x       y       z     vdW  Elec       q    Type
REMARK                         _______ _______ _______ _____ _____    ______ ____
ROOT
ATOM     10  C   UNL     1       0.817   0.464  23.359  0.00  0.00    +0.095 C 
ATOM     11  C   UNL     1       0.307   0.849  23.881  0.00  0.00    +0.031 C 
ATOM     12  C   UNL     1      -0.420   0.459  23.860  0.00  0.00    +0.048 C 
ATOM     13  C   UNL     1      -0.358  -0.166  23.325  0.00  0.00    -0.025 C 
ATOM     14  C   UNL     1       0.407  -0.162  23.015  0.00  0.00    -0.013 C 
ENDROOT
BRANCH  12  15
ATOM     15  C   UNL     1      -1.090   0.659  24.297  0.00  0.00    +0.010 A 
ATOM     16  C   UNL     1      -1.637   1.246  24.105  0.00  0.00    +0.058 A 
ATOM     17  C   UNL     1      -1.609   1.737  23.442  0.00  0.00    +0.052 C 
ATOM     18  N   UNL     1      -2.216   1.257  24.693  0.00  0.00    -0.234 N 
ATOM     19  N   UNL     1      -2.028   0.677  25.248  0.00  0.00    -0.170 NA
ATOM     20  C   UNL     1      -1.331   0.307  25.003  0.00  0.00    +0.077 A 
ATOM     21  C   UNL     1      -0.945  -0.307  25.396  0.00  0.00    +0.054 C 
BRANCH  18  22
ATOM     22  C   UNL     1      -2.870   1.761  24.720  0.00  0.00    +0.083 A 
ATOM     23  C   UNL     1      -3.572   1.546  24.344  0.00  0.00    +0.019 A 
ATOM     24  C   UNL     1      -4.224   2.049  24.371  0.00  0.00    -0.002 A 
ATOM     25  C   UNL     1      -4.176   2.767  24.775  0.00  0.00    -0.011 A 
ATOM     26  C   UNL     1      -4.828   3.270  24.803  0.00  0.00    +0.032 C 
ATOM     27  C   UNL     1      -3.474   2.982  25.152  0.00  0.00    +0.055 A 
ATOM     28 CL   UNL     1      -3.425   3.699  25.556  0.00  0.00    -0.083 Cl
ATOM     29  C   UNL     1      -2.820   2.478  25.125  0.00  0.00    +0.030 A 
ENDBRANCH  18  22
ENDBRANCH  12  15
BRANCH  10   9
ATOM      9  N   UNL     1       1.601   0.671  23.208  0.00  0.00    -0.210 NA
BRANCH   9   8
ATOM      8  C   UNL     1       2.092   0.154  22.792  0.00  0.00    +0.115 C 
BRANCH   8   7
ATOM      4  C   UNL     1       4.533   0.162  23.203  0.00  0.00    +0.048 A 
ATOM      5  C   UNL     1       4.167   0.826  22.878  0.00  0.00    +0.014 A 
ATOM      6  C   UNL     1       3.353   0.823  22.741  0.00  0.00    -0.002 A 
ATOM      7  C   UNL     1       2.905   0.156  22.929  0.00  0.00    -0.005 A 
ATOM     30  C   UNL     1       3.271  -0.507  23.254  0.00  0.00    -0.002 A 
ATOM     31  C   UNL     1       4.085  -0.505  23.390  0.00  0.00    +0.014 A 
BRANCH   4   2
ATOM      1  C   UNL     1       5.856  -0.191  22.798  0.00  0.00    +0.112 C 
ATOM      2  N   UNL     1       5.346   0.165  23.339  0.00  0.00    -0.304 N 
ATOM      3  C   UNL     1       5.649   0.522  24.017  0.00  0.00    +0.112 C 
ENDBRANCH   4   2
ENDBRANCH   8   7
ENDBRANCH   9   8
ENDBRANCH  10   9
TORSDOF 6
ENDMDL
MODEL 5
REMARK VINA RESULT:     -10.1      2.711      4.796
REMARK  Name = 
REMARK  6 active torsions:
REMARK  status: ('A' for Active; 'I' for Inactive)
REMARK    1  A    between atoms: N_2  and  C_4
REMARK    2  A    between atoms: C_7  and  C_8
REMARK    3  A    between atoms: C_8  and  N_9
REMARK    4  A    between atoms: N_9  and  C_10
REMARK    5  A    between atoms: C_12  and  C_15
REMARK    6  A    between atoms: N_18  and  C_22
REMARK                            x       y       z     vdW  Elec       q    Type
REMARK                         _______ _______ _______ _____ _____    ______ ____
ROOT
ATOM     10  C   UNL     1      -2.185   3.821  25.379  0.00  0.00    +0.095 C 
ATOM     11  C   UNL     1      -1.806   3.090  25.334  0.00  0.00    +0.031 C 
ATOM     12  C   UNL     1      -1.011   3.226  25.160  0.00  0.00    +0.048 C 
ATOM     13  C   UNL     1      -0.899   4.041  25.097  0.00  0.00    -0.025 C 
ATOM     14  C   UNL     1      -1.625   4.409  25.233  0.00  0.00    -0.013 C 
ENDROOT
BRANCH  12  15
ATOM     15  C   UNL     1      -0.430   2.648  25.065  0.00  0.00    +0.010 A 
ATOM     16  C   UNL     1      -0.273   2.227  24.373  0.00  0.00    +0.058 A 
ATOM     17  C   UNL     1      -0.669   2.310  23.654  0.00  0.00    +0.052 C 
ATOM     18  N   UNL     1       0.351   1.708  24.526  0.00  0.00    -0.234 N 
ATOM     19  N   UNL     1       0.579   1.808  25.312  0.00  0.00    -0.170 NA
ATOM     20  C   UNL     1       0.096   2.389  25.646  0.00  0.00    +0.077 A 
ATOM     21  C   UNL     1       0.133   2.663  26.423  0.00  0.00    +0.054 C 
BRANCH  18  22
ATOM     22  C   UNL     1       0.687   1.181  23.987  0.00  0.00    +0.083 A 
ATOM     23  C   UNL     1       0.253   0.534  23.717  0.00  0.00    +0.019 A 
ATOM     24  C   UNL     1       0.589   0.008  23.179  0.00  0.00    -0.002 A 
ATOM     25  C   UNL     1       1.359   0.129  22.909  0.00  0.00    -0.011 A 
ATOM     26  C   UNL     1       1.695  -0.397  22.371  0.00  0.00    +0.032 C 
ATOM     27  C   UNL     1       1.793   0.776  23.179  0.00  0.00    +0.055 A 
ATOM     28 CL   UNL     1       2.564   0.898  22.910  0.00  0.00    -0.083 Cl
ATOM     29  C   UNL     1       1.457   1.303  23.718  0.00  0.00    +0.030 A 
ENDBRANCH  18  22
ENDBRANCH  12  15
BRANCH  10   9
ATOM      9  N   UNL     1      -2.984   3.944  25.542  0.00  0.00    -0.210 NA
BRANCH   9   8
ATOM      8  C   UNL     1      -3.545   3.864  24.943  0.00  0.00    +0.115 C 
BRANCH   8   7
ATOM      4  C   UNL     1      -5.571   2.493  25.314  0.00  0.00    +0.048 A 
ATOM      5  C   UNL     1      -5.098   2.357  24.653  0.00  0.00    +0.014 A 
ATOM      6  C   UNL     1      -4.421   2.815  24.529  0.00  0.00    -0.002 A 
ATOM      7  C   UNL     1      -4.220   3.407  25.067  0.00  0.00    -0.005 A 
ATOM     30  C   UNL     1      -4.694   3.542  25.728  0.00  0.00    -0.002 A 
ATOM     31  C   UNL     1      -5.370   3.085  25.852  0.00  0.00    +0.014 A 
BRANCH   4   2
ATOM      1  C   UNL     1      -6.663   1.733  24.795  0.00  0.00    +0.112 C 
ATOM      2  N   UNL     1      -6.246   2.035  25.438  0.00  0.00    -0.304 N 
ATOM      3  C   UNL     1      -6.504   1.881  26.206  0.00  0.00    +0.112 C 
ENDBRANCH   4   2
ENDBRANCH   8   7
ENDBRANCH   9   8
ENDBRANCH  10   9
TORSDOF 6
ENDMDL
MODEL 6
REMARK VINA RESULT:      -9.6      1.575      5.839
REMARK  Name = 
REMARK  6 active torsions:
REMARK  status: ('A' for Active; 'I' for Inactive)
REMARK    1  A    between atoms: N_2  and  C_4
REMARK    2  A    between atoms: C_7  and  C_8
REMARK    3  A    between atoms: C_8  and  N_9
REMARK    4  A    between atoms: N_9  and  C_10
REMARK    5  A    between atoms: C_12  and  C_15
REMARK    6  A    between atoms: N_18  and  C_22
REMARK                            x       y       z     vdW  Elec       q    Type
REMARK                         _______ _______ _______ _____ _____    ______ ____
ROOT
ATOM     10  C   UNL     1      -4.336   2.776  25.310  0.00  0.00    +0.095 C 
ATOM     11  C   UNL     1      -3.845   2.214  24.959  0.00  0.00    +0.031 C 
ATOM     12  C   UNL     1      -4.313   1.573  24.732  0.00  0.00    +0.048 C 
ATOM     13  C   UNL     1      -5.093   1.740  24.943  0.00  0.00    -0.025 C 
ATOM     14  C   UNL     1      -5.107   2.484  25.300  0.00  0.00    -0.013 C 
ENDROOT
BRANCH  12  15
ATOM     15  C   UNL     1      -4.048   0.887  24.360  0.00  0.00    +0.010 A 
ATOM     16  C   UNL     1      -4.083   0.122  24.669  0.00  0.00    +0.058 A 
ATOM     17  C   UNL     1      -4.390  -0.090  25.404  0.00  0.00    +0.052 C 
ATOM     18  N   UNL     1      -3.757  -0.393  24.112  0.00  0.00    -0.234 N 
ATOM     19  N   UNL     1      -3.520   0.053  23.460  0.00  0.00    -0.170 NA
ATOM     20  C   UNL     1      -3.700   0.844  23.612  0.00  0.00    +0.077 A 
ATOM     21  C   UNL     1      -3.557   1.480  23.107  0.00  0.00    +0.054 C 
BRANCH  18  22
ATOM     22  C   UNL     1      -3.681  -1.211  24.195  0.00  0.00    +0.083 A 
ATOM     23  C   UNL     1      -4.294  -1.708  23.954  0.00  0.00    +0.019 A 
ATOM     24  C   UNL     1      -4.218  -2.525  24.036  0.00  0.00    -0.002 A 
ATOM     25  C   UNL     1      -3.530  -2.845  24.359  0.00  0.00    -0.011 A 
ATOM     26  C   UNL     1      -3.454  -3.662  24.441  0.00  0.00    +0.032 C 
ATOM     27  C   UNL     1      -2.917  -2.348  24.599  0.00  0.00    +0.055 A 
ATOM     28 CL   UNL     1      -2.228  -2.668  24.922  0.00  0.00    -0.083 Cl
ATOM     29  C   UNL     1      -2.993  -1.530  24.517  0.00  0.00    +0.030 A 
ENDBRANCH  18  22
ENDBRANCH  12  15
BRANCH  10   9
ATOM      9  N   UNL     1      -4.097   3.503  25.617  0.00  0.00    -0.210 NA
BRANCH   9   8
ATOM      8  C   UNL     1      -3.408   3.555  26.067  0.00  0.00    +0.115 C 
BRANCH   8   7
ATOM      4  C   UNL     1      -1.455   4.805  25.201  0.00  0.00    +0.048 A 
ATOM      5  C   UNL     1      -1.357   4.044  25.502  0.00  0.00    +0.014 A 
ATOM      6  C   UNL     1      -2.008   3.627  25.791  0.00  0.00    -0.002 A 
ATOM      7  C   UNL     1      -2.757   3.972  25.778  0.00  0.00    -0.005 A 
ATOM     30  C   UNL     1      -2.855   4.733  25.477  0.00  0.00    -0.002 A 
ATOM     31  C   UNL     1      -2.203   5.150  25.188  0.00  0.00    +0.014 A 
BRANCH   4   2
ATOM      1  C   UNL     1      -0.834   6.043  24.851  0.00  0.00    +0.112 C 
ATOM      2  N   UNL     1      -0.804   5.221  24.913  0.00  0.00    -0.304 N 
ATOM      3  C   UNL     1      -0.123   4.816  24.686  0.00  0.00    +0.112 C 
ENDBRANCH   4   2
ENDBRANCH   8   7
ENDBRANCH   9   8
ENDBRANCH  10   9
TORSDOF 6
ENDMDL
MODEL 7
REMARK VINA RESULT:      -9.5      2.124      3.083
REMARK  Name = 
REMARK  6 active torsions:
REMARK  status: ('A' for Active; 'I' for Inactive)
REMARK    1  A    between atoms: N_2  and  C_4
REMARK    2  A    between atoms: C_7  and  C_8
REMARK    3  A    between atoms: C_8  and  N_9
REMARK    4  A    between atoms: N_9  and  C_10
REMARK    5  A    between atoms: C_12  and  C_15
REMARK    6  A    between atoms: N_18  and  C_22
REMARK                            x       y       z     vdW  Elec       q    Type
REMARK                         _______ _______ _______ _____ _____    ______ ____
ROOT
ATOM     10  C   UNL     1      -0.388   0.067  24.421  0.00  0.00    +0.095 C 
ATOM     11  C   UNL     1      -0.691   0.682  24.880  0.00  0.00    +0.031 C 
ATOM     12  C   UNL     1      -0.216   1.346  24.760  0.00  0.00    +0.048 C 
ATOM     13  C   UNL     1       0.380   1.141  24.228  0.00  0.00    -0.025 C 
ATOM     14  C   UNL     1       0.273   0.350  24.019  0.00  0.00    -0.013 C 
ENDROOT
BRANCH  12  15
ATOM     15  C   UNL     1      -0.319   2.086  25.111  0.00  0.00    +0.010 A 
ATOM     16  C   UNL     1      -0.764   2.710  24.806  0.00  0.00    +0.058 A 
ATOM     17  C   UNL     1      -1.183   2.705  24.096  0.00  0.00    +0.052 C 
ATOM     18  N   UNL     1      -0.715   3.341  25.336  0.00  0.00    -0.234 N 
ATOM     19  N   UNL     1      -0.241   3.107  25.968  0.00  0.00    -0.170 NA
ATOM     20  C   UNL     1       0.004   2.330  25.830  0.00  0.00    +0.077 A 
ATOM     21  C   UNL     1       0.488   1.879  26.323  0.00  0.00    +0.054 C 
BRANCH  18  22
ATOM     22  C   UNL     1      -1.078   4.077  25.248  0.00  0.00    +0.083 A 
ATOM     23  C   UNL     1      -0.680   4.689  24.864  0.00  0.00    +0.019 A 
ATOM     24  C   UNL     1      -1.043   5.425  24.776  0.00  0.00    -0.002 A 
ATOM     25  C   UNL     1      -1.803   5.549  25.073  0.00  0.00    -0.011 A 
ATOM     26  C   UNL     1      -2.165   6.284  24.985  0.00  0.00    +0.032 C 
ATOM     27  C   UNL     1      -2.200   4.936  25.457  0.00  0.00    +0.055 A 
ATOM     28 CL   UNL     1      -2.960   5.059  25.754  0.00  0.00    -0.083 Cl
ATOM     29  C   UNL     1      -1.837   4.200  25.545  0.00  0.00    +0.030 A 
ENDBRANCH  18  22
ENDBRANCH  12  15
BRANCH  10   9
ATOM      9  N   UNL     1      -0.693  -0.698  24.374  0.00  0.00    -0.210 NA
BRANCH   9   8
ATOM      8  C   UNL     1      -1.176  -0.988  24.977  0.00  0.00    +0.115 C 
BRANCH   8   7
ATOM      4  C   UNL     1      -3.142  -2.386  24.428  0.00  0.00    +0.048 A 
ATOM      5  C   UNL     1      -2.385  -2.642  24.225  0.00  0.00    +0.014 A 
ATOM      6  C   UNL     1      -1.729  -2.175  24.408  0.00  0.00    -0.002 A 
ATOM      7  C   UNL     1      -1.831  -1.454  24.794  0.00  0.00    -0.005 A 
ATOM     30  C   UNL     1      -2.588  -1.198  24.997  0.00  0.00    -0.002 A 
ATOM     31  C   UNL     1      -3.245  -1.665  24.813  0.00  0.00    +0.014 A 
BRANCH   4   2
ATOM      1  C   UNL     1      -4.410  -2.541  23.789  0.00  0.00    +0.112 C 
ATOM      2  N   UNL     1      -3.798  -2.852  24.244  0.00  0.00    -0.304 N 
ATOM      3  C   UNL     1      -3.840  -3.629  24.517  0.00  0.00    +0.112 C 
ENDBRANCH   4   2
ENDBRANCH   8   7
ENDBRANCH   9   8
ENDBRANCH  10   9
TORSDOF 6
ENDMDL
MODEL 8
REMARK VINA RESULT:      -9.3      2.232      5.870
REMARK  Name = 
REMARK  6 active torsions:
REMARK  status: ('A' for Active; 'I' for Inactive)
REMARK    1  A    between atoms: N_2  and  C_4
REMARK    2  A    between atoms: C_7  and  C_8
REMARK    3  A    between atoms: C_8  and  N_9
REMARK    4  A    between atoms: N_9  and  C_10
REMARK    5  A    between atoms: C_12  and  C_15
REMARK    6  A    between atoms: N_18  and  C_22
REMARK                            x       y       z     vdW  Elec       q    Type
REMARK                         _______ _______ _______ _____ _____    ______ ____
ROOT
ATOM     10  C   UNL     1      -1.196   2.687  25.579  0.00  0.00    +0.095 C 
ATOM     11  C   UNL     1      -1.518   2.013  25.229  0.00  0.00    +0.031 C 
ATOM     12  C   UNL     1      -0.912   1.459  25.140  0.00  0.00    +0.048 C 
ATOM     13  C   UNL     1      -0.217   1.791  25.435  0.00  0.00    -0.025 C 
ATOM     14  C   UNL     1      -0.394   2.551  25.706  0.00  0.00    -0.013 C 
ENDROOT
BRANCH  12  15
ATOM     15  C   UNL     1      -0.989   0.705  24.813  0.00  0.00    +0.010 A 
ATOM     16  C   UNL     1      -1.563   0.147  25.011  0.00  0.00    +0.058 A 
ATOM     17  C   UNL     1      -2.161   0.243  25.570  0.00  0.00    +0.052 C 
ATOM     18  N   UNL     1      -1.433  -0.526  24.551  0.00  0.00    -0.234 N 
ATOM     19  N   UNL     1      -0.779  -0.383  24.069  0.00  0.00    -0.170 NA
ATOM     20  C   UNL     1      -0.504   0.378  24.231  0.00  0.00    +0.077 A 
ATOM     21  C   UNL     1       0.142   0.747  23.873  0.00  0.00    +0.054 C 
BRANCH  18  22
ATOM     22  C   UNL     1      -1.879  -1.220  24.570  0.00  0.00    +0.083 A 
ATOM     23  C   UNL     1      -1.566  -1.903  24.910  0.00  0.00    +0.019 A 
ATOM     24  C   UNL     1      -2.012  -2.596  24.929  0.00  0.00    -0.002 A 
ATOM     25  C   UNL     1      -2.772  -2.607  24.607  0.00  0.00    -0.011 A 
ATOM     26  C   UNL     1      -3.218  -3.300  24.626  0.00  0.00    +0.032 C 
ATOM     27  C   UNL     1      -3.085  -1.924  24.267  0.00  0.00    +0.055 A 
ATOM     28 CL   UNL     1      -3.845  -1.935  23.945  0.00  0.00    -0.083 Cl
ATOM     29  C   UNL     1      -2.639  -1.230  24.248  0.00  0.00    +0.030 A 
ENDBRANCH  18  22
ENDBRANCH  12  15
BRANCH  10   9
ATOM      9  N   UNL     1      -1.607   3.377  25.768  0.00  0.00    -0.210 NA
BRANCH   9   8
ATOM      8  C   UNL     1      -2.064   3.755  25.195  0.00  0.00    +0.115 C 
BRANCH   8   7
ATOM      4  C   UNL     1      -4.525   3.852  25.439  0.00  0.00    +0.048 A 
ATOM      5  C   UNL     1      -4.190   3.702  24.701  0.00  0.00    +0.014 A 
ATOM      6  C   UNL     1      -3.368   3.670  24.619  0.00  0.00    -0.002 A 
ATOM      7  C   UNL     1      -2.884   3.788  25.277  0.00  0.00    -0.005 A 
ATOM     30  C   UNL     1      -3.220   3.937  26.014  0.00  0.00    -0.002 A 
ATOM     31  C   UNL     1      -4.041   3.969  26.096  0.00  0.00    +0.014 A 
BRANCH   4   2
ATOM      1  C   UNL     1      -5.764   3.211  25.747  0.00  0.00    +0.112 C 
ATOM      2  N   UNL     1      -5.346   3.884  25.520  0.00  0.00    -0.304 N 
ATOM      3  C   UNL     1      -5.747   4.589  25.373  0.00  0.00    +0.112 C 
ENDBRANCH   4   2
ENDBRANCH   8   7
ENDBRANCH   9   8
ENDBRANCH  10   9
TORSDOF 6
ENDMDL
MODEL 9
REMARK VINA RESULT:      -8.2     14.427     16.622
REMARK  Name = 
REMARK  6 active torsions:
REMARK  status: ('A' for Active; 'I' for Inactive)
REMARK    1  A    between atoms: N_2  and  C_4
REMARK    2  A    between atoms: C_7  and  C_8
REMARK    3  A    between atoms: C_8  and  N_9
REMARK    4  A    between atoms: N_9  and  C_10
REMARK    5  A    between atoms: C_12  and  C_15
REMARK    6  A    between atoms: N_18  and  C_22
REMARK                            x       y       z     vdW  Elec       q    Type
REMARK                         _______ _______ _______ _____ _____    ______ ____
ROOT
ATOM     10  C   UNL     1      -5.452 -10.084  13.953  0.00  0.00    +0.095 C 
ATOM     11  C   UNL     1      -5.936  -9.658  14.467  0.00  0.00    +0.031 C 
ATOM     12  C   UNL     1      -6.003 -10.089  15.168  0.00  0.00    +0.048 C 
ATOM     13  C   UNL     1      -5.561 -10.780  15.086  0.00  0.00    -0.025 C 
ATOM     14  C   UNL     1      -5.220 -10.777  14.334  0.00  0.00    -0.013 C 
ENDROOT
BRANCH  12  15
ATOM     15  C   UNL     1      -6.437  -9.866  15.833  0.00  0.00    +0.010 A 
ATOM     16  C   UNL     1      -7.259  -9.818  15.883  0.00  0.00    +0.058 A 
ATOM     17  C   UNL     1      -7.792  -9.982  15.275  0.00  0.00    +0.052 C 
ATOM     18  N   UNL     1      -7.455  -9.575  16.647  0.00  0.00    -0.234 N 
ATOM     19  N   UNL     1      -6.754  -9.474  17.070  0.00  0.00    -0.170 NA
ATOM     20  C   UNL     1      -6.124  -9.654  16.567  0.00  0.00    +0.077 A 
ATOM     21  C   UNL     1      -5.323  -9.626  16.764  0.00  0.00    +0.054 C 
BRANCH  18  22
ATOM     22  C   UNL     1      -8.218  -9.454  16.937  0.00  0.00    +0.083 A 
ATOM     23  C   UNL     1      -8.637 -10.083  17.268  0.00  0.00    +0.019 A 
ATOM     24  C   UNL     1      -9.400  -9.962  17.558  0.00  0.00    -0.002 A 
ATOM     25  C   UNL     1      -9.743  -9.213  17.518  0.00  0.00    -0.011 A 
ATOM     26  C   UNL     1     -10.506  -9.093  17.807  0.00  0.00    +0.032 C 
ATOM     27  C   UNL     1      -9.324  -8.585  17.187  0.00  0.00    +0.055 A 
ATOM     28 CL   UNL     1      -9.666  -7.835  17.147  0.00  0.00    -0.083 Cl
ATOM     29  C   UNL     1      -8.561  -8.705  16.897  0.00  0.00    +0.030 A 
ENDBRANCH  18  22
ENDBRANCH  12  15
BRANCH  10   9
ATOM      9  N   UNL     1      -5.237  -9.856  13.190  0.00  0.00    -0.210 NA
BRANCH   9   8
ATOM      8  C   UNL     1      -5.745 -10.001  12.557  0.00  0.00    +0.115 C 
BRANCH   8   7
ATOM      4  C   UNL     1      -5.075  -9.371  10.259  0.00  0.00    +0.048 A 
ATOM      5  C   UNL     1      -5.302  -8.788  10.797  0.00  0.00    +0.014 A 
ATOM      6  C   UNL     1      -5.526  -8.999  11.563  0.00  0.00    -0.002 A 
ATOM      7  C   UNL     1      -5.522  -9.791  11.791  0.00  0.00    -0.005 A 
ATOM     30  C   UNL     1      -5.294 -10.373  11.253  0.00  0.00    -0.002 A 
ATOM     31  C   UNL     1      -5.071 -10.163  10.487  0.00  0.00    +0.014 A 
BRANCH   4   2
ATOM      1  C   UNL     1      -5.402  -9.192   8.880  0.00  0.00    +0.112 C 
ATOM      2  N   UNL     1      -4.851  -9.160   9.493  0.00  0.00    -0.304 N 
ATOM      3  C   UNL     1      -4.078  -8.918   9.341  0.00  0.00    +0.112 C 
ENDBRANCH   4   2
ENDBRANCH   8   7
ENDBRANCH   9   8
ENDBRANCH  10   9
TORSDOF 6
ENDMDL
