MODEL 1
REMARK VINA RESULT:     -11.9      0.000      0.000
REMARK  Name = 
REMARK  5 active torsions:
REMARK  status: ('A' for Active; 'I' for Inactive)
REMARK    1  A    between atoms: C_2  and  C_4
REMARK    2  A    between atoms: C_4  and  C_5
REMARK    3  A    between atoms: C_7  and  C_21
REMARK    4  A    between atoms: N_11  and  C_12
REMARK    5  A    between atoms: C_12  and  C_13
REMARK                            x       y       z     vdW  Elec       q    Type
REMARK                         _______ _______ _______ _____ _____    ______ ____
ROOT
ATOM      5  C   UNL     1      -3.290   0.841  24.487  0.00  0.00    +0.095 C 
ATOM      6  N   UNL     1      -2.602   0.419  24.655  0.00  0.00    -0.207 NA
ATOM      7  C   UNL     1      -1.875   0.705  24.920  0.00  0.00    +0.154 C 
ATOM      8  C   UNL     1      -1.657   1.484  25.083  0.00  0.00    +0.055 C 
ATOM      9  C   UNL     1      -2.112   2.169  25.020  0.00  0.00    -0.002 A 
ATOM     10  C   UNL     1      -1.827   2.922  25.201  0.00  0.00    +0.072 A 
ATOM     11  N   UNL     1      -2.437   3.463  25.073  0.00  0.00    -0.322 N 
ATOM     15  C   UNL     1      -3.099   3.045  24.812  0.00  0.00    +0.060 A 
ATOM     16  C   UNL     1      -2.898   2.245  24.780  0.00  0.00    +0.011 A 
ATOM     17  C   UNL     1      -3.422   1.653  24.543  0.00  0.00    -0.005 A 
ATOM     18  C   UNL     1      -4.215   1.932  24.324  0.00  0.00    -0.003 A 
ATOM     19  C   UNL     1      -4.416   2.732  24.356  0.00  0.00    +0.001 A 
ATOM     20  C   UNL     1      -3.857   3.288  24.601  0.00  0.00    +0.017 A 
ENDROOT
BRANCH   7  21
ATOM     21  C   UNL     1      -1.288   0.137  25.038  0.00  0.00    +0.242 C 
ATOM     22  O   UNL     1      -1.287  -0.318  25.726  0.00  0.00    -0.273 OA
ATOM     23  N   UNL     1      -0.703   0.024  24.467  0.00  0.00    -0.276 N 
ATOM     24  C   UNL     1      -0.117  -0.544  24.585  0.00  0.00    +0.111 C 
ATOM     25  C   UNL     1       0.468  -0.657  24.013  0.00  0.00    +0.094 C 
ATOM     26  N   UNL     1       0.467  -0.202  23.325  0.00  0.00    -0.269 NA
ATOM     27  C   UNL     1       1.052  -0.315  22.755  0.00  0.00    +0.090 C 
ATOM     28  C   UNL     1      -0.120   0.366  23.208  0.00  0.00    +0.094 C 
ATOM     29  C   UNL     1      -0.704   0.479  23.779  0.00  0.00    +0.111 C 
ENDBRANCH   7  21
BRANCH   5   4
ATOM      4  C   UNL     1      -3.932   0.391  24.229  0.00  0.00    +0.022 C 
BRANCH   4   2
ATOM      1  C   UNL     1      -3.960  -1.026  24.045  0.00  0.00    +0.000 C 
ATOM      2  C   UNL     1      -4.052  -0.367  24.533  0.00  0.00    +0.002 C 
ATOM      3  C   UNL     1      -4.264  -0.465  25.325  0.00  0.00    +0.000 C 
ENDBRANCH   4   2
ENDBRANCH   5   4
BRANCH  11  12
ATOM     12  C   UNL     1      -2.393   4.279  25.184  0.00  0.00    +0.132 C 
BRANCH  12  13
ATOM     13  C   UNL     1      -1.659   4.649  25.248  0.00  0.00    -0.002 C 
ATOM     14  C   UNL     1      -1.603   5.469  25.182  0.00  0.00    -0.003 C 
ENDBRANCH  12  13
ENDBRANCH  11  12
TORSDOF 5
ENDMDL
MODEL 2
REMARK VINA RESULT:     -11.6      1.795      4.824
REMARK  Name = 
REMARK  5 active torsions:
REMARK  status: ('A' for Active; 'I' for Inactive)
REMARK    1  A    between atoms: C_2  and  C_4
REMARK    2  A    between atoms: C_4  and  C_5
REMARK    3  A    between atoms: C_7  and  C_21
REMARK    4  A    between atoms: N_11  and  C_12
REMARK    5  A    between atoms: C_12  and  C_13
REMARK                            x       y       z     vdW  Elec       q    Type
REMARK                         _______ _______ _______ _____ _____    ______ ____
ROOT
ATOM      5  C   UNL     1      -1.468   1.203  25.202  0.00  0.00    +0.095 C 
ATOM      6  N   UNL     1      -1.925   1.768  24.811  0.00  0.00    -0.207 NA
ATOM      7  C   UNL     1      -2.603   1.655  24.354  0.00  0.00    +0.154 C 
ATOM      8  C   UNL     1      -2.991   0.950  24.176  0.00  0.00    +0.055 C 
ATOM      9  C   UNL     1      -2.798   0.183  24.410  0.00  0.00    -0.002 A 
ATOM     10  C   UNL     1      -3.234  -0.483  24.193  0.00  0.00    +0.072 A 
ATOM     11  N   UNL     1      -2.875  -1.145  24.529  0.00  0.00    -0.322 N 
ATOM     15  C   UNL     1      -2.215  -0.889  24.955  0.00  0.00    +0.060 A 
ATOM     16  C   UNL     1      -2.168  -0.068  24.881  0.00  0.00    +0.011 A 
ATOM     17  C   UNL     1      -1.576   0.387  25.233  0.00  0.00    -0.005 A 
ATOM     18  C   UNL     1      -0.995  -0.063  25.696  0.00  0.00    -0.003 A 
ATOM     19  C   UNL     1      -1.042  -0.883  25.770  0.00  0.00    +0.001 A 
ATOM     20  C   UNL     1      -1.653  -1.296  25.399  0.00  0.00    +0.017 A 
ENDROOT
BRANCH   7  21
ATOM     21  C   UNL     1      -2.936   2.339  24.033  0.00  0.00    +0.242 C 
ATOM     22  O   UNL     1      -2.652   2.640  23.320  0.00  0.00    -0.273 OA
ATOM     23  N   UNL     1      -3.553   2.720  24.427  0.00  0.00    -0.276 N 
ATOM     24  C   UNL     1      -3.886   3.403  24.106  0.00  0.00    +0.111 C 
ATOM     25  C   UNL     1      -4.503   3.784  24.500  0.00  0.00    +0.094 C 
ATOM     26  N   UNL     1      -4.786   3.483  25.214  0.00  0.00    -0.269 NA
ATOM     27  C   UNL     1      -5.403   3.864  25.607  0.00  0.00    +0.090 C 
ATOM     28  C   UNL     1      -4.453   2.800  25.533  0.00  0.00    +0.094 C 
ATOM     29  C   UNL     1      -3.836   2.418  25.141  0.00  0.00    +0.111 C 
ENDBRANCH   7  21
BRANCH   5   4
ATOM      4  C   UNL     1      -0.817   1.495  25.617  0.00  0.00    +0.022 C 
BRANCH   4   2
ATOM      1  C   UNL     1       0.101   2.009  24.649  0.00  0.00    +0.000 C 
ATOM      2  C   UNL     1      -0.381   2.124  25.309  0.00  0.00    +0.002 C 
ATOM      3  C   UNL     1      -0.426   2.869  25.662  0.00  0.00    +0.000 C 
ENDBRANCH   4   2
ENDBRANCH   5   4
BRANCH  11  12
ATOM     12  C   UNL     1      -3.128  -1.926  24.454  0.00  0.00    +0.132 C 
BRANCH  12  13
ATOM     13  C   UNL     1      -3.860  -2.092  24.110  0.00  0.00    -0.002 C 
ATOM     14  C   UNL     1      -4.098  -2.874  24.006  0.00  0.00    -0.003 C 
ENDBRANCH  12  13
ENDBRANCH  11  12
TORSDOF 5
ENDMDL
MODEL 3
REMARK VINA RESULT:     -11.5      1.408      3.161
REMARK  Name = 
REMARK  5 active torsions:
REMARK  status: ('A' for Active; 'I' for Inactive)
REMARK    1  A    between atoms: C_2  and  C_4
REMARK    2  A    between atoms: C_4  and  C_5
REMARK    3  A    between atoms: C_7  and  C_21
REMARK    4  A    between atoms: N_11  and  C_12
REMARK    5  A    between atoms: C_12  and  C_13
REMARK                            x       y       z     vdW  Elec       q    Type
REMARK                         _______ _______ _______ _____ _____    ______ ____
ROOT
ATOM      5  C   UNL     1      -1.865   2.987  25.287  0.00  0.00    +0.095 C 
ATOM      6  N   UNL     1      -1.531   2.376  24.844  0.00  0.00    -0.207 NA
ATOM      7  C   UNL     1      -1.913   1.778  24.422  0.00  0.00    +0.154 C 
ATOM      8  C   UNL     1      -2.722   1.644  24.339  0.00  0.00    +0.055 C 
ATOM      9  C   UNL     1      -3.351   2.075  24.656  0.00  0.00    -0.002 A 
ATOM     10  C   UNL     1      -4.143   1.883  24.530  0.00  0.00    +0.072 A 
ATOM     11  N   UNL     1      -4.606   2.435  24.932  0.00  0.00    -0.322 N 
ATOM     15  C   UNL     1      -4.100   2.968  25.306  0.00  0.00    +0.060 A 
ATOM     16  C   UNL     1      -3.324   2.746  25.136  0.00  0.00    +0.011 A 
ATOM     17  C   UNL     1      -2.662   3.151  25.416  0.00  0.00    -0.005 A 
ATOM     18  C   UNL     1      -2.839   3.841  25.913  0.00  0.00    -0.003 A 
ATOM     19  C   UNL     1      -3.614   4.064  26.084  0.00  0.00    +0.001 A 
ATOM     20  C   UNL     1      -4.245   3.627  25.780  0.00  0.00    +0.017 A 
ENDROOT
BRANCH   7  21
ATOM     21  C   UNL     1      -1.419   1.244  24.033  0.00  0.00    +0.242 C 
ATOM     22  O   UNL     1      -1.143   1.415  23.275  0.00  0.00    -0.273 OA
ATOM     23  N   UNL     1      -1.202   0.538  24.402  0.00  0.00    -0.276 N 
ATOM     24  C   UNL     1      -0.708   0.004  24.013  0.00  0.00    +0.111 C 
ATOM     25  C   UNL     1      -0.491  -0.701  24.383  0.00  0.00    +0.094 C 
ATOM     26  N   UNL     1      -0.768  -0.872  25.141  0.00  0.00    -0.269 NA
ATOM     27  C   UNL     1      -0.550  -1.577  25.510  0.00  0.00    +0.090 C 
ATOM     28  C   UNL     1      -1.261  -0.337  25.529  0.00  0.00    +0.094 C 
ATOM     29  C   UNL     1      -1.478   0.367  25.161  0.00  0.00    +0.111 C 
ENDBRANCH   7  21
BRANCH   5   4
ATOM      4  C   UNL     1      -1.330   3.501  25.647  0.00  0.00    +0.022 C 
BRANCH   4   2
ATOM      1  C   UNL     1      -0.689   4.303  24.653  0.00  0.00    +0.000 C 
ATOM      2  C   UNL     1      -0.646   3.731  25.246  0.00  0.00    +0.002 C 
ATOM      3  C   UNL     1       0.080   3.390  25.439  0.00  0.00    +0.000 C 
ENDBRANCH   4   2
ENDBRANCH   5   4
BRANCH  11  12
ATOM     12  C   UNL     1      -5.430   2.451  24.956  0.00  0.00    +0.132 C 
BRANCH  12  13
ATOM     13  C   UNL     1      -5.859   1.748  24.911  0.00  0.00    -0.002 C 
ATOM     14  C   UNL     1      -6.684   1.768  24.903  0.00  0.00    -0.003 C 
ENDBRANCH  12  13
ENDBRANCH  11  12
TORSDOF 5
ENDMDL
MODEL 4
REMARK VINA RESULT:     -11.2      1.786      3.709
REMARK  Name = 
REMARK  5 active torsions:
REMARK  status: ('A' for Active; 'I' for Inactive)
REMARK    1  A    between atoms: C_2  and  C_4
REMARK    2  A    between atoms: C_4  and  C_5
REMARK    3  A    between atoms: C_7  and  C_21
REMARK    4  A    between atoms: N_11  and  C_12
REMARK    5  A    between atoms: C_12  and  C_13
REMARK                            x       y       z     vdW  Elec       q    Type
REMARK                         _______ _______ _______ _____ _____    ______ ____
ROOT
ATOM      5  C   UNL     1      -3.668   2.128  24.594  0.00  0.00    +0.095 C 
ATOM      6  N   UNL     1      -2.873   2.257  24.416  0.00  0.00    -0.207 NA
ATOM      7  C   UNL     1      -2.286   1.702  24.249  0.00  0.00    +0.154 C 
ATOM      8  C   UNL     1      -2.350   0.880  24.219  0.00  0.00    +0.055 C 
ATOM      9  C   UNL     1      -3.016   0.410  24.348  0.00  0.00    -0.002 A 
ATOM     10  C   UNL     1      -3.008  -0.413  24.301  0.00  0.00    +0.072 A 
ATOM     11  N   UNL     1      -3.770  -0.686  24.464  0.00  0.00    -0.322 N 
ATOM     15  C   UNL     1      -4.249  -0.031  24.611  0.00  0.00    +0.060 A 
ATOM     16  C   UNL     1      -3.783   0.647  24.540  0.00  0.00    +0.011 A 
ATOM     17  C   UNL     1      -4.073   1.412  24.649  0.00  0.00    -0.005 A 
ATOM     18  C   UNL     1      -4.917   1.459  24.848  0.00  0.00    -0.003 A 
ATOM     19  C   UNL     1      -5.383   0.782  24.919  0.00  0.00    +0.001 A 
ATOM     20  C   UNL     1      -5.049   0.037  24.800  0.00  0.00    +0.017 A 
ENDROOT
BRANCH   7  21
ATOM     21  C   UNL     1      -1.537   2.009  24.092  0.00  0.00    +0.242 C 
ATOM     22  O   UNL     1      -1.315   2.178  23.316  0.00  0.00    -0.273 OA
ATOM     23  N   UNL     1      -1.009   2.147  24.712  0.00  0.00    -0.276 N 
ATOM     24  C   UNL     1      -0.261   2.454  24.554  0.00  0.00    +0.111 C 
ATOM     25  C   UNL     1       0.267   2.592  25.174  0.00  0.00    +0.094 C 
ATOM     26  N   UNL     1       0.045   2.423  25.951  0.00  0.00    -0.269 NA
ATOM     27  C   UNL     1       0.572   2.561  26.570  0.00  0.00    +0.090 C 
ATOM     28  C   UNL     1      -0.704   2.116  26.107  0.00  0.00    +0.094 C 
ATOM     29  C   UNL     1      -1.232   1.978  25.488  0.00  0.00    +0.111 C 
ENDBRANCH   7  21
BRANCH   5   4
ATOM      4  C   UNL     1      -4.117   2.805  24.735  0.00  0.00    +0.022 C 
BRANCH   4   2
ATOM      1  C   UNL     1      -4.157   3.527  23.502  0.00  0.00    +0.000 C 
ATOM      2  C   UNL     1      -3.971   3.495  24.305  0.00  0.00    +0.002 C 
ATOM      3  C   UNL     1      -3.637   4.151  24.679  0.00  0.00    +0.000 C 
ENDBRANCH   4   2
ENDBRANCH   5   4
BRANCH  11  12
ATOM     12  C   UNL     1      -4.011  -1.474  24.477  0.00  0.00    +0.132 C 
BRANCH  12  13
ATOM     13  C   UNL     1      -3.459  -2.077  24.361  0.00  0.00    -0.002 C 
ATOM     14  C   UNL     1      -3.696  -2.866  24.406  0.00  0.00    -0.003 C 
ENDBRANCH  12  13
ENDBRANCH  11  12
TORSDOF 5
ENDMDL
MODEL 5
REMARK VINA RESULT:     -10.9      1.124      4.058
REMARK  Name = 
REMARK  5 active torsions:
REMARK  status: ('A' for Active; 'I' for Inactive)
REMARK    1  A    between atoms: C_2  and  C_4
REMARK    2  A    between atoms: C_4  and  C_5
REMARK    3  A    between atoms: C_7  and  C_21
REMARK    4  A    between atoms: N_11  and  C_12
REMARK    5  A    between atoms: C_12  and  C_13
REMARK                            x       y       z     vdW  Elec       q    Type
REMARK                         _______ _______ _______ _____ _____    ______ ____
ROOT
ATOM      5  C   UNL     1      -2.566  -0.073  24.792  0.00  0.00    +0.095 C 
ATOM      6  N   UNL     1      -2.838   0.660  24.530  0.00  0.00    -0.207 NA
ATOM      7  C   UNL     1      -2.438   1.230  24.086  0.00  0.00    +0.154 C 
ATOM      8  C   UNL     1      -1.666   1.206  23.796  0.00  0.00    +0.055 C 
ATOM      9  C   UNL     1      -1.104   0.607  23.877  0.00  0.00    -0.002 A 
ATOM     10  C   UNL     1      -0.345   0.650  23.558  0.00  0.00    +0.072 A 
ATOM     11  N   UNL     1       0.054  -0.046  23.752  0.00  0.00    -0.322 N 
ATOM     15  C   UNL     1      -0.459  -0.519  24.192  0.00  0.00    +0.060 A 
ATOM     16  C   UNL     1      -1.175  -0.116  24.269  0.00  0.00    +0.011 A 
ATOM     17  C   UNL     1      -1.827  -0.418  24.677  0.00  0.00    -0.005 A 
ATOM     18  C   UNL     1      -1.707  -1.204  25.026  0.00  0.00    -0.003 A 
ATOM     19  C   UNL     1      -0.992  -1.608  24.949  0.00  0.00    +0.001 A 
ATOM     20  C   UNL     1      -0.368  -1.265  24.532  0.00  0.00    +0.017 A 
ENDROOT
BRANCH   7  21
ATOM     21  C   UNL     1      -2.866   1.913  23.910  0.00  0.00    +0.242 C 
ATOM     22  O   UNL     1      -3.337   1.941  23.234  0.00  0.00    -0.273 OA
ATOM     23  N   UNL     1      -2.823   2.567  24.412  0.00  0.00    -0.276 N 
ATOM     24  C   UNL     1      -3.251   3.249  24.236  0.00  0.00    +0.111 C 
ATOM     25  C   UNL     1      -3.208   3.904  24.737  0.00  0.00    +0.094 C 
ATOM     26  N   UNL     1      -2.737   3.875  25.414  0.00  0.00    -0.269 NA
ATOM     27  C   UNL     1      -2.694   4.529  25.914  0.00  0.00    +0.090 C 
ATOM     28  C   UNL     1      -2.310   3.192  25.589  0.00  0.00    +0.094 C 
ATOM     29  C   UNL     1      -2.352   2.538  25.088  0.00  0.00    +0.111 C 
ENDBRANCH   7  21
BRANCH   5   4
ATOM      4  C   UNL     1      -3.105  -0.519  25.229  0.00  0.00    +0.022 C 
BRANCH   4   2
ATOM      1  C   UNL     1      -4.469  -0.131  25.407  0.00  0.00    +0.000 C 
ATOM      2  C   UNL     1      -3.896  -0.556  24.994  0.00  0.00    +0.002 C 
ATOM      3  C   UNL     1      -4.112  -1.018  24.345  0.00  0.00    +0.000 C 
ENDBRANCH   4   2
ENDBRANCH   5   4
BRANCH  11  12
ATOM     12  C   UNL     1       0.829  -0.235  23.544  0.00  0.00    +0.132 C 
BRANCH  12  13
ATOM     13  C   UNL     1       1.188   0.138  22.902  0.00  0.00    -0.002 C 
ATOM     14  C   UNL     1       1.979  -0.014  22.727  0.00  0.00    -0.003 C 
ENDBRANCH  12  13
ENDBRANCH  11  12
TORSDOF 5
ENDMDL
MODEL 6
REMARK VINA RESULT:     -10.8      1.980      2.869
REMARK  Name = 
REMARK  5 active torsions:
REMARK  status: ('A' for Active; 'I' for Inactive)
REMARK    1  A    between atoms: C_2  and  C_4
REMARK    2  A    between atoms: C_4  and  C_5
REMARK    3  A    between atoms: C_7  and  C_21
REMARK    4  A    between atoms: N_11  and  C_12
REMARK    5  A    between atoms: C_12  and  C_13
REMARK                            x       y       z     vdW  Elec       q    Type
REMARK                         _______ _______ _______ _____ _____    ______ ____
ROOT
ATOM      5  C   UNL     1      -4.240   2.323  24.896  0.00  0.00    +0.095 C 
ATOM      6  N   UNL     1      -4.198   1.598  24.505  0.00  0.00    -0.207 NA
ATOM      7  C   UNL     1      -3.531   1.140  24.340  0.00  0.00    +0.154 C 
ATOM      8  C   UNL     1      -2.742   1.295  24.526  0.00  0.00    +0.055 C 
ATOM      9  C   UNL     1      -2.425   1.946  24.922  0.00  0.00    -0.002 A 
ATOM     10  C   UNL     1      -1.620   2.037  25.074  0.00  0.00    +0.072 A 
ATOM     11  N   UNL     1      -1.515   2.750  25.477  0.00  0.00    -0.322 N 
ATOM     15  C   UNL     1      -2.256   3.099  25.573  0.00  0.00    +0.060 A 
ATOM     16  C   UNL     1      -2.819   2.602  25.230  0.00  0.00    +0.011 A 
ATOM     17  C   UNL     1      -3.627   2.770  25.219  0.00  0.00    -0.005 A 
ATOM     18  C   UNL     1      -3.852   3.517  25.598  0.00  0.00    -0.003 A 
ATOM     19  C   UNL     1      -3.290   4.014  25.942  0.00  0.00    +0.001 A 
ATOM     20  C   UNL     1      -2.491   3.805  25.929  0.00  0.00    +0.017 A 
ENDROOT
BRANCH   7  21
ATOM     21  C   UNL     1      -3.672   0.434  23.937  0.00  0.00    +0.242 C 
ATOM     22  O   UNL     1      -3.859   0.449  23.134  0.00  0.00    -0.273 OA
ATOM     23  N   UNL     1      -3.627  -0.286  24.338  0.00  0.00    -0.276 N 
ATOM     24  C   UNL     1      -3.768  -0.991  23.934  0.00  0.00    +0.111 C 
ATOM     25  C   UNL     1      -3.722  -1.711  24.335  0.00  0.00    +0.094 C 
ATOM     26  N   UNL     1      -3.535  -1.725  25.139  0.00  0.00    -0.269 NA
ATOM     27  C   UNL     1      -3.490  -2.445  25.539  0.00  0.00    +0.090 C 
ATOM     28  C   UNL     1      -3.394  -1.020  25.541  0.00  0.00    +0.094 C 
ATOM     29  C   UNL     1      -3.440  -0.300  25.141  0.00  0.00    +0.111 C 
ENDBRANCH   7  21
BRANCH   5   4
ATOM      4  C   UNL     1      -4.996   2.643  24.975  0.00  0.00    +0.022 C 
BRANCH   4   2
ATOM      1  C   UNL     1      -6.166   1.898  24.628  0.00  0.00    +0.000 C 
ATOM      2  C   UNL     1      -5.628   2.159  25.196  0.00  0.00    +0.002 C 
ATOM      3  C   UNL     1      -5.720   1.937  25.986  0.00  0.00    +0.000 C 
ENDBRANCH   4   2
ENDBRANCH   5   4
BRANCH  11  12
ATOM     12  C   UNL     1      -0.796   3.059  25.737  0.00  0.00    +0.132 C 
BRANCH  12  13
ATOM     13  C   UNL     1      -0.138   2.567  25.813  0.00  0.00    -0.002 C 
ATOM     14  C   UNL     1       0.467   2.768  26.336  0.00  0.00    -0.003 C 
ENDBRANCH  12  13
ENDBRANCH  11  12
TORSDOF 5
ENDMDL
MODEL 7
REMARK VINA RESULT:     -10.5      1.668      4.785
REMARK  Name = 
REMARK  5 active torsions:
REMARK  status: ('A' for Active; 'I' for Inactive)
REMARK    1  A    between atoms: C_2  and  C_4
REMARK    2  A    between atoms: C_4  and  C_5
REMARK    3  A    between atoms: C_7  and  C_21
REMARK    4  A    between atoms: N_11  and  C_12
REMARK    5  A    between atoms: C_12  and  C_13
REMARK                            x       y       z     vdW  Elec       q    Type
REMARK                         _______ _______ _______ _____ _____    ______ ____
ROOT
ATOM      5  C   UNL     1      -1.804   3.292  25.345  0.00  0.00    +0.095 C 
ATOM      6  N   UNL     1      -2.532   3.267  24.957  0.00  0.00    -0.207 NA
ATOM      7  C   UNL     1      -2.882   2.634  24.560  0.00  0.00    +0.154 C 
ATOM      8  C   UNL     1      -2.591   1.870  24.454  0.00  0.00    +0.055 C 
ATOM      9  C   UNL     1      -1.878   1.549  24.717  0.00  0.00    -0.002 A 
ATOM     10  C   UNL     1      -1.649   0.770  24.573  0.00  0.00    +0.072 A 
ATOM     11  N   UNL     1      -0.909   0.653  24.920  0.00  0.00    -0.322 N 
ATOM     15  C   UNL     1      -0.681   1.360  25.278  0.00  0.00    +0.060 A 
ATOM     16  C   UNL     1      -1.280   1.914  25.153  0.00  0.00    +0.011 A 
ATOM     17  C   UNL     1      -1.248   2.690  25.432  0.00  0.00    -0.005 A 
ATOM     18  C   UNL     1      -0.528   2.890  25.876  0.00  0.00    -0.003 A 
ATOM     19  C   UNL     1       0.071   2.337  26.001  0.00  0.00    +0.001 A 
ATOM     20  C   UNL     1      -0.006   1.572  25.702  0.00  0.00    +0.017 A 
ENDROOT
BRANCH   7  21
ATOM     21  C   UNL     1      -3.621   2.786  24.226  0.00  0.00    +0.242 C 
ATOM     22  O   UNL     1      -3.672   3.127  23.477  0.00  0.00    -0.273 OA
ATOM     23  N   UNL     1      -4.309   2.596  24.642  0.00  0.00    -0.276 N 
ATOM     24  C   UNL     1      -5.047   2.748  24.308  0.00  0.00    +0.111 C 
ATOM     25  C   UNL     1      -5.734   2.558  24.723  0.00  0.00    +0.094 C 
ATOM     26  N   UNL     1      -5.682   2.217  25.473  0.00  0.00    -0.269 NA
ATOM     27  C   UNL     1      -6.369   2.028  25.888  0.00  0.00    +0.090 C 
ATOM     28  C   UNL     1      -4.944   2.066  25.806  0.00  0.00    +0.094 C 
ATOM     29  C   UNL     1      -4.257   2.255  25.391  0.00  0.00    +0.111 C 
ENDBRANCH   7  21
BRANCH   5   4
ATOM      4  C   UNL     1      -1.609   4.014  25.692  0.00  0.00    +0.022 C 
BRANCH   4   2
ATOM      1  C   UNL     1      -2.335   5.212  25.408  0.00  0.00    +0.000 C 
ATOM      2  C   UNL     1      -1.694   4.714  25.262  0.00  0.00    +0.002 C 
ATOM      3  C   UNL     1      -1.137   4.915  24.687  0.00  0.00    +0.000 C 
ENDBRANCH   4   2
ENDBRANCH   5   4
BRANCH  11  12
ATOM     12  C   UNL     1      -0.474  -0.047  24.910  0.00  0.00    +0.132 C 
BRANCH  12  13
ATOM     13  C   UNL     1      -0.847  -0.764  24.746  0.00  0.00    -0.002 C 
ATOM     14  C   UNL     1      -0.439  -1.474  24.846  0.00  0.00    -0.003 C 
ENDBRANCH  12  13
ENDBRANCH  11  12
TORSDOF 5
ENDMDL
MODEL 8
REMARK VINA RESULT:     -10.2      1.452      4.025
REMARK  Name = 
REMARK  5 active torsions:
REMARK  status: ('A' for Active; 'I' for Inactive)
REMARK    1  A    between atoms: C_2  and  C_4
REMARK    2  A    between atoms: C_4  and  C_5
REMARK    3  A    between atoms: C_7  and  C_21
REMARK    4  A    between atoms: N_11  and  C_12
REMARK    5  A    between atoms: C_12  and  C_13
REMARK                            x       y       z     vdW  Elec       q    Type
REMARK                         _______ _______ _______ _____ _____    ______ ____
ROOT
ATOM      5  C   UNL     1      -4.352   0.991  24.975  0.00  0.00    +0.095 C 
ATOM      6  N   UNL     1      -4.137   1.703  24.618  0.00  0.00    -0.207 NA
ATOM      7  C   UNL     1      -3.420   1.905  24.262  0.00  0.00    +0.154 C 
ATOM      8  C   UNL     1      -2.741   1.444  24.177  0.00  0.00    +0.055 C 
ATOM      9  C   UNL     1      -2.611   0.668  24.426  0.00  0.00    -0.002 A 
ATOM     10  C   UNL     1      -1.902   0.265  24.306  0.00  0.00    +0.072 A 
ATOM     11  N   UNL     1      -1.980  -0.491  24.628  0.00  0.00    -0.322 N 
ATOM     15  C   UNL     1      -2.738  -0.555  24.946  0.00  0.00    +0.060 A 
ATOM     16  C   UNL     1      -3.129   0.161  24.821  0.00  0.00    +0.011 A 
ATOM     17  C   UNL     1      -3.904   0.306  25.066  0.00  0.00    -0.005 A 
ATOM     18  C   UNL     1      -4.290  -0.358  25.471  0.00  0.00    -0.003 A 
ATOM     19  C   UNL     1      -3.900  -1.075  25.596  0.00  0.00    +0.001 A 
ATOM     20  C   UNL     1      -3.124  -1.173  25.333  0.00  0.00    +0.017 A 
ENDROOT
BRANCH   7  21
ATOM     21  C   UNL     1      -3.377   2.668  23.952  0.00  0.00    +0.242 C 
ATOM     22  O   UNL     1      -3.751   2.844  23.238  0.00  0.00    -0.273 OA
ATOM     23  N   UNL     1      -2.959   3.254  24.355  0.00  0.00    -0.276 N 
ATOM     24  C   UNL     1      -2.916   4.017  24.045  0.00  0.00    +0.111 C 
ATOM     25  C   UNL     1      -2.498   4.603  24.449  0.00  0.00    +0.094 C 
ATOM     26  N   UNL     1      -2.124   4.426  25.163  0.00  0.00    -0.269 NA
ATOM     27  C   UNL     1      -1.706   5.012  25.566  0.00  0.00    +0.090 C 
ATOM     28  C   UNL     1      -2.168   3.663  25.472  0.00  0.00    +0.094 C 
ATOM     29  C   UNL     1      -2.585   3.077  25.069  0.00  0.00    +0.111 C 
ENDBRANCH   7  21
BRANCH   5   4
ATOM      4  C   UNL     1      -5.117   0.963  25.282  0.00  0.00    +0.022 C 
BRANCH   4   2
ATOM      1  C   UNL     1      -6.075   1.816  24.653  0.00  0.00    +0.000 C 
ATOM      2  C   UNL     1      -5.583   1.644  25.292  0.00  0.00    +0.002 C 
ATOM      3  C   UNL     1      -5.557   2.152  25.942  0.00  0.00    +0.000 C 
ENDBRANCH   4   2
ENDBRANCH   5   4
BRANCH  11  12
ATOM     12  C   UNL     1      -1.402  -1.079  24.631  0.00  0.00    +0.132 C 
BRANCH  12  13
ATOM     13  C   UNL     1      -0.614  -0.885  24.485  0.00  0.00    -0.002 C 
ATOM     14  C   UNL     1      -0.030  -1.465  24.543  0.00  0.00    -0.003 C 
ENDBRANCH  12  13
ENDBRANCH  11  12
TORSDOF 5
ENDMDL
MODEL 9
REMARK VINA RESULT:     -10.2      1.417      3.109
REMARK  Name = 
REMARK  5 active torsions:
REMARK  status: ('A' for Active; 'I' for Inactive)
REMARK    1  A    between atoms: C_2  and  C_4
REMARK    2  A    between atoms: C_4  and  C_5
REMARK    3  A    between atoms: C_7  and  C_21
REMARK    4  A    between atoms: N_11  and  C_12
REMARK    5  A    between atoms: C_12  and  C_13
REMARK                            x       y       z     vdW  Elec       q    Type
REMARK                         _______ _______ _______ _____ _____    ______ ____
ROOT
ATOM      5  C   UNL     1      -2.022   0.982  24.177  0.00  0.00    +0.095 C 
ATOM      6  N   UNL     1      -2.160   0.266  24.564  0.00  0.00    -0.207 NA
ATOM      7  C   UNL     1      -2.817   0.041  25.009  0.00  0.00    +0.154 C 
ATOM      8  C   UNL     1      -3.497   0.476  25.178  0.00  0.00    +0.055 C 
ATOM      9  C   UNL     1      -3.689   1.244  24.943  0.00  0.00    -0.002 A 
ATOM     10  C   UNL     1      -4.393   1.620  25.150  0.00  0.00    +0.072 A 
ATOM     11  N   UNL     1      -4.387   2.375  24.817  0.00  0.00    -0.322 N 
ATOM     15  C   UNL     1      -3.679   2.465  24.403  0.00  0.00    +0.060 A 
ATOM     16  C   UNL     1      -3.247   1.766  24.481  0.00  0.00    +0.011 A 
ATOM     17  C   UNL     1      -2.505   1.648  24.141  0.00  0.00    -0.005 A 
ATOM     18  C   UNL     1      -2.200   2.322  23.685  0.00  0.00    -0.003 A 
ATOM     19  C   UNL     1      -2.631   3.021  23.606  0.00  0.00    +0.001 A 
ATOM     20  C   UNL     1      -3.371   3.092  23.966  0.00  0.00    +0.017 A 
ENDROOT
BRANCH   7  21
ATOM     21  C   UNL     1      -2.790  -0.720  25.328  0.00  0.00    +0.242 C 
ATOM     22  O   UNL     1      -2.394  -0.855  26.038  0.00  0.00    -0.273 OA
ATOM     23  N   UNL     1      -3.160  -1.345  24.935  0.00  0.00    -0.276 N 
ATOM     24  C   UNL     1      -3.133  -2.104  25.253  0.00  0.00    +0.111 C 
ATOM     25  C   UNL     1      -3.502  -2.729  24.861  0.00  0.00    +0.094 C 
ATOM     26  N   UNL     1      -3.898  -2.593  24.150  0.00  0.00    -0.269 NA
ATOM     27  C   UNL     1      -4.267  -3.218  23.758  0.00  0.00    +0.090 C 
ATOM     28  C   UNL     1      -3.925  -1.833  23.832  0.00  0.00    +0.094 C 
ATOM     29  C   UNL     1      -3.556  -1.208  24.224  0.00  0.00    +0.111 C 
ENDBRANCH   7  21
BRANCH   5   4
ATOM      4  C   UNL     1      -1.304   1.037  23.774  0.00  0.00    +0.022 C 
BRANCH   4   2
ATOM      1  C   UNL     1      -0.257   0.065  23.825  0.00  0.00    +0.000 C 
ATOM      2  C   UNL     1      -0.613   0.748  24.121  0.00  0.00    +0.002 C 
ATOM      3  C   UNL     1      -0.278   1.142  24.765  0.00  0.00    +0.000 C 
ENDBRANCH   4   2
ENDBRANCH   5   4
BRANCH  11  12
ATOM     12  C   UNL     1      -4.983   2.941  24.884  0.00  0.00    +0.132 C 
BRANCH  12  13
ATOM     13  C   UNL     1      -5.542   2.882  25.488  0.00  0.00    -0.002 C 
ATOM     14  C   UNL     1      -6.015   3.531  25.676  0.00  0.00    -0.003 C 
ENDBRANCH  12  13
ENDBRANCH  11  12
TORSDOF 5
ENDMDL
MODEL 10
REMARK VINA RESULT:     -10.0      1.794      2.486
REMARK  Name = 
REMARK  5 active torsions:
REMARK  status: ('A' for Active; 'I' for Inactive)
REMARK    1  A    between atoms: C_2  and  C_4
REMARK    2  A    between atoms: C_4  and  C_5
REMARK    3  A    between atoms: C_7  and  C_21
REMARK    4  A    between atoms: N_11  and  C_12
REMARK    5  A    between atoms: C_12  and  C_13
REMARK                            x       y       z     vdW  Elec       q    Type
REMARK                         _______ _______ _______ _____ _____    ______ ____
ROOT
ATOM      5  C   UNL     1      -3.817   0.567  24.820  0.00  0.00    +0.095 C 
ATOM      6  N   UNL     1      -3.095   0.816  24.506  0.00  0.00    -0.207 NA
ATOM      7  C   UNL     1      -2.847   1.583  24.332  0.00  0.00    +0.154 C 
ATOM      8  C   UNL     1      -3.258   2.291  24.430  0.00  0.00    +0.055 C 
ATOM      9  C   UNL     1      -4.020   2.407  24.724  0.00  0.00    -0.002 A 
ATOM     10  C   UNL     1      -4.373   3.150  24.794  0.00  0.00    +0.072 A 
ATOM     11  N   UNL     1      -5.129   3.045  25.108  0.00  0.00    -0.322 N 
ATOM     15  C   UNL     1      -5.244   2.238  25.232  0.00  0.00    +0.060 A 
ATOM     16  C   UNL     1      -4.559   1.843  24.995  0.00  0.00    +0.011 A 
ATOM     17  C   UNL     1      -4.467   1.024  25.037  0.00  0.00    -0.005 A 
ATOM     18  C   UNL     1      -5.153   0.595  25.353  0.00  0.00    -0.003 A 
ATOM     19  C   UNL     1      -5.838   0.989  25.590  0.00  0.00    +0.001 A 
ATOM     20  C   UNL     1      -5.883   1.810  25.529  0.00  0.00    +0.017 A 
ENDROOT
BRANCH   7  21
ATOM     21  C   UNL     1      -2.086   1.651  24.021  0.00  0.00    +0.242 C 
ATOM     22  O   UNL     1      -1.959   1.533  23.214  0.00  0.00    -0.273 OA
ATOM     23  N   UNL     1      -1.452   1.836  24.516  0.00  0.00    -0.276 N 
ATOM     24  C   UNL     1      -0.692   1.904  24.205  0.00  0.00    +0.111 C 
ATOM     25  C   UNL     1      -0.058   2.089  24.700  0.00  0.00    +0.094 C 
ATOM     26  N   UNL     1      -0.186   2.207  25.507  0.00  0.00    -0.269 NA
ATOM     27  C   UNL     1       0.447   2.392  26.001  0.00  0.00    +0.090 C 
ATOM     28  C   UNL     1      -0.946   2.139  25.817  0.00  0.00    +0.094 C 
ATOM     29  C   UNL     1      -1.580   1.954  25.323  0.00  0.00    +0.111 C 
ENDBRANCH   7  21
BRANCH   5   4
ATOM      4  C   UNL     1      -3.897  -0.246  24.930  0.00  0.00    +0.022 C 
BRANCH   4   2
ATOM      1  C   UNL     1      -3.991  -0.857  23.641  0.00  0.00    +0.000 C 
ATOM      2  C   UNL     1      -3.603  -0.770  24.364  0.00  0.00    +0.002 C 
ATOM      3  C   UNL     1      -2.921  -1.208  24.522  0.00  0.00    +0.000 C 
ENDBRANCH   4   2
ENDBRANCH   5   4
BRANCH  11  12
ATOM     12  C   UNL     1      -5.674   3.642  25.269  0.00  0.00    +0.132 C 
BRANCH  12  13
ATOM     13  C   UNL     1      -5.414   4.413  25.408  0.00  0.00    -0.002 C 
ATOM     14  C   UNL     1      -5.961   5.009  25.571  0.00  0.00    -0.003 C 
ENDBRANCH  12  13
ENDBRANCH  11  12
TORSDOF 5
ENDMDL
