MODEL 1
REMARK VINA RESULT:     -11.7      0.000      0.000
REMARK  Name = 
REMARK  8 active torsions:
REMARK  status: ('A' for Active; 'I' for Inactive)
REMARK    1  A    between atoms: O_2  and  C_3
REMARK    2  A    between atoms: C_6  and  C_11
REMARK    3  A    between atoms: C_8  and  O_9
REMARK    4  A    between atoms: C_15  and  C_17
REMARK    5  A    between atoms: C_24  and  C_25
REMARK    6  A    between atoms: C_25  and  N_26
REMARK    7  A    between atoms: C_27  and  C_29
REMARK    8  A    between atoms: C_32  and  C_35
REMARK                            x       y       z     vdW  Elec       q    Type
REMARK                         _______ _______ _______ _____ _____    ______ ____
ROOT
ATOM     17  C   UNL     1      -0.649   0.952  24.031  0.00  0.00    +0.056 C 
ATOM     18  C   UNL     1      -0.223   1.428  23.585  0.00  0.00    +0.078 C 
ATOM     19  N   UNL     1      -0.127   0.611  23.657  0.00  0.00    -0.272 NA
ATOM     20  C   UNL     1      -0.854   0.272  24.332  0.00  0.00    +0.072 C 
ATOM     21  C   UNL     1      -1.140  -0.214  24.662  0.00  0.00    +0.018 C 
ATOM     22  C   UNL     1      -0.548   0.152  24.097  0.00  0.00    +0.010 C 
ATOM     23  C   UNL     1       0.022  -0.402  23.723  0.00  0.00    +0.018 C 
ATOM     24  C   UNL     1       0.462   0.030  23.273  0.00  0.00    +0.079 C 
ENDROOT
BRANCH  17  15
ATOM     11  C   UNL     1      -2.462   1.699  24.877  0.00  0.00    +0.102 A 
ATOM     12  N   UNL     1      -1.912   1.938  25.443  0.00  0.00    -0.170 NA
ATOM     13  N   UNL     1      -1.166   1.687  25.195  0.00  0.00    -0.253 N 
ATOM     14  C   UNL     1      -0.455   1.809  25.596  0.00  0.00    +0.153 C 
ATOM     15  C   UNL     1      -1.255   1.294  24.476  0.00  0.00    +0.058 A 
ATOM     16  C   UNL     1      -2.056   1.300  24.278  0.00  0.00    +0.035 A 
BRANCH  11   6
ATOM      3  C   UNL     1      -4.902   2.106  24.957  0.00  0.00    +0.172 A 
ATOM      4  C   UNL     1      -4.611   1.335  24.997  0.00  0.00    +0.040 A 
ATOM      5  C   UNL     1      -3.798   1.199  24.970  0.00  0.00    +0.005 A 
ATOM      6  C   UNL     1      -3.275   1.834  24.903  0.00  0.00    +0.023 A 
ATOM      7  C   UNL     1      -3.566   2.605  24.863  0.00  0.00    +0.042 A 
ATOM      8  C   UNL     1      -4.381   2.741  24.890  0.00  0.00    +0.172 A 
BRANCH   3   2
ATOM      1  C   UNL     1      -6.238   1.604  25.025  0.00  0.00    +0.253 C 
ATOM      2  O   UNL     1      -5.715   2.241  24.983  0.00  0.00    -0.468 OA
ENDBRANCH   3   2
BRANCH   8   9
ATOM      9  O   UNL     1      -4.672   3.512  24.850  0.00  0.00    -0.468 OA
ATOM     10  C   UNL     1      -4.168   4.133  24.647  0.00  0.00    +0.253 C 
ENDBRANCH   8   9
ENDBRANCH  11   6
ENDBRANCH  17  15
BRANCH  24  25
ATOM     25  C   UNL     1       1.097  -0.008  22.748  0.00  0.00    +0.131 C 
BRANCH  25  26
ATOM     26  N   UNL     1       1.870   0.042  23.030  0.00  0.00    -0.200 NA
ATOM     27  C   UNL     1       2.503   0.030  22.502  0.00  0.00    +0.265 C 
ATOM     28  O   UNL     1       2.363  -0.031  21.691  0.00  0.00    -0.268 OA
BRANCH  27  29
ATOM     29  C   UNL     1       3.277   0.080  22.784  0.00  0.00    +0.055 A 
ATOM     30  C   UNL     1       3.707   0.778  22.689  0.00  0.00    +0.005 A 
ATOM     31  C   UNL     1       4.481   0.827  22.971  0.00  0.00    +0.004 A 
ATOM     32  C   UNL     1       4.824   0.179  23.349  0.00  0.00    +0.071 A 
ATOM     33  C   UNL     1       4.394  -0.518  23.444  0.00  0.00    +0.004 A 
ATOM     34  C   UNL     1       3.621  -0.568  23.162  0.00  0.00    +0.005 A 
BRANCH  32  35
ATOM     35  C   UNL     1       5.597   0.228  23.632  0.00  0.00    +0.419 C 
ATOM     36  F   UNL     1       6.371   0.277  23.914  0.00  0.00    -0.166 F 
ATOM     37  F   UNL     1       5.324   0.593  24.318  0.00  0.00    -0.166 F 
ATOM     38  F   UNL     1       5.871  -0.137  22.944  0.00  0.00    -0.166 F 
ENDBRANCH  32  35
ENDBRANCH  27  29
ENDBRANCH  25  26
ENDBRANCH  24  25
TORSDOF 8
ENDMDL
MODEL 2
REMARK VINA RESULT:      -8.0     16.871     18.039
REMARK  Name = 
REMARK  8 active torsions:
REMARK  status: ('A' for Active; 'I' for Inactive)
REMARK    1  A    between atoms: O_2  and  C_3
REMARK    2  A    between atoms: C_6  and  C_11
REMARK    3  A    between atoms: C_8  and  O_9
REMARK    4  A    between atoms: C_15  and  C_17
REMARK    5  A    between atoms: C_24  and  C_25
REMARK    6  A    between atoms: C_25  and  N_26
REMARK    7  A    between atoms: C_27  and  C_29
REMARK    8  A    between atoms: C_32  and  C_35
REMARK                            x       y       z     vdW  Elec       q    Type
REMARK                         _______ _______ _______ _____ _____    ______ ____
ROOT
ATOM     17  C   UNL     1      16.237  -6.427  26.914  0.00  0.00    +0.056 C 
ATOM     18  C   UNL     1      15.909  -6.611  26.232  0.00  0.00    +0.078 C 
ATOM     19  N   UNL     1      16.544  -6.096  26.344  0.00  0.00    -0.272 NA
ATOM     20  C   UNL     1      16.742  -6.067  27.373  0.00  0.00    +0.072 C 
ATOM     21  C   UNL     1      17.090  -5.844  27.879  0.00  0.00    +0.018 C 
ATOM     22  C   UNL     1      16.860  -5.921  27.015  0.00  0.00    +0.010 C 
ATOM     23  C   UNL     1      17.335  -5.451  26.447  0.00  0.00    +0.018 C 
ATOM     24  C   UNL     1      17.042  -5.605  25.758  0.00  0.00    +0.079 C 
ENDROOT
BRANCH  17  15
ATOM     11  C   UNL     1      15.300  -6.952  28.759  0.00  0.00    +0.102 A 
ATOM     12  N   UNL     1      15.576  -7.687  28.506  0.00  0.00    -0.170 NA
ATOM     13  N   UNL     1      15.960  -7.580  27.785  0.00  0.00    -0.253 N 
ATOM     14  C   UNL     1      16.320  -8.170  27.334  0.00  0.00    +0.153 C 
ATOM     15  C   UNL     1      15.922  -6.779  27.592  0.00  0.00    +0.058 A 
ATOM     16  C   UNL     1      15.513  -6.390  28.194  0.00  0.00    +0.035 A 
BRANCH  11   6
ATOM      3  C   UNL     1      14.050  -6.509  30.850  0.00  0.00    +0.172 A 
ATOM      4  C   UNL     1      13.655  -6.515  30.126  0.00  0.00    +0.040 A 
ATOM      5  C   UNL     1      14.071  -6.663  29.429  0.00  0.00    +0.005 A 
ATOM      6  C   UNL     1      14.883  -6.805  29.456  0.00  0.00    +0.023 A 
ATOM      7  C   UNL     1      15.279  -6.799  30.180  0.00  0.00    +0.042 A 
ATOM      8  C   UNL     1      14.862  -6.651  30.877  0.00  0.00    +0.172 A 
BRANCH   3   2
ATOM      1  C   UNL     1      12.817  -6.243  31.521  0.00  0.00    +0.253 C 
ATOM      2  O   UNL     1      13.634  -6.361  31.546  0.00  0.00    -0.468 OA
ENDBRANCH   3   2
BRANCH   8   9
ATOM      9  O   UNL     1      15.258  -6.645  31.601  0.00  0.00    -0.468 OA
ATOM     10  C   UNL     1      16.064  -6.470  31.629  0.00  0.00    +0.253 C 
ENDBRANCH   8   9
ENDBRANCH  11   6
ENDBRANCH  17  15
BRANCH  24  25
ATOM     25  C   UNL     1      17.127  -5.429  24.957  0.00  0.00    +0.131 C 
BRANCH  25  26
ATOM     26  N   UNL     1      16.989  -4.662  24.686  0.00  0.00    -0.200 NA
ATOM     27  C   UNL     1      17.034  -4.497  23.879  0.00  0.00    +0.265 C 
ATOM     28  O   UNL     1      17.216  -5.098  23.344  0.00  0.00    -0.268 OA
BRANCH  27  29
ATOM     29  C   UNL     1      16.897  -3.730  23.607  0.00  0.00    +0.055 A 
ATOM     30  C   UNL     1      16.274  -3.287  23.918  0.00  0.00    +0.005 A 
ATOM     31  C   UNL     1      16.136  -2.521  23.647  0.00  0.00    +0.004 A 
ATOM     32  C   UNL     1      16.622  -2.196  23.064  0.00  0.00    +0.071 A 
ATOM     33  C   UNL     1      17.245  -2.639  22.753  0.00  0.00    +0.004 A 
ATOM     34  C   UNL     1      17.382  -3.405  23.025  0.00  0.00    +0.005 A 
BRANCH  32  35
ATOM     35  C   UNL     1      16.486  -1.430  22.792  0.00  0.00    +0.419 C 
ATOM     36  F   UNL     1      16.350  -0.662  22.520  0.00  0.00    -0.166 F 
ATOM     37  F   UNL     1      15.823  -1.693  22.378  0.00  0.00    -0.166 F 
ATOM     38  F   UNL     1      17.149  -1.166  23.206  0.00  0.00    -0.166 F 
ENDBRANCH  32  35
ENDBRANCH  27  29
ENDBRANCH  25  26
ENDBRANCH  24  25
TORSDOF 8
ENDMDL
