MODEL 1
REMARK VINA RESULT:     -10.0      0.000      0.000
REMARK  Name = 
REMARK  9 active torsions:
REMARK  status: ('A' for Active; 'I' for Inactive)
REMARK    1  A    between atoms: O_2  and  C_3
REMARK    2  A    between atoms: C_3  and  C_4
REMARK    3  A    between atoms: C_4  and  N_5
REMARK    4  A    between atoms: C_6  and  C_8
REMARK    5  A    between atoms: C_8  and  C_9
REMARK    6  A    between atoms: C_11  and  C_12
REMARK    7  A    between atoms: C_15  and  C_16
REMARK    8  A    between atoms: C_16  and  N_17
REMARK    9  A    between atoms: C_18  and  C_20
REMARK                            x       y       z     vdW  Elec       q    Type
REMARK                         _______ _______ _______ _____ _____    ______ ____
ROOT
ATOM      9  C   UNL     1      -4.242   2.099  24.844  0.00  0.00    +0.027 C 
ATOM     10  C   UNL     1      -3.556   1.937  24.416  0.00  0.00    +0.005 C 
ATOM     11  C   UNL     1      -3.371   1.158  24.213  0.00  0.00    +0.006 C 
ATOM     15  C   UNL     1      -3.872   0.543  24.439  0.00  0.00    +0.043 C 
ATOM     26  C   UNL     1      -4.558   0.705  24.868  0.00  0.00    -0.033 C 
ATOM     27  C   UNL     1      -4.743   1.483  25.070  0.00  0.00    -0.048 C 
ATOM     28  C   UNL     1      -5.429   1.645  25.499  0.00  0.00    +0.026 C 
ENDROOT
BRANCH  11  12
ATOM     12  C   UNL     1      -2.684   0.996  23.784  0.00  0.00    +0.000 C 
ATOM     13  C   UNL     1      -2.718   0.930  22.963  0.00  0.00    +0.000 C 
ATOM     14  C   UNL     1      -1.965   0.899  24.177  0.00  0.00    +0.000 C 
ENDBRANCH  11  12
BRANCH   9   8
ATOM      8  C   UNL     1      -4.426   2.877  25.047  0.00  0.00    +0.091 C 
BRANCH   8   6
ATOM      5  N   UNL     1      -3.367   3.795  25.324  0.00  0.00    -0.203 NA
ATOM      6  C   UNL     1      -3.933   3.493  24.805  0.00  0.00    +0.242 C 
ATOM      7  O   UNL     1      -4.006   3.807  24.046  0.00  0.00    -0.273 OA
BRANCH   5   4
ATOM      4  C   UNL     1      -2.874   4.412  25.083  0.00  0.00    +0.147 C 
BRANCH   4   3
ATOM      3  C   UNL     1      -2.180   4.570  25.499  0.00  0.00    +0.166 C 
BRANCH   3   2
ATOM      1  C   UNL     1      -0.895   4.976  25.022  0.00  0.00    +0.174 C 
ATOM      2  O   UNL     1      -1.669   5.164  25.237  0.00  0.00    -0.349 OA
ENDBRANCH   3   2
ENDBRANCH   4   3
ENDBRANCH   5   4
ENDBRANCH   8   6
ENDBRANCH   9   8
BRANCH  15  16
ATOM     16  C   UNL     1      -3.686  -0.236  24.236  0.00  0.00    +0.120 C 
BRANCH  16  17
ATOM     17  N   UNL     1      -4.269  -0.731  23.925  0.00  0.00    -0.201 NA
ATOM     18  C   UNL     1      -4.204  -1.548  24.011  0.00  0.00    +0.266 C 
ATOM     19  O   UNL     1      -4.786  -2.043  23.700  0.00  0.00    -0.268 OA
BRANCH  18  20
ATOM     20  C   UNL     1      -3.558  -1.871  24.409  0.00  0.00    +0.074 A 
ATOM     21  C   UNL     1      -2.895  -2.118  23.985  0.00  0.00    +0.103 A 
ATOM     22  N   UNL     1      -2.248  -2.442  24.383  0.00  0.00    -0.242 NA
ATOM     23  C   UNL     1      -2.265  -2.518  25.204  0.00  0.00    +0.099 A 
ATOM     24  C   UNL     1      -2.929  -2.271  25.628  0.00  0.00    +0.021 A 
ATOM     25  C   UNL     1      -3.575  -1.948  25.230  0.00  0.00    +0.008 A 
ENDBRANCH  18  20
ENDBRANCH  16  17
ENDBRANCH  15  16
TORSDOF 9
ENDMDL
MODEL 2
REMARK VINA RESULT:      -9.4      2.329      4.551
REMARK  Name = 
REMARK  9 active torsions:
REMARK  status: ('A' for Active; 'I' for Inactive)
REMARK    1  A    between atoms: O_2  and  C_3
REMARK    2  A    between atoms: C_3  and  C_4
REMARK    3  A    between atoms: C_4  and  N_5
REMARK    4  A    between atoms: C_6  and  C_8
REMARK    5  A    between atoms: C_8  and  C_9
REMARK    6  A    between atoms: C_11  and  C_12
REMARK    7  A    between atoms: C_15  and  C_16
REMARK    8  A    between atoms: C_16  and  N_17
REMARK    9  A    between atoms: C_18  and  C_20
REMARK                            x       y       z     vdW  Elec       q    Type
REMARK                         _______ _______ _______ _____ _____    ______ ____
ROOT
ATOM      9  C   UNL     1      -1.518   0.554  25.071  0.00  0.00    +0.027 C 
ATOM     10  C   UNL     1      -2.140   0.064  24.843  0.00  0.00    +0.005 C 
ATOM     11  C   UNL     1      -2.890   0.384  24.709  0.00  0.00    +0.006 C 
ATOM     15  C   UNL     1      -3.015   1.193  24.804  0.00  0.00    +0.043 C 
ATOM     26  C   UNL     1      -2.392   1.684  25.032  0.00  0.00    -0.033 C 
ATOM     27  C   UNL     1      -1.643   1.364  25.166  0.00  0.00    -0.048 C 
ATOM     28  C   UNL     1      -1.021   1.855  25.394  0.00  0.00    +0.026 C 
ENDROOT
BRANCH  11  12
ATOM     12  C   UNL     1      -3.513  -0.107  24.481  0.00  0.00    +0.000 C 
ATOM     13  C   UNL     1      -3.700  -0.190  23.682  0.00  0.00    +0.000 C 
ATOM     14  C   UNL     1      -3.949  -0.514  25.051  0.00  0.00    +0.000 C 
ENDBRANCH  11  12
BRANCH   9   8
ATOM      8  C   UNL     1      -0.769   0.234  25.204  0.00  0.00    +0.091 C 
BRANCH   8   6
ATOM      5  N   UNL     1       0.101   0.132  24.076  0.00  0.00    -0.203 NA
ATOM      6  C   UNL     1      -0.407  -0.223  24.620  0.00  0.00    +0.242 C 
ATOM      7  O   UNL     1      -0.552  -1.034  24.581  0.00  0.00    -0.273 OA
BRANCH   5   4
ATOM      4  C   UNL     1       0.464  -0.325  23.492  0.00  0.00    +0.147 C 
BRANCH   4   3
ATOM      3  C   UNL     1       0.989   0.026  22.961  0.00  0.00    +0.166 C 
BRANCH   3   2
ATOM      1  C   UNL     1       2.280   0.012  22.348  0.00  0.00    +0.174 C 
ATOM      2  O   UNL     1       1.652  -0.391  22.701  0.00  0.00    -0.349 OA
ENDBRANCH   3   2
ENDBRANCH   4   3
ENDBRANCH   5   4
ENDBRANCH   8   6
ENDBRANCH   9   8
BRANCH  15  16
ATOM     16  C   UNL     1      -3.765   1.514  24.670  0.00  0.00    +0.120 C 
BRANCH  16  17
ATOM     17  N   UNL     1      -3.855   2.153  24.157  0.00  0.00    -0.201 NA
ATOM     18  C   UNL     1      -4.483   2.678  24.259  0.00  0.00    +0.266 C 
ATOM     19  O   UNL     1      -4.573   3.317  23.746  0.00  0.00    -0.268 OA
BRANCH  18  20
ATOM     20  C   UNL     1      -5.021   2.563  24.872  0.00  0.00    +0.074 A 
ATOM     21  C   UNL     1      -4.891   2.917  25.606  0.00  0.00    +0.103 A 
ATOM     22  N   UNL     1      -5.430   2.802  26.221  0.00  0.00    -0.242 NA
ATOM     23  C   UNL     1      -6.098   2.333  26.101  0.00  0.00    +0.099 A 
ATOM     24  C   UNL     1      -6.228   1.979  25.367  0.00  0.00    +0.021 A 
ATOM     25  C   UNL     1      -5.690   2.094  24.753  0.00  0.00    +0.008 A 
ENDBRANCH  18  20
ENDBRANCH  16  17
ENDBRANCH  15  16
TORSDOF 9
ENDMDL
MODEL 3
REMARK VINA RESULT:      -9.3      1.011      4.862
REMARK  Name = 
REMARK  9 active torsions:
REMARK  status: ('A' for Active; 'I' for Inactive)
REMARK    1  A    between atoms: O_2  and  C_3
REMARK    2  A    between atoms: C_3  and  C_4
REMARK    3  A    between atoms: C_4  and  N_5
REMARK    4  A    between atoms: C_6  and  C_8
REMARK    5  A    between atoms: C_8  and  C_9
REMARK    6  A    between atoms: C_11  and  C_12
REMARK    7  A    between atoms: C_15  and  C_16
REMARK    8  A    between atoms: C_16  and  N_17
REMARK    9  A    between atoms: C_18  and  C_20
REMARK                            x       y       z     vdW  Elec       q    Type
REMARK                         _______ _______ _______ _____ _____    ______ ____
ROOT
ATOM      9  C   UNL     1      -4.200   0.252  24.379  0.00  0.00    +0.027 C 
ATOM     10  C   UNL     1      -3.578   0.453  23.876  0.00  0.00    +0.005 C 
ATOM     11  C   UNL     1      -3.282   1.224  23.875  0.00  0.00    +0.006 C 
ATOM     15  C   UNL     1      -3.608   1.792  24.377  0.00  0.00    +0.043 C 
ATOM     26  C   UNL     1      -4.230   1.590  24.880  0.00  0.00    -0.033 C 
ATOM     27  C   UNL     1      -4.526   0.820  24.881  0.00  0.00    -0.048 C 
ATOM     28  C   UNL     1      -5.147   0.618  25.384  0.00  0.00    +0.026 C 
ENDROOT
BRANCH  11  12
ATOM     12  C   UNL     1      -2.660   1.426  23.371  0.00  0.00    +0.000 C 
ATOM     13  C   UNL     1      -2.818   1.773  22.640  0.00  0.00    +0.000 C 
ATOM     14  C   UNL     1      -1.880   1.281  23.600  0.00  0.00    +0.000 C 
ENDBRANCH  11  12
BRANCH   9   8
ATOM      8  C   UNL     1      -4.495  -0.519  24.380  0.00  0.00    +0.091 C 
BRANCH   8   6
ATOM      5  N   UNL     1      -3.536  -1.544  24.643  0.00  0.00    -0.203 NA
ATOM      6  C   UNL     1      -4.023  -1.141  24.114  0.00  0.00    +0.242 C 
ATOM      7  O   UNL     1      -4.039  -1.360  23.318  0.00  0.00    -0.273 OA
BRANCH   5   4
ATOM      4  C   UNL     1      -3.064  -2.167  24.377  0.00  0.00    +0.147 C 
BRANCH   4   3
ATOM      3  C   UNL     1      -2.450  -2.450  24.850  0.00  0.00    +0.166 C 
BRANCH   3   2
ATOM      1  C   UNL     1      -1.024  -2.389  24.922  0.00  0.00    +0.174 C 
ATOM      2  O   UNL     1      -1.710  -2.603  24.517  0.00  0.00    -0.349 OA
ENDBRANCH   3   2
ENDBRANCH   4   3
ENDBRANCH   5   4
ENDBRANCH   8   6
ENDBRANCH   9   8
BRANCH  15  16
ATOM     16  C   UNL     1      -3.312   2.563  24.376  0.00  0.00    +0.120 C 
BRANCH  16  17
ATOM     17  N   UNL     1      -3.830   3.204  24.344  0.00  0.00    -0.201 NA
ATOM     18  C   UNL     1      -3.610   3.928  24.672  0.00  0.00    +0.266 C 
ATOM     19  O   UNL     1      -4.129   4.569  24.640  0.00  0.00    -0.268 OA
BRANCH  18  20
ATOM     20  C   UNL     1      -2.873   4.011  25.030  0.00  0.00    +0.074 A 
ATOM     21  C   UNL     1      -2.764   3.768  25.811  0.00  0.00    +0.103 A 
ATOM     22  N   UNL     1      -2.025   3.852  26.170  0.00  0.00    -0.242 NA
ATOM     23  C   UNL     1      -1.397   4.178  25.748  0.00  0.00    +0.099 A 
ATOM     24  C   UNL     1      -1.505   4.422  24.967  0.00  0.00    +0.021 A 
ATOM     25  C   UNL     1      -2.243   4.338  24.609  0.00  0.00    +0.008 A 
ENDBRANCH  18  20
ENDBRANCH  16  17
ENDBRANCH  15  16
TORSDOF 9
ENDMDL
MODEL 4
REMARK VINA RESULT:      -8.6      1.533      5.279
REMARK  Name = 
REMARK  9 active torsions:
REMARK  status: ('A' for Active; 'I' for Inactive)
REMARK    1  A    between atoms: O_2  and  C_3
REMARK    2  A    between atoms: C_3  and  C_4
REMARK    3  A    between atoms: C_4  and  N_5
REMARK    4  A    between atoms: C_6  and  C_8
REMARK    5  A    between atoms: C_8  and  C_9
REMARK    6  A    between atoms: C_11  and  C_12
REMARK    7  A    between atoms: C_15  and  C_16
REMARK    8  A    between atoms: C_16  and  N_17
REMARK    9  A    between atoms: C_18  and  C_20
REMARK                            x       y       z     vdW  Elec       q    Type
REMARK                         _______ _______ _______ _____ _____    ______ ____
ROOT
ATOM      9  C   UNL     1      -1.007   0.638  24.821  0.00  0.00    +0.027 C 
ATOM     10  C   UNL     1      -1.516   0.722  24.176  0.00  0.00    +0.005 C 
ATOM     11  C   UNL     1      -1.978   1.402  24.103  0.00  0.00    +0.006 C 
ATOM     15  C   UNL     1      -1.932   1.996  24.673  0.00  0.00    +0.043 C 
ATOM     26  C   UNL     1      -1.423   1.912  25.318  0.00  0.00    -0.033 C 
ATOM     27  C   UNL     1      -0.961   1.232  25.391  0.00  0.00    -0.048 C 
ATOM     28  C   UNL     1      -0.453   1.148  26.035  0.00  0.00    +0.026 C 
ENDROOT
BRANCH  11  12
ATOM     12  C   UNL     1      -2.487   1.487  23.458  0.00  0.00    +0.000 C 
ATOM     13  C   UNL     1      -3.242   1.155  23.483  0.00  0.00    +0.000 C 
ATOM     14  C   UNL     1      -2.241   1.904  22.790  0.00  0.00    +0.000 C 
ENDBRANCH  11  12
BRANCH   9   8
ATOM      8  C   UNL     1      -0.545  -0.042  24.894  0.00  0.00    +0.091 C 
BRANCH   8   6
ATOM      5  N   UNL     1      -1.284  -1.265  24.882  0.00  0.00    -0.203 NA
ATOM      6  C   UNL     1      -0.771  -0.737  24.510  0.00  0.00    +0.242 C 
ATOM      7  O   UNL     1      -0.484  -0.903  23.755  0.00  0.00    -0.273 OA
BRANCH   5   4
ATOM      4  C   UNL     1      -1.510  -1.960  24.499  0.00  0.00    +0.147 C 
BRANCH   4   3
ATOM      3  C   UNL     1      -2.133  -2.411  24.797  0.00  0.00    +0.166 C 
BRANCH   3   2
ATOM      1  C   UNL     1      -3.463  -2.883  24.573  0.00  0.00    +0.174 C 
ATOM      2  O   UNL     1      -2.711  -2.705  24.286  0.00  0.00    -0.349 OA
ENDBRANCH   3   2
ENDBRANCH   4   3
ENDBRANCH   5   4
ENDBRANCH   8   6
ENDBRANCH   9   8
BRANCH  15  16
ATOM     16  C   UNL     1      -2.395   2.676  24.600  0.00  0.00    +0.120 C 
BRANCH  16  17
ATOM     17  N   UNL     1      -2.058   3.420  24.721  0.00  0.00    -0.201 NA
ATOM     18  C   UNL     1      -2.525   4.045  24.989  0.00  0.00    +0.266 C 
ATOM     19  O   UNL     1      -2.188   4.788  25.110  0.00  0.00    -0.268 OA
BRANCH  18  20
ATOM     20  C   UNL     1      -3.327   3.927  25.135  0.00  0.00    +0.074 A 
ATOM     21  C   UNL     1      -3.877   4.039  24.530  0.00  0.00    +0.103 A 
ATOM     22  N   UNL     1      -4.681   3.921  24.677  0.00  0.00    -0.242 NA
ATOM     23  C   UNL     1      -4.934   3.691  25.427  0.00  0.00    +0.099 A 
ATOM     24  C   UNL     1      -4.384   3.580  26.032  0.00  0.00    +0.021 A 
ATOM     25  C   UNL     1      -3.581   3.697  25.886  0.00  0.00    +0.008 A 
ENDBRANCH  18  20
ENDBRANCH  16  17
ENDBRANCH  15  16
TORSDOF 9
ENDMDL
MODEL 5
REMARK VINA RESULT:      -8.5      1.874      2.968
REMARK  Name = 
REMARK  9 active torsions:
REMARK  status: ('A' for Active; 'I' for Inactive)
REMARK    1  A    between atoms: O_2  and  C_3
REMARK    2  A    between atoms: C_3  and  C_4
REMARK    3  A    between atoms: C_4  and  N_5
REMARK    4  A    between atoms: C_6  and  C_8
REMARK    5  A    between atoms: C_8  and  C_9
REMARK    6  A    between atoms: C_11  and  C_12
REMARK    7  A    between atoms: C_15  and  C_16
REMARK    8  A    between atoms: C_16  and  N_17
REMARK    9  A    between atoms: C_18  and  C_20
REMARK                            x       y       z     vdW  Elec       q    Type
REMARK                         _______ _______ _______ _____ _____    ______ ____
ROOT
ATOM      9  C   UNL     1      -2.339   2.905  24.898  0.00  0.00    +0.027 C 
ATOM     10  C   UNL     1      -2.725   2.455  24.324  0.00  0.00    +0.005 C 
ATOM     11  C   UNL     1      -2.408   1.732  24.085  0.00  0.00    +0.006 C 
ATOM     15  C   UNL     1      -1.704   1.459  24.419  0.00  0.00    +0.043 C 
ATOM     26  C   UNL     1      -1.318   1.909  24.993  0.00  0.00    -0.033 C 
ATOM     27  C   UNL     1      -1.636   2.632  25.232  0.00  0.00    -0.048 C 
ATOM     28  C   UNL     1      -1.249   3.081  25.806  0.00  0.00    +0.026 C 
ENDROOT
BRANCH  11  12
ATOM     12  C   UNL     1      -2.794   1.282  23.511  0.00  0.00    +0.000 C 
ATOM     13  C   UNL     1      -3.373   0.738  23.734  0.00  0.00    +0.000 C 
ATOM     14  C   UNL     1      -2.601   1.375  22.714  0.00  0.00    +0.000 C 
ENDBRANCH  11  12
BRANCH   9   8
ATOM      8  C   UNL     1      -2.656   3.628  25.137  0.00  0.00    +0.091 C 
BRANCH   8   6
ATOM      5  N   UNL     1      -4.012   3.563  25.585  0.00  0.00    -0.203 NA
ATOM      6  C   UNL     1      -3.458   3.786  25.016  0.00  0.00    +0.242 C 
ATOM      7  O   UNL     1      -3.703   4.166  24.326  0.00  0.00    -0.273 OA
BRANCH   5   4
ATOM      4  C   UNL     1      -4.813   3.722  25.463  0.00  0.00    +0.147 C 
BRANCH   4   3
ATOM      3  C   UNL     1      -5.383   3.333  25.916  0.00  0.00    +0.166 C 
BRANCH   3   2
ATOM      1  C   UNL     1      -6.242   2.191  25.917  0.00  0.00    +0.174 C 
ATOM      2  O   UNL     1      -5.958   2.871  25.545  0.00  0.00    -0.349 OA
ENDBRANCH   3   2
ENDBRANCH   4   3
ENDBRANCH   5   4
ENDBRANCH   8   6
ENDBRANCH   9   8
BRANCH  15  16
ATOM     16  C   UNL     1      -1.387   0.735  24.179  0.00  0.00    +0.120 C 
BRANCH  16  17
ATOM     17  N   UNL     1      -0.600   0.690  23.937  0.00  0.00    -0.201 NA
ATOM     18  C   UNL     1      -0.184  -0.017  24.015  0.00  0.00    +0.266 C 
ATOM     19  O   UNL     1       0.603  -0.063  23.772  0.00  0.00    -0.268 OA
BRANCH  18  20
ATOM     20  C   UNL     1      -0.555  -0.680  24.335  0.00  0.00    +0.074 A 
ATOM     21  C   UNL     1      -0.909  -1.236  23.838  0.00  0.00    +0.103 A 
ATOM     22  N   UNL     1      -1.280  -1.900  24.159  0.00  0.00    -0.242 NA
ATOM     23  C   UNL     1      -1.298  -2.007  24.976  0.00  0.00    +0.099 A 
ATOM     24  C   UNL     1      -0.945  -1.452  25.474  0.00  0.00    +0.021 A 
ATOM     25  C   UNL     1      -0.574  -0.789  25.153  0.00  0.00    +0.008 A 
ENDBRANCH  18  20
ENDBRANCH  16  17
ENDBRANCH  15  16
TORSDOF 9
ENDMDL
