MODEL 1
REMARK VINA RESULT:     -10.6      0.000      0.000
REMARK  Name = 
REMARK  5 active torsions:
REMARK  status: ('A' for Active; 'I' for Inactive)
REMARK    1  A    between atoms: O_2  and  C_3
REMARK    2  A    between atoms: C_3  and  C_4
REMARK    3  A    between atoms: C_4  and  N_5
REMARK    4  A    between atoms: N_9  and  C_10
REMARK    5  A    between atoms: C_10  and  C_11
REMARK                            x       y       z     vdW  Elec       q    Type
REMARK                         _______ _______ _______ _____ _____    ______ ____
ROOT
ATOM      5  N   UNL     1      -3.466   3.134  25.012  0.00  0.00    -0.260 N 
ATOM      6  C   UNL     1      -3.131   2.494  24.613  0.00  0.00    +0.116 C 
ATOM      7  C   UNL     1      -3.657   1.860  24.662  0.00  0.00    +0.113 C 
ATOM      8  C   UNL     1      -3.621   1.088  24.372  0.00  0.00    +0.094 C 
ATOM      9  N   UNL     1      -4.243   0.566  24.510  0.00  0.00    -0.266 NA
ATOM     18  C   UNL     1      -4.902   0.814  24.940  0.00  0.00    +0.094 C 
ATOM     19  C   UNL     1      -4.939   1.585  25.230  0.00  0.00    +0.112 C 
ATOM     20  N   UNL     1      -4.316   2.108  25.091  0.00  0.00    -0.261 N 
ATOM     21  C   UNL     1      -4.198   2.895  25.307  0.00  0.00    +0.307 C 
ATOM     22  O   UNL     1      -4.721   3.362  25.743  0.00  0.00    -0.252 OA
ENDROOT
BRANCH   5   4
ATOM      4  C   UNL     1      -3.128   3.881  25.099  0.00  0.00    +0.127 C 
BRANCH   4   3
ATOM      3  C   UNL     1      -2.308   3.965  25.109  0.00  0.00    +0.164 C 
BRANCH   3   2
ATOM      1  C   UNL     1      -1.276   4.953  25.076  0.00  0.00    +0.174 C 
ATOM      2  O   UNL     1      -1.965   4.650  25.414  0.00  0.00    -0.349 OA
ENDBRANCH   3   2
ENDBRANCH   4   3
ENDBRANCH   5   4
BRANCH   9  10
ATOM     10  C   UNL     1      -4.207  -0.206  24.220  0.00  0.00    +0.099 C 
BRANCH  10  11
ATOM     11  C   UNL     1      -3.907  -0.811  24.693  0.00  0.00    -0.010 A 
ATOM     12  C   UNL     1      -3.626  -0.644  25.451  0.00  0.00    -0.003 A 
ATOM     13  C   UNL     1      -3.326  -1.249  25.923  0.00  0.00    -0.000 A 
ATOM     14  C   UNL     1      -3.306  -2.023  25.638  0.00  0.00    -0.000 A 
ATOM     15  C   UNL     1      -3.586  -2.192  24.881  0.00  0.00    -0.005 A 
ATOM     16  C   UNL     1      -3.886  -1.585  24.408  0.00  0.00    -0.024 A 
ATOM     17  C   UNL     1      -4.166  -1.754  23.650  0.00  0.00    +0.031 C 
ENDBRANCH  10  11
ENDBRANCH   9  10
TORSDOF 5
ENDMDL
MODEL 2
REMARK VINA RESULT:      -9.7      2.128      2.785
REMARK  Name = 
REMARK  5 active torsions:
REMARK  status: ('A' for Active; 'I' for Inactive)
REMARK    1  A    between atoms: O_2  and  C_3
REMARK    2  A    between atoms: C_3  and  C_4
REMARK    3  A    between atoms: C_4  and  N_5
REMARK    4  A    between atoms: N_9  and  C_10
REMARK    5  A    between atoms: C_10  and  C_11
REMARK                            x       y       z     vdW  Elec       q    Type
REMARK                         _______ _______ _______ _____ _____    ______ ____
ROOT
ATOM      5  N   UNL     1      -0.681   1.895  24.951  0.00  0.00    -0.260 N 
ATOM      6  C   UNL     1      -1.354   1.607  25.332  0.00  0.00    +0.116 C 
ATOM      7  C   UNL     1      -1.420   0.804  25.159  0.00  0.00    +0.113 C 
ATOM      8  C   UNL     1      -1.974   0.234  25.382  0.00  0.00    +0.094 C 
ATOM      9  N   UNL     1      -1.897  -0.543  25.119  0.00  0.00    -0.266 NA
ATOM     18  C   UNL     1      -1.265  -0.752  24.631  0.00  0.00    +0.094 C 
ATOM     19  C   UNL     1      -0.710  -0.183  24.407  0.00  0.00    +0.112 C 
ATOM     20  N   UNL     1      -0.789   0.595  24.671  0.00  0.00    -0.261 N 
ATOM     21  C   UNL     1      -0.332   1.269  24.543  0.00  0.00    +0.307 C 
ATOM     22  O   UNL     1       0.354   1.311  24.086  0.00  0.00    -0.252 OA
ENDROOT
BRANCH   5   4
ATOM      4  C   UNL     1      -0.406   2.673  24.974  0.00  0.00    +0.127 C 
BRANCH   4   3
ATOM      3  C   UNL     1      -0.935   3.295  25.094  0.00  0.00    +0.164 C 
BRANCH   3   2
ATOM      1  C   UNL     1      -1.199   4.699  25.118  0.00  0.00    +0.174 C 
ATOM      2  O   UNL     1      -0.661   4.073  25.110  0.00  0.00    -0.349 OA
ENDBRANCH   3   2
ENDBRANCH   4   3
ENDBRANCH   5   4
BRANCH   9  10
ATOM     10  C   UNL     1      -2.450  -1.112  25.342  0.00  0.00    +0.099 C 
BRANCH  10  11
ATOM     11  C   UNL     1      -3.074  -1.302  24.837  0.00  0.00    -0.010 A 
ATOM     12  C   UNL     1      -3.463  -0.706  24.419  0.00  0.00    -0.003 A 
ATOM     13  C   UNL     1      -4.087  -0.895  23.915  0.00  0.00    -0.000 A 
ATOM     14  C   UNL     1      -4.323  -1.681  23.828  0.00  0.00    -0.000 A 
ATOM     15  C   UNL     1      -3.935  -2.277  24.245  0.00  0.00    -0.005 A 
ATOM     16  C   UNL     1      -3.310  -2.087  24.751  0.00  0.00    -0.024 A 
ATOM     17  C   UNL     1      -2.923  -2.684  25.168  0.00  0.00    +0.031 C 
ENDBRANCH  10  11
ENDBRANCH   9  10
TORSDOF 5
ENDMDL
MODEL 3
REMARK VINA RESULT:      -9.2      3.391      3.936
REMARK  Name = 
REMARK  5 active torsions:
REMARK  status: ('A' for Active; 'I' for Inactive)
REMARK    1  A    between atoms: O_2  and  C_3
REMARK    2  A    between atoms: C_3  and  C_4
REMARK    3  A    between atoms: C_4  and  N_5
REMARK    4  A    between atoms: N_9  and  C_10
REMARK    5  A    between atoms: C_10  and  C_11
REMARK                            x       y       z     vdW  Elec       q    Type
REMARK                         _______ _______ _______ _____ _____    ______ ____
ROOT
ATOM      5  N   UNL     1       0.292   0.334  23.744  0.00  0.00    -0.260 N 
ATOM      6  C   UNL     1      -0.055  -0.413  23.789  0.00  0.00    +0.116 C 
ATOM      7  C   UNL     1      -0.715  -0.358  24.279  0.00  0.00    +0.113 C 
ATOM      8  C   UNL     1      -1.270  -0.918  24.525  0.00  0.00    +0.094 C 
ATOM      9  N   UNL     1      -1.885  -0.697  25.028  0.00  0.00    -0.266 NA
ATOM     18  C   UNL     1      -1.946   0.084  25.287  0.00  0.00    +0.094 C 
ATOM     19  C   UNL     1      -1.392   0.644  25.042  0.00  0.00    +0.112 C 
ATOM     20  N   UNL     1      -0.776   0.423  24.538  0.00  0.00    -0.261 N 
ATOM     21  C   UNL     1      -0.154   0.851  24.207  0.00  0.00    +0.307 C 
ATOM     22  O   UNL     1      -0.003   1.654  24.320  0.00  0.00    -0.252 OA
ENDROOT
BRANCH   5   4
ATOM      4  C   UNL     1       0.967   0.530  23.312  0.00  0.00    +0.127 C 
BRANCH   4   3
ATOM      3  C   UNL     1       1.442  -0.065  22.996  0.00  0.00    +0.164 C 
BRANCH   3   2
ATOM      1  C   UNL     1       2.794   0.110  22.567  0.00  0.00    +0.174 C 
ATOM      2  O   UNL     1       1.986   0.112  22.401  0.00  0.00    -0.349 OA
ENDBRANCH   3   2
ENDBRANCH   4   3
ENDBRANCH   5   4
BRANCH   9  10
ATOM     10  C   UNL     1      -2.439  -1.257  25.273  0.00  0.00    +0.099 C 
BRANCH  10  11
ATOM     11  C   UNL     1      -3.087  -1.433  24.796  0.00  0.00    -0.010 A 
ATOM     12  C   UNL     1      -3.497  -0.826  24.415  0.00  0.00    -0.003 A 
ATOM     13  C   UNL     1      -4.146  -1.001  23.938  0.00  0.00    -0.000 A 
ATOM     14  C   UNL     1      -4.385  -1.785  23.840  0.00  0.00    -0.000 A 
ATOM     15  C   UNL     1      -3.976  -2.392  24.219  0.00  0.00    -0.005 A 
ATOM     16  C   UNL     1      -3.327  -2.216  24.697  0.00  0.00    -0.024 A 
ATOM     17  C   UNL     1      -2.918  -2.824  25.077  0.00  0.00    +0.031 C 
ENDBRANCH  10  11
ENDBRANCH   9  10
TORSDOF 5
ENDMDL
MODEL 4
REMARK VINA RESULT:      -9.2      1.368      2.129
REMARK  Name = 
REMARK  5 active torsions:
REMARK  status: ('A' for Active; 'I' for Inactive)
REMARK    1  A    between atoms: O_2  and  C_3
REMARK    2  A    between atoms: C_3  and  C_4
REMARK    3  A    between atoms: C_4  and  N_5
REMARK    4  A    between atoms: N_9  and  C_10
REMARK    5  A    between atoms: C_10  and  C_11
REMARK                            x       y       z     vdW  Elec       q    Type
REMARK                         _______ _______ _______ _____ _____    ______ ____
ROOT
ATOM      5  N   UNL     1      -3.897   2.475  24.585  0.00  0.00    -0.260 N 
ATOM      6  C   UNL     1      -4.059   1.822  25.063  0.00  0.00    +0.116 C 
ATOM      7  C   UNL     1      -3.575   1.201  24.818  0.00  0.00    +0.113 C 
ATOM      8  C   UNL     1      -3.494   0.425  25.085  0.00  0.00    +0.094 C 
ATOM      9  N   UNL     1      -2.952  -0.082  24.725  0.00  0.00    -0.266 NA
ATOM     18  C   UNL     1      -2.491   0.187  24.097  0.00  0.00    +0.094 C 
ATOM     19  C   UNL     1      -2.571   0.963  23.828  0.00  0.00    +0.112 C 
ATOM     20  N   UNL     1      -3.113   1.470  24.189  0.00  0.00    -0.261 N 
ATOM     21  C   UNL     1      -3.312   2.257  24.045  0.00  0.00    +0.307 C 
ATOM     22  O   UNL     1      -2.984   2.742  23.464  0.00  0.00    -0.252 OA
ENDROOT
BRANCH   5   4
ATOM      4  C   UNL     1      -4.256   3.216  24.638  0.00  0.00    +0.127 C 
BRANCH   4   3
ATOM      3  C   UNL     1      -4.849   3.348  25.196  0.00  0.00    +0.164 C 
BRANCH   3   2
ATOM      1  C   UNL     1      -5.881   4.219  25.663  0.00  0.00    +0.174 C 
ATOM      2  O   UNL     1      -5.139   4.110  25.318  0.00  0.00    -0.349 OA
ENDBRANCH   3   2
ENDBRANCH   4   3
ENDBRANCH   5   4
BRANCH   9  10
ATOM     10  C   UNL     1      -2.871  -0.858  24.993  0.00  0.00    +0.099 C 
BRANCH  10  11
ATOM     11  C   UNL     1      -3.285  -1.468  24.624  0.00  0.00    -0.010 A 
ATOM     12  C   UNL     1      -3.998  -1.310  24.239  0.00  0.00    -0.003 A 
ATOM     13  C   UNL     1      -4.412  -1.919  23.870  0.00  0.00    -0.000 A 
ATOM     14  C   UNL     1      -4.114  -2.688  23.885  0.00  0.00    -0.000 A 
ATOM     15  C   UNL     1      -3.401  -2.848  24.269  0.00  0.00    -0.005 A 
ATOM     16  C   UNL     1      -2.987  -2.237  24.639  0.00  0.00    -0.024 A 
ATOM     17  C   UNL     1      -2.275  -2.396  25.023  0.00  0.00    +0.031 C 
ENDBRANCH  10  11
ENDBRANCH   9  10
TORSDOF 5
ENDMDL
MODEL 5
REMARK VINA RESULT:      -9.0      2.361      4.197
REMARK  Name = 
REMARK  5 active torsions:
REMARK  status: ('A' for Active; 'I' for Inactive)
REMARK    1  A    between atoms: O_2  and  C_3
REMARK    2  A    between atoms: C_3  and  C_4
REMARK    3  A    between atoms: C_4  and  N_5
REMARK    4  A    between atoms: N_9  and  C_10
REMARK    5  A    between atoms: C_10  and  C_11
REMARK                            x       y       z     vdW  Elec       q    Type
REMARK                         _______ _______ _______ _____ _____    ______ ____
ROOT
ATOM      5  N   UNL     1      -1.343   0.425  24.426  0.00  0.00    -0.260 N 
ATOM      6  C   UNL     1      -2.110   0.384  24.730  0.00  0.00    +0.116 C 
ATOM      7  C   UNL     1      -2.560   0.970  24.365  0.00  0.00    +0.113 C 
ATOM      8  C   UNL     1      -3.351   1.190  24.445  0.00  0.00    +0.094 C 
ATOM      9  N   UNL     1      -3.655   1.812  23.998  0.00  0.00    -0.266 NA
ATOM     18  C   UNL     1      -3.167   2.216  23.469  0.00  0.00    +0.094 C 
ATOM     19  C   UNL     1      -2.376   1.998  23.388  0.00  0.00    +0.112 C 
ATOM     20  N   UNL     1      -2.072   1.375  23.836  0.00  0.00    -0.261 N 
ATOM     21  C   UNL     1      -1.321   1.038  23.874  0.00  0.00    +0.307 C 
ATOM     22  O   UNL     1      -0.661   1.272  23.437  0.00  0.00    -0.252 OA
ENDROOT
BRANCH   5   4
ATOM      4  C   UNL     1      -0.711  -0.060  24.638  0.00  0.00    +0.127 C 
BRANCH   4   3
ATOM      3  C   UNL     1      -0.853  -0.818  24.932  0.00  0.00    +0.164 C 
BRANCH   3   2
ATOM      1  C   UNL     1      -0.363  -2.091  25.356  0.00  0.00    +0.174 C 
ATOM      2  O   UNL     1      -0.220  -1.315  25.116  0.00  0.00    -0.349 OA
ENDBRANCH   3   2
ENDBRANCH   4   3
ENDBRANCH   5   4
BRANCH   9  10
ATOM     10  C   UNL     1      -4.447   2.031  24.078  0.00  0.00    +0.099 C 
BRANCH  10  11
ATOM     11  C   UNL     1      -4.664   2.592  24.641  0.00  0.00    -0.010 A 
ATOM     12  C   UNL     1      -4.188   3.253  24.772  0.00  0.00    -0.003 A 
ATOM     13  C   UNL     1      -4.406   3.814  25.335  0.00  0.00    -0.000 A 
ATOM     14  C   UNL     1      -5.101   3.716  25.768  0.00  0.00    -0.000 A 
ATOM     15  C   UNL     1      -5.579   3.056  25.638  0.00  0.00    -0.005 A 
ATOM     16  C   UNL     1      -5.360   2.494  25.074  0.00  0.00    -0.024 A 
ATOM     17  C   UNL     1      -5.837   1.834  24.944  0.00  0.00    +0.031 C 
ENDBRANCH  10  11
ENDBRANCH   9  10
TORSDOF 5
ENDMDL
MODEL 6
REMARK VINA RESULT:      -8.9      2.350      5.127
REMARK  Name = 
REMARK  5 active torsions:
REMARK  status: ('A' for Active; 'I' for Inactive)
REMARK    1  A    between atoms: O_2  and  C_3
REMARK    2  A    between atoms: C_3  and  C_4
REMARK    3  A    between atoms: C_4  and  N_5
REMARK    4  A    between atoms: N_9  and  C_10
REMARK    5  A    between atoms: C_10  and  C_11
REMARK                            x       y       z     vdW  Elec       q    Type
REMARK                         _______ _______ _______ _____ _____    ______ ____
ROOT
ATOM      5  N   UNL     1      -2.166  -0.494  24.946  0.00  0.00    -0.260 N 
ATOM      6  C   UNL     1      -2.338   0.165  24.481  0.00  0.00    +0.116 C 
ATOM      7  C   UNL     1      -1.850   0.783  24.724  0.00  0.00    +0.113 C 
ATOM      8  C   UNL     1      -1.775   1.563  24.465  0.00  0.00    +0.094 C 
ATOM      9  N   UNL     1      -1.227   2.066  24.822  0.00  0.00    -0.266 NA
ATOM     18  C   UNL     1      -0.753   1.789  25.437  0.00  0.00    +0.094 C 
ATOM     19  C   UNL     1      -0.826   1.009  25.697  0.00  0.00    +0.112 C 
ATOM     20  N   UNL     1      -1.375   0.506  25.340  0.00  0.00    -0.261 N 
ATOM     21  C   UNL     1      -1.571  -0.283  25.477  0.00  0.00    +0.307 C 
ATOM     22  O   UNL     1      -1.231  -0.775  26.045  0.00  0.00    -0.252 OA
ENDROOT
BRANCH   5   4
ATOM      4  C   UNL     1      -2.525  -1.234  24.890  0.00  0.00    +0.127 C 
BRANCH   4   3
ATOM      3  C   UNL     1      -3.206  -1.329  24.434  0.00  0.00    +0.164 C 
BRANCH   3   2
ATOM      1  C   UNL     1      -4.193  -2.179  23.847  0.00  0.00    +0.174 C 
ATOM      2  O   UNL     1      -3.538  -2.078  24.339  0.00  0.00    -0.349 OA
ENDBRANCH   3   2
ENDBRANCH   4   3
ENDBRANCH   5   4
BRANCH   9  10
ATOM     10  C   UNL     1      -1.152   2.846  24.563  0.00  0.00    +0.099 C 
BRANCH  10  11
ATOM     11  C   UNL     1      -1.548   3.452  24.957  0.00  0.00    -0.010 A 
ATOM     12  C   UNL     1      -2.262   3.297  25.341  0.00  0.00    -0.003 A 
ATOM     13  C   UNL     1      -2.658   3.903  25.735  0.00  0.00    -0.000 A 
ATOM     14  C   UNL     1      -2.341   4.664  25.746  0.00  0.00    -0.000 A 
ATOM     15  C   UNL     1      -1.628   4.820  25.363  0.00  0.00    -0.005 A 
ATOM     16  C   UNL     1      -1.231   4.213  24.968  0.00  0.00    -0.024 A 
ATOM     17  C   UNL     1      -0.517   4.369  24.585  0.00  0.00    +0.031 C 
ENDBRANCH  10  11
ENDBRANCH   9  10
TORSDOF 5
ENDMDL
