MODEL 1
REMARK VINA RESULT:     -15.8      0.000      0.000
REMARK  Name = 
REMARK  5 active torsions:
REMARK  status: ('A' for Active; 'I' for Inactive)
REMARK    1  A    between atoms: C_2  and  C_3
REMARK    2  A    between atoms: C_11  and  C_12
REMARK    3  A    between atoms: C_12  and  C_13
REMARK    4  A    between atoms: N_15  and  C_16
REMARK    5  A    between atoms: C_26  and  C_28
REMARK                            x       y       z     vdW  Elec       q    Type
REMARK                         _______ _______ _______ _____ _____    ______ ____
ROOT
ATOM      1  C   UNL     1      -2.548  -2.714  24.661  0.00  0.00    +0.005 C 
ATOM      2  C   UNL     1      -2.839  -1.946  24.578  0.00  0.00    +0.059 C 
ATOM      5  C   UNL     1      -3.520  -2.377  24.403  0.00  0.00    +0.154 C 
ATOM      6  O   UNL     1      -3.502  -3.202  24.415  0.00  0.00    -0.223 OA
ATOM      7  C   UNL     1      -4.220  -1.982  24.215  0.00  0.00    +0.033 C 
ATOM      8  C   UNL     1      -4.239  -1.158  24.203  0.00  0.00    +0.003 C 
ATOM      9  C   UNL     1      -3.558  -0.728  24.379  0.00  0.00    +0.006 C 
ATOM     10  C   UNL     1      -4.257  -0.334  24.191  0.00  0.00    +0.000 C 
ATOM     11  C   UNL     1      -3.576   0.097  24.367  0.00  0.00    +0.050 C 
ATOM     19  C   UNL     1      -2.895   0.528  24.542  0.00  0.00    +0.063 A 
ATOM     20  C   UNL     1      -2.194   0.133  24.730  0.00  0.00    +0.023 A 
ATOM     21  C   UNL     1      -2.176  -0.691  24.742  0.00  0.00    +0.034 C 
ATOM     22  C   UNL     1      -2.857  -1.122  24.566  0.00  0.00    +0.010 C 
ATOM     23  S   UNL     1      -1.615   0.701  24.878  0.00  0.00    -0.054 S 
ATOM     24  C   UNL     1      -1.956   1.446  24.781  0.00  0.00    +0.185 A 
ATOM     25  N   UNL     1      -1.573   2.171  24.876  0.00  0.00    -0.150 NA
ATOM     26  C   UNL     1      -1.988   2.874  24.761  0.00  0.00    +0.275 C 
ATOM     27  O   UNL     1      -2.786   2.853  24.551  0.00  0.00    -0.268 OA
ATOM     36  N   UNL     1      -2.747   1.339  24.574  0.00  0.00    -0.227 NA
ENDROOT
BRANCH  26  28
ATOM     28  C   UNL     1      -1.605   3.599  24.855  0.00  0.00    +0.110 A 
ATOM     29  C   UNL     1      -1.867   4.132  25.428  0.00  0.00    +0.147 A 
ATOM     30  F   UNL     1      -2.511   3.940  25.906  0.00  0.00    -0.204 F 
ATOM     31  C   UNL     1      -1.485   4.857  25.523  0.00  0.00    +0.030 A 
ATOM     32  C   UNL     1      -0.840   5.048  25.044  0.00  0.00    +0.005 A 
ATOM     33  C   UNL     1      -0.579   4.516  24.472  0.00  0.00    +0.030 A 
ATOM     34  C   UNL     1      -0.961   3.791  24.377  0.00  0.00    +0.147 A 
ATOM     35  F   UNL     1      -0.699   3.257  23.804  0.00  0.00    -0.204 F 
ENDBRANCH  26  28
BRANCH   2   3
ATOM      3  C   UNL     1      -2.057  -1.783  24.783  0.00  0.00    +0.184 C 
ATOM      4  O   UNL     1      -1.516  -2.400  24.876  0.00  0.00    -0.220 OA
ENDBRANCH   2   3
BRANCH  11  12
ATOM     12  C   UNL     1      -4.276   0.491  24.179  0.00  0.00    +0.093 C 
BRANCH  12  13
ATOM     13  C   UNL     1      -4.712   0.864  24.773  0.00  0.00    +0.242 C 
ATOM     14  O   UNL     1      -4.653   0.603  25.553  0.00  0.00    -0.273 OA
ATOM     15  N   UNL     1      -5.206   1.497  24.586  0.00  0.00    -0.207 NA
BRANCH  15  16
ATOM     16  C   UNL     1      -5.642   1.870  25.179  0.00  0.00    +0.095 C 
ATOM     17  C   UNL     1      -5.866   2.558  25.575  0.00  0.00    +0.023 C 
ATOM     18  C   UNL     1      -6.172   1.829  25.810  0.00  0.00    +0.023 C 
ENDBRANCH  15  16
ENDBRANCH  12  13
ENDBRANCH  11  12
TORSDOF 5
ENDMDL
MODEL 2
REMARK VINA RESULT:     -15.2      1.734      4.915
REMARK  Name = 
REMARK  5 active torsions:
REMARK  status: ('A' for Active; 'I' for Inactive)
REMARK    1  A    between atoms: C_2  and  C_3
REMARK    2  A    between atoms: C_11  and  C_12
REMARK    3  A    between atoms: C_12  and  C_13
REMARK    4  A    between atoms: N_15  and  C_16
REMARK    5  A    between atoms: C_26  and  C_28
REMARK                            x       y       z     vdW  Elec       q    Type
REMARK                         _______ _______ _______ _____ _____    ______ ____
ROOT
ATOM      1  C   UNL     1      -0.445   4.435  24.510  0.00  0.00    +0.005 C 
ATOM      2  C   UNL     1      -1.087   3.976  24.750  0.00  0.00    +0.059 C 
ATOM      5  C   UNL     1      -1.297   4.701  25.082  0.00  0.00    +0.154 C 
ATOM      6  O   UNL     1      -0.806   5.357  24.987  0.00  0.00    -0.223 OA
ATOM      7  C   UNL     1      -2.000   4.770  25.511  0.00  0.00    +0.033 C 
ATOM      8  C   UNL     1      -2.491   4.115  25.606  0.00  0.00    +0.003 C 
ATOM      9  C   UNL     1      -2.281   3.391  25.274  0.00  0.00    +0.006 C 
ATOM     10  C   UNL     1      -2.982   3.460  25.702  0.00  0.00    +0.000 C 
ATOM     11  C   UNL     1      -2.772   2.735  25.369  0.00  0.00    +0.050 C 
ATOM     19  C   UNL     1      -2.563   2.010  25.037  0.00  0.00    +0.063 A 
ATOM     20  C   UNL     1      -1.860   1.940  24.608  0.00  0.00    +0.023 A 
ATOM     21  C   UNL     1      -1.369   2.595  24.513  0.00  0.00    +0.034 C 
ATOM     22  C   UNL     1      -1.579   3.321  24.845  0.00  0.00    +0.010 C 
ATOM     23  S   UNL     1      -1.799   1.160  24.346  0.00  0.00    -0.054 S 
ATOM     24  C   UNL     1      -2.462   0.748  24.612  0.00  0.00    +0.185 A 
ATOM     25  N   UNL     1      -2.624  -0.049  24.475  0.00  0.00    -0.150 NA
ATOM     26  C   UNL     1      -3.313  -0.387  24.777  0.00  0.00    +0.275 C 
ATOM     27  O   UNL     1      -3.840   0.071  25.217  0.00  0.00    -0.268 OA
ATOM     36  N   UNL     1      -2.933   1.273  25.039  0.00  0.00    -0.227 NA
ENDROOT
BRANCH  26  28
ATOM     28  C   UNL     1      -3.476  -1.184  24.640  0.00  0.00    +0.110 A 
ATOM     29  C   UNL     1      -3.172  -1.761  25.147  0.00  0.00    +0.147 A 
ATOM     30  F   UNL     1      -2.706  -1.539  25.791  0.00  0.00    -0.204 F 
ATOM     31  C   UNL     1      -3.334  -2.558  25.011  0.00  0.00    +0.030 A 
ATOM     32  C   UNL     1      -3.801  -2.778  24.367  0.00  0.00    +0.005 A 
ATOM     33  C   UNL     1      -4.104  -2.203  23.860  0.00  0.00    +0.030 A 
ATOM     34  C   UNL     1      -3.942  -1.406  23.997  0.00  0.00    +0.147 A 
ATOM     35  F   UNL     1      -4.245  -0.830  23.490  0.00  0.00    -0.204 F 
ENDBRANCH  26  28
BRANCH   2   3
ATOM      3  C   UNL     1      -0.654   3.411  24.334  0.00  0.00    +0.184 C 
ATOM      4  O   UNL     1       0.041   3.627  23.946  0.00  0.00    -0.220 OA
ENDBRANCH   2   3
BRANCH  11  12
ATOM     12  C   UNL     1      -3.474   2.804  25.798  0.00  0.00    +0.093 C 
BRANCH  12  13
ATOM     13  C   UNL     1      -4.200   2.795  25.405  0.00  0.00    +0.242 C 
ATOM     14  O   UNL     1      -4.245   3.034  24.617  0.00  0.00    -0.273 OA
ATOM     15  N   UNL     1      -4.879   2.546  25.800  0.00  0.00    -0.207 NA
BRANCH  15  16
ATOM     16  C   UNL     1      -5.605   2.536  25.408  0.00  0.00    +0.095 C 
ATOM     17  C   UNL     1      -6.239   2.115  25.090  0.00  0.00    +0.023 C 
ATOM     18  C   UNL     1      -6.228   2.938  25.048  0.00  0.00    +0.023 C 
ENDBRANCH  15  16
ENDBRANCH  12  13
ENDBRANCH  11  12
TORSDOF 5
ENDMDL
MODEL 3
REMARK VINA RESULT:     -13.9      2.028      5.611
REMARK  Name = 
REMARK  5 active torsions:
REMARK  status: ('A' for Active; 'I' for Inactive)
REMARK    1  A    between atoms: C_2  and  C_3
REMARK    2  A    between atoms: C_11  and  C_12
REMARK    3  A    between atoms: C_12  and  C_13
REMARK    4  A    between atoms: N_15  and  C_16
REMARK    5  A    between atoms: C_26  and  C_28
REMARK                            x       y       z     vdW  Elec       q    Type
REMARK                         _______ _______ _______ _____ _____    ______ ____
ROOT
ATOM      1  C   UNL     1      -2.424   4.791  25.212  0.00  0.00    +0.005 C 
ATOM      2  C   UNL     1      -2.122   4.025  25.153  0.00  0.00    +0.059 C 
ATOM      5  C   UNL     1      -1.421   4.450  25.240  0.00  0.00    +0.154 C 
ATOM      6  O   UNL     1      -1.441   5.270  25.323  0.00  0.00    -0.223 OA
ATOM      7  C   UNL     1      -0.696   4.053  25.246  0.00  0.00    +0.033 C 
ATOM      8  C   UNL     1      -0.675   3.233  25.164  0.00  0.00    +0.003 C 
ATOM      9  C   UNL     1      -1.376   2.809  25.076  0.00  0.00    +0.006 C 
ATOM     10  C   UNL     1      -0.653   2.413  25.081  0.00  0.00    +0.000 C 
ATOM     11  C   UNL     1      -1.355   1.988  24.994  0.00  0.00    +0.050 C 
ATOM     19  C   UNL     1      -2.056   1.564  24.906  0.00  0.00    +0.063 A 
ATOM     20  C   UNL     1      -2.781   1.960  24.901  0.00  0.00    +0.023 A 
ATOM     21  C   UNL     1      -2.802   2.780  24.983  0.00  0.00    +0.034 C 
ATOM     22  C   UNL     1      -2.100   3.205  25.071  0.00  0.00    +0.010 C 
ATOM     23  S   UNL     1      -3.377   1.398  24.806  0.00  0.00    -0.054 S 
ATOM     24  C   UNL     1      -3.023   0.655  24.752  0.00  0.00    +0.185 A 
ATOM     25  N   UNL     1      -3.416  -0.063  24.654  0.00  0.00    -0.150 NA
ATOM     26  C   UNL     1      -2.986  -0.765  24.610  0.00  0.00    +0.275 C 
ATOM     27  O   UNL     1      -2.163  -0.750  24.664  0.00  0.00    -0.268 OA
ATOM     36  N   UNL     1      -2.207   0.758  24.814  0.00  0.00    -0.227 NA
ENDROOT
BRANCH  26  28
ATOM     28  C   UNL     1      -3.379  -1.484  24.512  0.00  0.00    +0.110 A 
ATOM     29  C   UNL     1      -3.342  -2.059  25.104  0.00  0.00    +0.147 A 
ATOM     30  F   UNL     1      -2.913  -1.913  25.793  0.00  0.00    -0.204 F 
ATOM     31  C   UNL     1      -3.735  -2.778  25.006  0.00  0.00    +0.030 A 
ATOM     32  C   UNL     1      -4.164  -2.922  24.316  0.00  0.00    +0.005 A 
ATOM     33  C   UNL     1      -4.201  -2.348  23.725  0.00  0.00    +0.030 A 
ATOM     34  C   UNL     1      -3.808  -1.629  23.823  0.00  0.00    +0.147 A 
ATOM     35  F   UNL     1      -3.845  -1.055  23.231  0.00  0.00    -0.204 F 
ENDBRANCH  26  28
BRANCH   2   3
ATOM      3  C   UNL     1      -2.929   3.867  25.086  0.00  0.00    +0.184 C 
ATOM      4  O   UNL     1      -3.476   4.483  25.135  0.00  0.00    -0.220 OA
ENDBRANCH   2   3
BRANCH  11  12
ATOM     12  C   UNL     1      -0.631   1.592  24.999  0.00  0.00    +0.093 C 
BRANCH  12  13
ATOM     13  C   UNL     1      -0.325   1.282  24.297  0.00  0.00    +0.242 C 
ATOM     14  O   UNL     1      -0.567   1.590  23.571  0.00  0.00    -0.273 OA
ATOM     15  N   UNL     1       0.222   0.667  24.323  0.00  0.00    -0.207 NA
BRANCH  15  16
ATOM     16  C   UNL     1       0.529   0.357  23.623  0.00  0.00    +0.095 C 
ATOM     17  C   UNL     1       0.649  -0.284  23.117  0.00  0.00    +0.023 C 
ATOM     18  C   UNL     1       0.939   0.460  22.915  0.00  0.00    +0.023 C 
ENDBRANCH  15  16
ENDBRANCH  12  13
ENDBRANCH  11  12
TORSDOF 5
ENDMDL
MODEL 4
REMARK VINA RESULT:     -13.8      2.156      5.400
REMARK  Name = 
REMARK  5 active torsions:
REMARK  status: ('A' for Active; 'I' for Inactive)
REMARK    1  A    between atoms: C_2  and  C_3
REMARK    2  A    between atoms: C_11  and  C_12
REMARK    3  A    between atoms: C_12  and  C_13
REMARK    4  A    between atoms: N_15  and  C_16
REMARK    5  A    between atoms: C_26  and  C_28
REMARK                            x       y       z     vdW  Elec       q    Type
REMARK                         _______ _______ _______ _____ _____    ______ ____
ROOT
ATOM      1  C   UNL     1      -5.517   4.068  25.633  0.00  0.00    +0.005 C 
ATOM      2  C   UNL     1      -4.983   3.550  25.277  0.00  0.00    +0.059 C 
ATOM      5  C   UNL     1      -4.660   4.272  25.045  0.00  0.00    +0.154 C 
ATOM      6  O   UNL     1      -5.017   4.979  25.277  0.00  0.00    -0.223 OA
ATOM      7  C   UNL     1      -3.978   4.289  24.579  0.00  0.00    +0.033 C 
ATOM      8  C   UNL     1      -3.620   3.584  24.347  0.00  0.00    +0.003 C 
ATOM      9  C   UNL     1      -3.943   2.862  24.579  0.00  0.00    +0.006 C 
ATOM     10  C   UNL     1      -3.263   2.878  24.114  0.00  0.00    +0.000 C 
ATOM     11  C   UNL     1      -3.586   2.155  24.346  0.00  0.00    +0.050 C 
ATOM     19  C   UNL     1      -3.909   1.433  24.578  0.00  0.00    +0.063 A 
ATOM     20  C   UNL     1      -4.591   1.416  25.044  0.00  0.00    +0.023 A 
ATOM     21  C   UNL     1      -4.948   2.122  25.276  0.00  0.00    +0.034 C 
ATOM     22  C   UNL     1      -4.625   2.845  25.044  0.00  0.00    +0.010 C 
ATOM     23  S   UNL     1      -4.782   0.626  25.187  0.00  0.00    -0.054 S 
ATOM     24  C   UNL     1      -4.219   0.155  24.811  0.00  0.00    +0.185 A 
ATOM     25  N   UNL     1      -4.199  -0.670  24.810  0.00  0.00    -0.150 NA
ATOM     26  C   UNL     1      -3.600  -1.067  24.408  0.00  0.00    +0.275 C 
ATOM     27  O   UNL     1      -3.019  -0.641  24.005  0.00  0.00    -0.268 OA
ATOM     36  N   UNL     1      -3.680   0.653  24.435  0.00  0.00    -0.227 NA
ENDROOT
BRANCH  26  28
ATOM     28  C   UNL     1      -3.580  -1.892  24.407  0.00  0.00    +0.110 A 
ATOM     29  C   UNL     1      -3.137  -2.295  24.976  0.00  0.00    +0.147 A 
ATOM     30  F   UNL     1      -2.714  -1.872  25.544  0.00  0.00    -0.204 F 
ATOM     31  C   UNL     1      -3.117  -3.119  24.976  0.00  0.00    +0.030 A 
ATOM     32  C   UNL     1      -3.540  -3.542  24.407  0.00  0.00    +0.005 A 
ATOM     33  C   UNL     1      -3.982  -3.140  23.839  0.00  0.00    +0.030 A 
ATOM     34  C   UNL     1      -4.002  -2.315  23.839  0.00  0.00    +0.147 A 
ATOM     35  F   UNL     1      -4.445  -1.913  23.270  0.00  0.00    -0.204 F 
ENDBRANCH  26  28
BRANCH   2   3
ATOM      3  C   UNL     1      -5.492   3.008  25.633  0.00  0.00    +0.184 C 
ATOM      4  O   UNL     1      -6.127   3.275  26.087  0.00  0.00    -0.220 OA
ENDBRANCH   2   3
BRANCH  11  12
ATOM     12  C   UNL     1      -2.905   2.172  23.881  0.00  0.00    +0.093 C 
BRANCH  12  13
ATOM     13  C   UNL     1      -2.168   2.022  24.222  0.00  0.00    +0.242 C 
ATOM     14  O   UNL     1      -2.075   2.072  25.040  0.00  0.00    -0.273 OA
ATOM     15  N   UNL     1      -1.526   1.822  23.746  0.00  0.00    -0.207 NA
BRANCH  15  16
ATOM     16  C   UNL     1      -0.790   1.672  24.086  0.00  0.00    +0.095 C 
ATOM     17  C   UNL     1      -0.127   1.188  24.170  0.00  0.00    +0.023 C 
ATOM     18  C   UNL     1      -0.177   1.895  24.591  0.00  0.00    +0.023 C 
ENDBRANCH  15  16
ENDBRANCH  12  13
ENDBRANCH  11  12
TORSDOF 5
ENDMDL
MODEL 5
REMARK VINA RESULT:     -13.5      1.516      3.138
REMARK  Name = 
REMARK  5 active torsions:
REMARK  status: ('A' for Active; 'I' for Inactive)
REMARK    1  A    between atoms: C_2  and  C_3
REMARK    2  A    between atoms: C_11  and  C_12
REMARK    3  A    between atoms: C_12  and  C_13
REMARK    4  A    between atoms: N_15  and  C_16
REMARK    5  A    between atoms: C_26  and  C_28
REMARK                            x       y       z     vdW  Elec       q    Type
REMARK                         _______ _______ _______ _____ _____    ______ ____
ROOT
ATOM      1  C   UNL     1      -4.124  -2.221  24.285  0.00  0.00    +0.005 C 
ATOM      2  C   UNL     1      -3.452  -1.754  24.385  0.00  0.00    +0.059 C 
ATOM      5  C   UNL     1      -3.105  -2.501  24.360  0.00  0.00    +0.154 C 
ATOM      6  O   UNL     1      -3.575  -3.172  24.264  0.00  0.00    -0.223 OA
ATOM      7  C   UNL     1      -2.285  -2.578  24.432  0.00  0.00    +0.033 C 
ATOM      8  C   UNL     1      -1.815  -1.907  24.529  0.00  0.00    +0.003 C 
ATOM      9  C   UNL     1      -2.163  -1.160  24.553  0.00  0.00    +0.006 C 
ATOM     10  C   UNL     1      -1.346  -1.237  24.625  0.00  0.00    +0.000 C 
ATOM     11  C   UNL     1      -1.693  -0.489  24.650  0.00  0.00    +0.050 C 
ATOM     19  C   UNL     1      -2.040   0.258  24.674  0.00  0.00    +0.063 A 
ATOM     20  C   UNL     1      -2.859   0.335  24.602  0.00  0.00    +0.023 A 
ATOM     21  C   UNL     1      -3.329  -0.335  24.506  0.00  0.00    +0.034 C 
ATOM     22  C   UNL     1      -2.982  -1.083  24.481  0.00  0.00    +0.010 C 
ATOM     23  S   UNL     1      -3.044   1.138  24.647  0.00  0.00    -0.054 S 
ATOM     24  C   UNL     1      -2.341   1.558  24.746  0.00  0.00    +0.185 A 
ATOM     25  N   UNL     1      -2.270   2.377  24.816  0.00  0.00    -0.150 NA
ATOM     26  C   UNL     1      -1.526   2.719  24.913  0.00  0.00    +0.275 C 
ATOM     27  O   UNL     1      -0.852   2.243  24.940  0.00  0.00    -0.268 OA
ATOM     36  N   UNL     1      -1.721   1.014  24.763  0.00  0.00    -0.227 NA
ENDROOT
BRANCH  26  28
ATOM     28  C   UNL     1      -1.455   3.538  24.983  0.00  0.00    +0.110 A 
ATOM     29  C   UNL     1      -0.979   3.958  24.455  0.00  0.00    +0.147 A 
ATOM     30  F   UNL     1      -0.574   3.558  23.858  0.00  0.00    -0.204 F 
ATOM     31  C   UNL     1      -0.908   4.777  24.525  0.00  0.00    +0.030 A 
ATOM     32  C   UNL     1      -1.313   5.176  25.122  0.00  0.00    +0.005 A 
ATOM     33  C   UNL     1      -1.789   4.757  25.650  0.00  0.00    +0.030 A 
ATOM     34  C   UNL     1      -1.860   3.938  25.580  0.00  0.00    +0.147 A 
ATOM     35  F   UNL     1      -2.336   3.518  26.108  0.00  0.00    -0.204 F 
ENDBRANCH  26  28
BRANCH   2   3
ATOM      3  C   UNL     1      -4.033  -1.169  24.375  0.00  0.00    +0.184 C 
ATOM      4  O   UNL     1      -4.802  -1.355  24.140  0.00  0.00    -0.220 OA
ENDBRANCH   2   3
BRANCH  11  12
ATOM     12  C   UNL     1      -0.874  -0.566  24.722  0.00  0.00    +0.093 C 
BRANCH  12  13
ATOM     13  C   UNL     1      -0.385  -0.384  24.082  0.00  0.00    +0.242 C 
ATOM     14  O   UNL     1      -0.706  -0.308  23.326  0.00  0.00    -0.273 OA
ATOM     15  N   UNL     1       0.424  -0.280  24.199  0.00  0.00    -0.207 NA
BRANCH  15  16
ATOM     16  C   UNL     1       0.914  -0.099  23.560  0.00  0.00    +0.095 C 
ATOM     17  C   UNL     1       1.478   0.390  23.209  0.00  0.00    +0.023 C 
ATOM     18  C   UNL     1       1.199  -0.272  22.806  0.00  0.00    +0.023 C 
ENDBRANCH  15  16
ENDBRANCH  12  13
ENDBRANCH  11  12
TORSDOF 5
ENDMDL
MODEL 6
REMARK VINA RESULT:     -13.4      1.620      3.152
REMARK  Name = 
REMARK  5 active torsions:
REMARK  status: ('A' for Active; 'I' for Inactive)
REMARK    1  A    between atoms: C_2  and  C_3
REMARK    2  A    between atoms: C_11  and  C_12
REMARK    3  A    between atoms: C_12  and  C_13
REMARK    4  A    between atoms: N_15  and  C_16
REMARK    5  A    between atoms: C_26  and  C_28
REMARK                            x       y       z     vdW  Elec       q    Type
REMARK                         _______ _______ _______ _____ _____    ______ ____
ROOT
ATOM      1  C   UNL     1      -3.611  -3.025  23.998  0.00  0.00    +0.005 C 
ATOM      2  C   UNL     1      -3.342  -2.308  24.303  0.00  0.00    +0.059 C 
ATOM      5  C   UNL     1      -2.689  -2.785  24.462  0.00  0.00    +0.154 C 
ATOM      6  O   UNL     1      -2.698  -3.582  24.249  0.00  0.00    -0.223 OA
ATOM      7  C   UNL     1      -2.025  -2.465  24.835  0.00  0.00    +0.033 C 
ATOM      8  C   UNL     1      -2.015  -1.669  25.048  0.00  0.00    +0.003 C 
ATOM      9  C   UNL     1      -2.668  -1.192  24.889  0.00  0.00    +0.006 C 
ATOM     10  C   UNL     1      -2.006  -0.873  25.260  0.00  0.00    +0.000 C 
ATOM     11  C   UNL     1      -2.659  -0.394  25.101  0.00  0.00    +0.050 C 
ATOM     19  C   UNL     1      -3.312   0.083  24.942  0.00  0.00    +0.063 A 
ATOM     20  C   UNL     1      -3.976  -0.237  24.570  0.00  0.00    +0.023 A 
ATOM     21  C   UNL     1      -3.986  -1.033  24.357  0.00  0.00    +0.034 C 
ATOM     22  C   UNL     1      -3.333  -1.511  24.516  0.00  0.00    +0.010 C 
ATOM     23  S   UNL     1      -4.534   0.365  24.485  0.00  0.00    -0.054 S 
ATOM     24  C   UNL     1      -4.217   1.056  24.804  0.00  0.00    +0.185 A 
ATOM     25  N   UNL     1      -4.588   1.792  24.835  0.00  0.00    -0.150 NA
ATOM     26  C   UNL     1      -4.200   2.436  25.173  0.00  0.00    +0.275 C 
ATOM     27  O   UNL     1      -3.439   2.345  25.480  0.00  0.00    -0.268 OA
ATOM     36  N   UNL     1      -3.462   0.881  25.087  0.00  0.00    -0.227 NA
ENDROOT
BRANCH  26  28
ATOM     28  C   UNL     1      -4.572   3.171  25.204  0.00  0.00    +0.110 A 
ATOM     29  C   UNL     1      -4.343   3.772  24.685  0.00  0.00    +0.147 A 
ATOM     30  F   UNL     1      -3.742   3.635  24.137  0.00  0.00    -0.204 F 
ATOM     31  C   UNL     1      -4.715   4.508  24.717  0.00  0.00    +0.030 A 
ATOM     32  C   UNL     1      -5.315   4.643  25.266  0.00  0.00    +0.005 A 
ATOM     33  C   UNL     1      -5.544   4.044  25.784  0.00  0.00    +0.030 A 
ATOM     34  C   UNL     1      -5.172   3.308  25.753  0.00  0.00    +0.147 A 
ATOM     35  F   UNL     1      -5.401   2.708  26.271  0.00  0.00    -0.204 F 
ENDBRANCH  26  28
BRANCH   2   3
ATOM      3  C   UNL     1      -4.089  -2.080  24.038  0.00  0.00    +0.184 C 
ATOM      4  O   UNL     1      -4.568  -2.620  23.637  0.00  0.00    -0.220 OA
ENDBRANCH   2   3
BRANCH  11  12
ATOM     12  C   UNL     1      -1.996  -0.075  25.474  0.00  0.00    +0.093 C 
BRANCH  12  13
ATOM     13  C   UNL     1      -1.479   0.411  25.051  0.00  0.00    +0.242 C 
ATOM     14  O   UNL     1      -1.485   0.400  24.227  0.00  0.00    -0.273 OA
ATOM     15  N   UNL     1      -0.959   0.907  25.454  0.00  0.00    -0.207 NA
BRANCH  15  16
ATOM     16  C   UNL     1      -0.442   1.393  25.032  0.00  0.00    +0.095 C 
ATOM     17  C   UNL     1      -0.050   2.114  24.946  0.00  0.00    +0.023 C 
ATOM     18  C   UNL     1       0.060   1.516  24.389  0.00  0.00    +0.023 C 
ENDBRANCH  15  16
ENDBRANCH  12  13
ENDBRANCH  11  12
TORSDOF 5
ENDMDL
MODEL 7
REMARK VINA RESULT:     -12.6      2.095      4.046
REMARK  Name = 
REMARK  5 active torsions:
REMARK  status: ('A' for Active; 'I' for Inactive)
REMARK    1  A    between atoms: C_2  and  C_3
REMARK    2  A    between atoms: C_11  and  C_12
REMARK    3  A    between atoms: C_12  and  C_13
REMARK    4  A    between atoms: N_15  and  C_16
REMARK    5  A    between atoms: C_26  and  C_28
REMARK                            x       y       z     vdW  Elec       q    Type
REMARK                         _______ _______ _______ _____ _____    ______ ____
ROOT
ATOM      1  C   UNL     1      -5.401   2.987  24.708  0.00  0.00    +0.005 C 
ATOM      2  C   UNL     1      -4.881   2.349  24.766  0.00  0.00    +0.059 C 
ATOM      5  C   UNL     1      -5.536   2.035  25.155  0.00  0.00    +0.154 C 
ATOM      6  O   UNL     1      -6.222   2.486  25.240  0.00  0.00    -0.223 OA
ATOM      7  C   UNL     1      -5.505   1.268  25.461  0.00  0.00    +0.033 C 
ATOM      8  C   UNL     1      -4.820   0.818  25.376  0.00  0.00    +0.003 C 
ATOM      9  C   UNL     1      -4.165   1.132  24.987  0.00  0.00    +0.006 C 
ATOM     10  C   UNL     1      -4.135   0.367  25.292  0.00  0.00    +0.000 C 
ATOM     11  C   UNL     1      -3.479   0.681  24.902  0.00  0.00    +0.050 C 
ATOM     19  C   UNL     1      -2.824   0.996  24.513  0.00  0.00    +0.063 A 
ATOM     20  C   UNL     1      -2.854   1.762  24.207  0.00  0.00    +0.023 A 
ATOM     21  C   UNL     1      -3.540   2.213  24.291  0.00  0.00    +0.034 C 
ATOM     22  C   UNL     1      -4.195   1.899  24.681  0.00  0.00    +0.010 C 
ATOM     23  S   UNL     1      -2.127   1.923  23.852  0.00  0.00    -0.054 S 
ATOM     24  C   UNL     1      -1.648   1.258  23.938  0.00  0.00    +0.185 A 
ATOM     25  N   UNL     1      -0.873   1.179  23.664  0.00  0.00    -0.150 NA
ATOM     26  C   UNL     1      -0.461   0.477  23.792  0.00  0.00    +0.275 C 
ATOM     27  O   UNL     1      -0.821  -0.148  24.193  0.00  0.00    -0.268 OA
ATOM     36  N   UNL     1      -2.078   0.685  24.346  0.00  0.00    -0.227 NA
ENDROOT
BRANCH  26  28
ATOM     28  C   UNL     1       0.314   0.398  23.518  0.00  0.00    +0.110 A 
ATOM     29  C   UNL     1       0.505  -0.206  22.989  0.00  0.00    +0.147 A 
ATOM     30  F   UNL     1      -0.078  -0.731  22.735  0.00  0.00    -0.204 F 
ATOM     31  C   UNL     1       1.279  -0.285  22.715  0.00  0.00    +0.030 A 
ATOM     32  C   UNL     1       1.862   0.240  22.970  0.00  0.00    +0.005 A 
ATOM     33  C   UNL     1       1.671   0.844  23.499  0.00  0.00    +0.030 A 
ATOM     34  C   UNL     1       0.897   0.923  23.773  0.00  0.00    +0.147 A 
ATOM     35  F   UNL     1       0.706   1.527  24.302  0.00  0.00    -0.204 F 
ENDBRANCH  26  28
BRANCH   2   3
ATOM      3  C   UNL     1      -4.406   2.885  24.356  0.00  0.00    +0.184 C 
ATOM      4  O   UNL     1      -4.659   3.664  24.252  0.00  0.00    -0.220 OA
ENDBRANCH   2   3
BRANCH  11  12
ATOM     12  C   UNL     1      -3.449  -0.084  25.208  0.00  0.00    +0.093 C 
BRANCH  12  13
ATOM     13  C   UNL     1      -3.569  -0.733  24.710  0.00  0.00    +0.242 C 
ATOM     14  O   UNL     1      -3.819  -0.614  23.933  0.00  0.00    -0.273 OA
ATOM     15  N   UNL     1      -3.438  -1.496  24.990  0.00  0.00    -0.207 NA
BRANCH  15  16
ATOM     16  C   UNL     1      -3.557  -2.144  24.493  0.00  0.00    +0.095 C 
ATOM     17  C   UNL     1      -3.352  -2.906  24.252  0.00  0.00    +0.023 C 
ATOM     18  C   UNL     1      -3.966  -2.505  23.875  0.00  0.00    +0.023 C 
ENDBRANCH  15  16
ENDBRANCH  12  13
ENDBRANCH  11  12
TORSDOF 5
ENDMDL
