MODEL 1
REMARK VINA RESULT:     -11.6      0.000      0.000
REMARK  Name = 
REMARK  9 active torsions:
REMARK  status: ('A' for Active; 'I' for Inactive)
REMARK    1  A    between atoms: O_2  and  C_3
REMARK    2  A    between atoms: C_3  and  C_4
REMARK    3  A    between atoms: C_4  and  O_5
REMARK    4  A    between atoms: O_5  and  C_6
REMARK    5  A    between atoms: C_8  and  C_12
REMARK    6  A    between atoms: C_15  and  C_17
REMARK    7  A    between atoms: N_21  and  C_22
REMARK    8  A    between atoms: C_22  and  C_23
REMARK    9  A    between atoms: C_26  and  S_29
REMARK                            x       y       z     vdW  Elec       q    Type
REMARK                         _______ _______ _______ _____ _____    ______ ____
ROOT
ATOM     12  C   UNL     1      -3.027   3.690  25.539  0.00  0.00    +0.221 A 
ATOM     13  N   UNL     1      -3.486   3.890  26.195  0.00  0.00    -0.054 NA
ATOM     14  O   UNL     1      -4.187   3.456  26.158  0.00  0.00    -0.336 OA
ATOM     15  C   UNL     1      -4.161   2.987  25.480  0.00  0.00    +0.251 A 
ATOM     16  N   UNL     1      -3.444   3.132  25.097  0.00  0.00    -0.188 NA
ENDROOT
BRANCH  12   8
ATOM      6  C   UNL     1      -0.888   3.792  25.119  0.00  0.00    +0.142 A 
ATOM      7  C   UNL     1      -1.633   3.488  25.301  0.00  0.00    +0.059 A 
ATOM      8  C   UNL     1      -2.282   3.994  25.357  0.00  0.00    +0.123 A 
ATOM      9  N   UNL     1      -2.187   4.803  25.232  0.00  0.00    -0.240 NA
ATOM     10  C   UNL     1      -1.442   5.107  25.050  0.00  0.00    +0.102 A 
ATOM     11  C   UNL     1      -0.792   4.603  24.993  0.00  0.00    +0.058 A 
BRANCH   6   5
ATOM      5  O   UNL     1      -0.238   3.287  25.062  0.00  0.00    -0.473 OA
BRANCH   5   4
ATOM      4  C   UNL     1      -0.236   2.678  24.506  0.00  0.00    +0.237 C 
BRANCH   4   3
ATOM      3  C   UNL     1       0.283   2.042  24.594  0.00  0.00    +0.189 C 
BRANCH   3   2
ATOM      1  C   UNL     1       0.200   0.779  23.931  0.00  0.00    +0.174 C 
ATOM      2  O   UNL     1       0.459   1.561  23.947  0.00  0.00    -0.347 OA
ENDBRANCH   3   2
ENDBRANCH   4   3
ENDBRANCH   5   4
ENDBRANCH   6   5
ENDBRANCH  12   8
BRANCH  15  17
ATOM     17  C   UNL     1      -4.748   2.465  25.228  0.00  0.00    +0.138 C 
ATOM     18  C   UNL     1      -5.548   2.644  25.136  0.00  0.00    +0.027 C 
ATOM     19  C   UNL     1      -5.933   1.962  24.875  0.00  0.00    +0.019 C 
ATOM     20  C   UNL     1      -5.371   1.363  24.806  0.00  0.00    +0.073 C 
ATOM     21  N   UNL     1      -4.638   1.674  25.024  0.00  0.00    -0.263 NA
BRANCH  21  22
ATOM     22  C   UNL     1      -3.922   1.264  25.036  0.00  0.00    +0.099 C 
BRANCH  22  23
ATOM     23  C   UNL     1      -3.905   0.458  24.862  0.00  0.00    -0.006 A 
ATOM     24  C   UNL     1      -3.807   0.206  24.082  0.00  0.00    -0.002 A 
ATOM     25  C   UNL     1      -3.790  -0.600  23.909  0.00  0.00    +0.018 A 
ATOM     26  C   UNL     1      -3.870  -1.154  24.514  0.00  0.00    +0.106 A 
ATOM     27  C   UNL     1      -3.968  -0.903  25.294  0.00  0.00    +0.018 A 
ATOM     28  C   UNL     1      -3.985  -0.096  25.467  0.00  0.00    -0.002 A 
BRANCH  26  29
ATOM     29  S   UNL     1      -3.853  -1.961  24.341  0.00  0.00    +0.010 S 
ATOM     30  C   UNL     1      -3.835  -2.767  24.167  0.00  0.00    +0.182 C 
ATOM     31  O   UNL     1      -3.362  -2.091  24.992  0.00  0.00    -0.169 OA
ATOM     32  O   UNL     1      -4.343  -1.832  23.690  0.00  0.00    -0.169 OA
ENDBRANCH  26  29
ENDBRANCH  22  23
ENDBRANCH  21  22
ENDBRANCH  15  17
TORSDOF 9
ENDMDL
MODEL 2
REMARK VINA RESULT:     -11.5      1.579      3.589
REMARK  Name = 
REMARK  9 active torsions:
REMARK  status: ('A' for Active; 'I' for Inactive)
REMARK    1  A    between atoms: O_2  and  C_3
REMARK    2  A    between atoms: C_3  and  C_4
REMARK    3  A    between atoms: C_4  and  O_5
REMARK    4  A    between atoms: O_5  and  C_6
REMARK    5  A    between atoms: C_8  and  C_12
REMARK    6  A    between atoms: C_15  and  C_17
REMARK    7  A    between atoms: N_21  and  C_22
REMARK    8  A    between atoms: C_22  and  C_23
REMARK    9  A    between atoms: C_26  and  S_29
REMARK                            x       y       z     vdW  Elec       q    Type
REMARK                         _______ _______ _______ _____ _____    ______ ____
ROOT
ATOM     12  C   UNL     1      -0.655   2.848  25.222  0.00  0.00    +0.221 A 
ATOM     13  N   UNL     1      -0.048   2.623  25.734  0.00  0.00    -0.054 NA
ATOM     14  O   UNL     1       0.252   1.901  25.472  0.00  0.00    -0.336 OA
ATOM     15  C   UNL     1      -0.169   1.680  24.798  0.00  0.00    +0.251 A 
ATOM     16  N   UNL     1      -0.730   2.265  24.644  0.00  0.00    -0.188 NA
ENDROOT
BRANCH  12   8
ATOM      6  C   UNL     1      -2.326   4.189  25.640  0.00  0.00    +0.142 A 
ATOM      7  C   UNL     1      -1.874   3.501  25.583  0.00  0.00    +0.059 A 
ATOM      8  C   UNL     1      -1.107   3.536  25.279  0.00  0.00    +0.123 A 
ATOM      9  N   UNL     1      -0.793   4.257  25.033  0.00  0.00    -0.240 NA
ATOM     10  C   UNL     1      -1.246   4.945  25.090  0.00  0.00    +0.102 A 
ATOM     11  C   UNL     1      -2.012   4.911  25.393  0.00  0.00    +0.058 A 
BRANCH   6   5
ATOM      5  O   UNL     1      -3.093   4.155  25.943  0.00  0.00    -0.473 OA
BRANCH   5   4
ATOM      4  C   UNL     1      -3.703   3.838  25.488  0.00  0.00    +0.237 C 
BRANCH   4   3
ATOM      3  C   UNL     1      -4.437   3.685  25.833  0.00  0.00    +0.189 C 
BRANCH   3   2
ATOM      1  C   UNL     1      -5.611   2.892  25.640  0.00  0.00    +0.174 C 
ATOM      2  O   UNL     1      -5.074   3.453  25.362  0.00  0.00    -0.347 OA
ENDBRANCH   3   2
ENDBRANCH   4   3
ENDBRANCH   5   4
ENDBRANCH   6   5
ENDBRANCH  12   8
BRANCH  15  17
ATOM     17  C   UNL     1      -0.051   0.994  24.355  0.00  0.00    +0.138 C 
ATOM     18  C   UNL     1       0.448   0.918  23.702  0.00  0.00    +0.027 C 
ATOM     19  C   UNL     1       0.396   0.140  23.431  0.00  0.00    +0.019 C 
ATOM     20  C   UNL     1      -0.134  -0.265  23.916  0.00  0.00    +0.073 C 
ATOM     21  N   UNL     1      -0.410   0.263  24.488  0.00  0.00    -0.263 NA
BRANCH  21  22
ATOM     22  C   UNL     1      -0.951   0.090  25.086  0.00  0.00    +0.099 C 
BRANCH  22  23
ATOM     23  C   UNL     1      -1.491  -0.526  24.989  0.00  0.00    -0.006 A 
ATOM     24  C   UNL     1      -2.245  -0.370  24.690  0.00  0.00    -0.002 A 
ATOM     25  C   UNL     1      -2.785  -0.986  24.593  0.00  0.00    +0.018 A 
ATOM     26  C   UNL     1      -2.572  -1.757  24.794  0.00  0.00    +0.106 A 
ATOM     27  C   UNL     1      -1.819  -1.913  25.092  0.00  0.00    +0.018 A 
ATOM     28  C   UNL     1      -1.278  -1.297  25.189  0.00  0.00    -0.002 A 
BRANCH  26  29
ATOM     29  S   UNL     1      -3.113  -2.373  24.696  0.00  0.00    +0.010 S 
ATOM     30  C   UNL     1      -3.653  -2.989  24.599  0.00  0.00    +0.182 C 
ATOM     31  O   UNL     1      -2.652  -2.681  24.084  0.00  0.00    -0.169 OA
ATOM     32  O   UNL     1      -3.573  -2.066  25.308  0.00  0.00    -0.169 OA
ENDBRANCH  26  29
ENDBRANCH  22  23
ENDBRANCH  21  22
ENDBRANCH  15  17
TORSDOF 9
ENDMDL
MODEL 3
REMARK VINA RESULT:     -10.4      1.955      4.711
REMARK  Name = 
REMARK  9 active torsions:
REMARK  status: ('A' for Active; 'I' for Inactive)
REMARK    1  A    between atoms: O_2  and  C_3
REMARK    2  A    between atoms: C_3  and  C_4
REMARK    3  A    between atoms: C_4  and  O_5
REMARK    4  A    between atoms: O_5  and  C_6
REMARK    5  A    between atoms: C_8  and  C_12
REMARK    6  A    between atoms: C_15  and  C_17
REMARK    7  A    between atoms: N_21  and  C_22
REMARK    8  A    between atoms: C_22  and  C_23
REMARK    9  A    between atoms: C_26  and  S_29
REMARK                            x       y       z     vdW  Elec       q    Type
REMARK                         _______ _______ _______ _____ _____    ______ ____
ROOT
ATOM     12  C   UNL     1      -4.051  -0.555  24.707  0.00  0.00    +0.221 A 
ATOM     13  N   UNL     1      -4.655  -0.506  24.146  0.00  0.00    -0.054 NA
ATOM     14  O   UNL     1      -5.037   0.218  24.245  0.00  0.00    -0.336 OA
ATOM     15  C   UNL     1      -4.670   0.618  24.866  0.00  0.00    +0.251 A 
ATOM     16  N   UNL     1      -4.061   0.140  25.152  0.00  0.00    -0.188 NA
ENDROOT
BRANCH  12   8
ATOM      6  C   UNL     1      -2.196  -1.683  24.924  0.00  0.00    +0.142 A 
ATOM      7  C   UNL     1      -2.717  -1.051  24.826  0.00  0.00    +0.059 A 
ATOM      8  C   UNL     1      -3.530  -1.187  24.805  0.00  0.00    +0.123 A 
ATOM      9  N   UNL     1      -3.823  -1.953  24.883  0.00  0.00    -0.240 NA
ATOM     10  C   UNL     1      -3.302  -2.586  24.981  0.00  0.00    +0.102 A 
ATOM     11  C   UNL     1      -2.488  -2.451  25.002  0.00  0.00    +0.058 A 
BRANCH   6   5
ATOM      5  O   UNL     1      -1.382  -1.548  24.945  0.00  0.00    -0.473 OA
BRANCH   5   4
ATOM      4  C   UNL     1      -0.994  -1.262  24.275  0.00  0.00    +0.237 C 
BRANCH   4   3
ATOM      3  C   UNL     1      -0.260  -0.893  24.351  0.00  0.00    +0.189 C 
BRANCH   3   2
ATOM      1  C   UNL     1       0.551  -0.052  23.527  0.00  0.00    +0.174 C 
ATOM      2  O   UNL     1       0.221  -0.791  23.689  0.00  0.00    -0.347 OA
ENDBRANCH   3   2
ENDBRANCH   4   3
ENDBRANCH   5   4
ENDBRANCH   6   5
ENDBRANCH  12   8
BRANCH  15  17
ATOM     17  C   UNL     1      -4.875   1.364  25.152  0.00  0.00    +0.138 C 
ATOM     18  C   UNL     1      -5.511   1.534  25.650  0.00  0.00    +0.027 C 
ATOM     19  C   UNL     1      -5.510   2.346  25.796  0.00  0.00    +0.019 C 
ATOM     20  C   UNL     1      -4.874   2.678  25.389  0.00  0.00    +0.073 C 
ATOM     21  N   UNL     1      -4.481   2.070  24.991  0.00  0.00    -0.263 NA
BRANCH  21  22
ATOM     22  C   UNL     1      -3.812   2.155  24.516  0.00  0.00    +0.099 C 
BRANCH  22  23
ATOM     23  C   UNL     1      -3.280   2.768  24.659  0.00  0.00    -0.006 A 
ATOM     24  C   UNL     1      -2.614   2.635  25.129  0.00  0.00    -0.002 A 
ATOM     25  C   UNL     1      -2.081   3.248  25.272  0.00  0.00    +0.018 A 
ATOM     26  C   UNL     1      -2.213   3.994  24.946  0.00  0.00    +0.106 A 
ATOM     27  C   UNL     1      -2.879   4.128  24.477  0.00  0.00    +0.018 A 
ATOM     28  C   UNL     1      -3.412   3.514  24.334  0.00  0.00    -0.002 A 
BRANCH  26  29
ATOM     29  S   UNL     1      -1.680   4.608  25.090  0.00  0.00    +0.010 S 
ATOM     30  C   UNL     1      -1.147   5.221  25.233  0.00  0.00    +0.182 C 
ATOM     31  O   UNL     1      -1.111   4.220  24.635  0.00  0.00    -0.169 OA
ATOM     32  O   UNL     1      -2.248   4.996  25.544  0.00  0.00    -0.169 OA
ENDBRANCH  26  29
ENDBRANCH  22  23
ENDBRANCH  21  22
ENDBRANCH  15  17
TORSDOF 9
ENDMDL
MODEL 4
REMARK VINA RESULT:     -10.4      1.945      4.640
REMARK  Name = 
REMARK  9 active torsions:
REMARK  status: ('A' for Active; 'I' for Inactive)
REMARK    1  A    between atoms: O_2  and  C_3
REMARK    2  A    between atoms: C_3  and  C_4
REMARK    3  A    between atoms: C_4  and  O_5
REMARK    4  A    between atoms: O_5  and  C_6
REMARK    5  A    between atoms: C_8  and  C_12
REMARK    6  A    between atoms: C_15  and  C_17
REMARK    7  A    between atoms: N_21  and  C_22
REMARK    8  A    between atoms: C_22  and  C_23
REMARK    9  A    between atoms: C_26  and  S_29
REMARK                            x       y       z     vdW  Elec       q    Type
REMARK                         _______ _______ _______ _____ _____    ______ ____
ROOT
ATOM     12  C   UNL     1      -0.012   1.720  24.715  0.00  0.00    +0.221 A 
ATOM     13  N   UNL     1       0.441   1.969  25.358  0.00  0.00    -0.054 NA
ATOM     14  O   UNL     1       0.208   2.737  25.552  0.00  0.00    -0.336 OA
ATOM     15  C   UNL     1      -0.390   2.961  25.029  0.00  0.00    +0.251 A 
ATOM     16  N   UNL     1      -0.525   2.333  24.512  0.00  0.00    -0.188 NA
ENDROOT
BRANCH  12   8
ATOM      6  C   UNL     1      -0.283  -0.405  24.297  0.00  0.00    +0.142 A 
ATOM      7  C   UNL     1      -0.334   0.329  24.670  0.00  0.00    +0.059 A 
ATOM      8  C   UNL     1       0.040   0.986  24.341  0.00  0.00    +0.123 A 
ATOM      9  N   UNL     1       0.464   0.911  23.638  0.00  0.00    -0.240 NA
ATOM     10  C   UNL     1       0.516   0.177  23.264  0.00  0.00    +0.102 A 
ATOM     11  C   UNL     1       0.143  -0.481  23.593  0.00  0.00    +0.058 A 
BRANCH   6   5
ATOM      5  O   UNL     1      -0.656  -1.063  24.625  0.00  0.00    -0.473 OA
BRANCH   5   4
ATOM      4  C   UNL     1      -1.378  -1.322  24.323  0.00  0.00    +0.237 C 
BRANCH   4   3
ATOM      3  C   UNL     1      -1.791  -1.926  24.703  0.00  0.00    +0.189 C 
BRANCH   3   2
ATOM      1  C   UNL     1      -3.106  -2.482  24.778  0.00  0.00    +0.174 C 
ATOM      2  O   UNL     1      -2.441  -2.277  24.335  0.00  0.00    -0.347 OA
ENDBRANCH   3   2
ENDBRANCH   4   3
ENDBRANCH   5   4
ENDBRANCH   6   5
ENDBRANCH  12   8
BRANCH  15  17
ATOM     17  C   UNL     1      -0.782   3.687  25.024  0.00  0.00    +0.138 C 
ATOM     18  C   UNL     1      -0.508   4.384  24.678  0.00  0.00    +0.027 C 
ATOM     19  C   UNL     1      -1.075   4.971  24.804  0.00  0.00    +0.019 C 
ATOM     20  C   UNL     1      -1.699   4.636  25.227  0.00  0.00    +0.073 C 
ATOM     21  N   UNL     1      -1.518   3.842  25.363  0.00  0.00    -0.263 NA
BRANCH  21  22
ATOM     22  C   UNL     1      -1.990   3.300  25.767  0.00  0.00    +0.099 C 
BRANCH  22  23
ATOM     23  C   UNL     1      -2.812   3.356  25.725  0.00  0.00    -0.006 A 
ATOM     24  C   UNL     1      -3.222   3.829  26.263  0.00  0.00    -0.002 A 
ATOM     25  C   UNL     1      -4.043   3.885  26.221  0.00  0.00    +0.018 A 
ATOM     26  C   UNL     1      -4.456   3.469  25.640  0.00  0.00    +0.106 A 
ATOM     27  C   UNL     1      -4.047   2.997  25.102  0.00  0.00    +0.018 A 
ATOM     28  C   UNL     1      -3.224   2.940  25.144  0.00  0.00    -0.002 A 
BRANCH  26  29
ATOM     29  S   UNL     1      -5.278   3.525  25.597  0.00  0.00    +0.010 S 
ATOM     30  C   UNL     1      -6.100   3.581  25.555  0.00  0.00    +0.182 C 
ATOM     31  O   UNL     1      -5.348   2.790  25.967  0.00  0.00    -0.169 OA
ATOM     32  O   UNL     1      -5.209   4.259  25.228  0.00  0.00    -0.169 OA
ENDBRANCH  26  29
ENDBRANCH  22  23
ENDBRANCH  21  22
ENDBRANCH  15  17
TORSDOF 9
ENDMDL
MODEL 5
REMARK VINA RESULT:     -10.2      2.290      5.833
REMARK  Name = 
REMARK  9 active torsions:
REMARK  status: ('A' for Active; 'I' for Inactive)
REMARK    1  A    between atoms: O_2  and  C_3
REMARK    2  A    between atoms: C_3  and  C_4
REMARK    3  A    between atoms: C_4  and  O_5
REMARK    4  A    between atoms: O_5  and  C_6
REMARK    5  A    between atoms: C_8  and  C_12
REMARK    6  A    between atoms: C_15  and  C_17
REMARK    7  A    between atoms: N_21  and  C_22
REMARK    8  A    between atoms: C_22  and  C_23
REMARK    9  A    between atoms: C_26  and  S_29
REMARK                            x       y       z     vdW  Elec       q    Type
REMARK                         _______ _______ _______ _____ _____    ______ ____
ROOT
ATOM     12  C   UNL     1      -1.674  -1.136  24.658  0.00  0.00    +0.221 A 
ATOM     13  N   UNL     1      -1.054  -1.441  25.111  0.00  0.00    -0.054 NA
ATOM     14  O   UNL     1      -0.396  -0.956  25.000  0.00  0.00    -0.336 OA
ATOM     15  C   UNL     1      -0.608  -0.352  24.479  0.00  0.00    +0.251 A 
ATOM     16  N   UNL     1      -1.398  -0.464  24.268  0.00  0.00    -0.188 NA
ENDROOT
BRANCH  12   8
ATOM      6  C   UNL     1      -3.851  -1.260  24.561  0.00  0.00    +0.142 A 
ATOM      7  C   UNL     1      -3.089  -0.947  24.614  0.00  0.00    +0.059 A 
ATOM      8  C   UNL     1      -2.435  -1.450  24.605  0.00  0.00    +0.123 A 
ATOM      9  N   UNL     1      -2.542  -2.265  24.543  0.00  0.00    -0.240 NA
ATOM     10  C   UNL     1      -3.303  -2.578  24.490  0.00  0.00    +0.102 A 
ATOM     11  C   UNL     1      -3.958  -2.076  24.499  0.00  0.00    +0.058 A 
BRANCH   6   5
ATOM      5  O   UNL     1      -4.505  -0.759  24.571  0.00  0.00    -0.473 OA
BRANCH   5   4
ATOM      4  C   UNL     1      -4.455  -0.020  24.935  0.00  0.00    +0.237 C 
BRANCH   4   3
ATOM      3  C   UNL     1      -5.043   0.544  24.805  0.00  0.00    +0.189 C 
BRANCH   3   2
ATOM      1  C   UNL     1      -5.466   1.892  25.023  0.00  0.00    +0.174 C 
ATOM      2  O   UNL     1      -5.091   1.209  25.292  0.00  0.00    -0.347 OA
ENDBRANCH   3   2
ENDBRANCH   4   3
ENDBRANCH   5   4
ENDBRANCH   6   5
ENDBRANCH  12   8
BRANCH  15  17
ATOM     17  C   UNL     1      -0.117   0.256  24.216  0.00  0.00    +0.138 C 
ATOM     18  C   UNL     1       0.449   0.198  23.618  0.00  0.00    +0.027 C 
ATOM     19  C   UNL     1       0.810   0.936  23.537  0.00  0.00    +0.019 C 
ATOM     20  C   UNL     1       0.467   1.449  24.084  0.00  0.00    +0.073 C 
ATOM     21  N   UNL     1      -0.106   1.029  24.504  0.00  0.00    -0.263 NA
BRANCH  21  22
ATOM     22  C   UNL     1      -0.583   1.330  25.106  0.00  0.00    +0.099 C 
BRANCH  22  23
ATOM     23  C   UNL     1      -0.775   2.132  25.119  0.00  0.00    -0.006 A 
ATOM     24  C   UNL     1      -1.422   2.409  24.688  0.00  0.00    -0.002 A 
ATOM     25  C   UNL     1      -1.613   3.211  24.701  0.00  0.00    +0.018 A 
ATOM     26  C   UNL     1      -1.158   3.736  25.145  0.00  0.00    +0.106 A 
ATOM     27  C   UNL     1      -0.511   3.460  25.576  0.00  0.00    +0.018 A 
ATOM     28  C   UNL     1      -0.319   2.657  25.562  0.00  0.00    -0.002 A 
BRANCH  26  29
ATOM     29  S   UNL     1      -1.350   4.539  25.158  0.00  0.00    +0.010 S 
ATOM     30  C   UNL     1      -1.541   5.341  25.171  0.00  0.00    +0.182 C 
ATOM     31  O   UNL     1      -0.642   4.714  24.770  0.00  0.00    -0.169 OA
ATOM     32  O   UNL     1      -2.056   4.364  25.545  0.00  0.00    -0.169 OA
ENDBRANCH  26  29
ENDBRANCH  22  23
ENDBRANCH  21  22
ENDBRANCH  15  17
TORSDOF 9
ENDMDL
MODEL 6
REMARK VINA RESULT:      -9.9      1.381      4.290
REMARK  Name = 
REMARK  9 active torsions:
REMARK  status: ('A' for Active; 'I' for Inactive)
REMARK    1  A    between atoms: O_2  and  C_3
REMARK    2  A    between atoms: C_3  and  C_4
REMARK    3  A    between atoms: C_4  and  O_5
REMARK    4  A    between atoms: O_5  and  C_6
REMARK    5  A    between atoms: C_8  and  C_12
REMARK    6  A    between atoms: C_15  and  C_17
REMARK    7  A    between atoms: N_21  and  C_22
REMARK    8  A    between atoms: C_22  and  C_23
REMARK    9  A    between atoms: C_26  and  S_29
REMARK                            x       y       z     vdW  Elec       q    Type
REMARK                         _______ _______ _______ _____ _____    ______ ____
ROOT
ATOM     12  C   UNL     1      -3.837   3.525  25.740  0.00  0.00    +0.221 A 
ATOM     13  N   UNL     1      -3.674   3.950  26.429  0.00  0.00    -0.054 NA
ATOM     14  O   UNL     1      -2.913   4.262  26.360  0.00  0.00    -0.336 OA
ATOM     15  C   UNL     1      -2.607   4.030  25.630  0.00  0.00    +0.251 A 
ATOM     16  N   UNL     1      -3.178   3.575  25.247  0.00  0.00    -0.188 NA
ENDROOT
BRANCH  12   8
ATOM      6  C   UNL     1      -5.212   1.985  25.031  0.00  0.00    +0.142 A 
ATOM      7  C   UNL     1      -4.511   2.388  25.196  0.00  0.00    +0.059 A 
ATOM      8  C   UNL     1      -4.538   3.121  25.574  0.00  0.00    +0.123 A 
ATOM      9  N   UNL     1      -5.263   3.451  25.787  0.00  0.00    -0.240 NA
ATOM     10  C   UNL     1      -5.963   3.047  25.621  0.00  0.00    +0.102 A 
ATOM     11  C   UNL     1      -5.938   2.314  25.243  0.00  0.00    +0.058 A 
BRANCH   6   5
ATOM      5  O   UNL     1      -5.187   1.252  24.653  0.00  0.00    -0.473 OA
BRANCH   5   4
ATOM      4  C   UNL     1      -4.710   0.649  24.953  0.00  0.00    +0.237 C 
BRANCH   4   3
ATOM      3  C   UNL     1      -4.544  -0.014  24.490  0.00  0.00    +0.189 C 
BRANCH   3   2
ATOM      1  C   UNL     1      -3.879  -1.273  24.373  0.00  0.00    +0.174 C 
ATOM      2  O   UNL     1      -4.236  -0.694  24.840  0.00  0.00    -0.347 OA
ENDBRANCH   3   2
ENDBRANCH   4   3
ENDBRANCH   5   4
ENDBRANCH   6   5
ENDBRANCH  12   8
BRANCH  15  17
ATOM     17  C   UNL     1      -1.860   4.220  25.335  0.00  0.00    +0.138 C 
ATOM     18  C   UNL     1      -1.624   4.959  25.054  0.00  0.00    +0.027 C 
ATOM     19  C   UNL     1      -0.836   4.900  24.814  0.00  0.00    +0.019 C 
ATOM     20  C   UNL     1      -0.586   4.126  24.947  0.00  0.00    +0.073 C 
ATOM     21  N   UNL     1      -1.219   3.705  25.269  0.00  0.00    -0.263 NA
BRANCH  21  22
ATOM     22  C   UNL     1      -1.212   2.910  25.486  0.00  0.00    +0.099 C 
BRANCH  22  23
ATOM     23  C   UNL     1      -0.786   2.363  25.039  0.00  0.00    -0.006 A 
ATOM     24  C   UNL     1       0.003   2.204  25.222  0.00  0.00    -0.002 A 
ATOM     25  C   UNL     1       0.428   1.658  24.774  0.00  0.00    +0.018 A 
ATOM     26  C   UNL     1       0.066   1.270  24.143  0.00  0.00    +0.106 A 
ATOM     27  C   UNL     1      -0.723   1.429  23.959  0.00  0.00    +0.018 A 
ATOM     28  C   UNL     1      -1.149   1.975  24.407  0.00  0.00    -0.002 A 
BRANCH  26  29
ATOM     29  S   UNL     1       0.491   0.723  23.695  0.00  0.00    +0.010 S 
ATOM     30  C   UNL     1       0.916   0.177  23.247  0.00  0.00    +0.182 C 
ATOM     31  O   UNL     1       1.112   1.263  23.625  0.00  0.00    -0.169 OA
ATOM     32  O   UNL     1      -0.129   0.184  23.764  0.00  0.00    -0.169 OA
ENDBRANCH  26  29
ENDBRANCH  22  23
ENDBRANCH  21  22
ENDBRANCH  15  17
TORSDOF 9
ENDMDL
MODEL 7
REMARK VINA RESULT:      -9.7      2.616      4.540
REMARK  Name = 
REMARK  9 active torsions:
REMARK  status: ('A' for Active; 'I' for Inactive)
REMARK    1  A    between atoms: O_2  and  C_3
REMARK    2  A    between atoms: C_3  and  C_4
REMARK    3  A    between atoms: C_4  and  O_5
REMARK    4  A    between atoms: O_5  and  C_6
REMARK    5  A    between atoms: C_8  and  C_12
REMARK    6  A    between atoms: C_15  and  C_17
REMARK    7  A    between atoms: N_21  and  C_22
REMARK    8  A    between atoms: C_22  and  C_23
REMARK    9  A    between atoms: C_26  and  S_29
REMARK                            x       y       z     vdW  Elec       q    Type
REMARK                         _______ _______ _______ _____ _____    ______ ____
ROOT
ATOM     12  C   UNL     1       0.165   1.872  24.595  0.00  0.00    +0.221 A 
ATOM     13  N   UNL     1       0.480   2.044  25.339  0.00  0.00    -0.054 NA
ATOM     14  O   UNL     1       0.165   2.765  25.588  0.00  0.00    -0.336 OA
ATOM     15  C   UNL     1      -0.344   3.038  24.999  0.00  0.00    +0.251 A 
ATOM     16  N   UNL     1      -0.344   2.486  24.386  0.00  0.00    -0.188 NA
ENDROOT
BRANCH  12   8
ATOM      6  C   UNL     1       1.167   0.518  23.207  0.00  0.00    +0.142 A 
ATOM      7  C   UNL     1       1.001   1.187  23.661  0.00  0.00    +0.059 A 
ATOM      8  C   UNL     1       0.331   1.203  24.141  0.00  0.00    +0.123 A 
ATOM      9  N   UNL     1      -0.174   0.552  24.169  0.00  0.00    -0.240 NA
ATOM     10  C   UNL     1      -0.008  -0.117  23.715  0.00  0.00    +0.102 A 
ATOM     11  C   UNL     1       0.662  -0.135  23.234  0.00  0.00    +0.058 A 
BRANCH   6   5
ATOM      5  O   UNL     1       1.837   0.501  22.726  0.00  0.00    -0.473 OA
BRANCH   5   4
ATOM      4  C   UNL     1       2.588   0.483  23.065  0.00  0.00    +0.237 C 
BRANCH   4   3
ATOM      3  C   UNL     1       3.258   0.466  22.583  0.00  0.00    +0.189 C 
BRANCH   3   2
ATOM      1  C   UNL     1       4.646   0.395  22.916  0.00  0.00    +0.174 C 
ATOM      2  O   UNL     1       3.953   0.835  22.831  0.00  0.00    -0.347 OA
ENDBRANCH   3   2
ENDBRANCH   4   3
ENDBRANCH   5   4
ENDBRANCH   6   5
ENDBRANCH  12   8
BRANCH  15  17
ATOM     17  C   UNL     1      -0.778   3.739  25.020  0.00  0.00    +0.138 C 
ATOM     18  C   UNL     1      -0.534   4.469  24.722  0.00  0.00    +0.027 C 
ATOM     19  C   UNL     1      -1.137   5.016  24.860  0.00  0.00    +0.019 C 
ATOM     20  C   UNL     1      -1.753   4.624  25.243  0.00  0.00    +0.073 C 
ATOM     21  N   UNL     1      -1.531   3.835  25.342  0.00  0.00    -0.263 NA
BRANCH  21  22
ATOM     22  C   UNL     1      -1.984   3.246  25.701  0.00  0.00    +0.099 C 
BRANCH  22  23
ATOM     23  C   UNL     1      -2.807   3.282  25.670  0.00  0.00    -0.006 A 
ATOM     24  C   UNL     1      -3.220   3.752  26.208  0.00  0.00    -0.002 A 
ATOM     25  C   UNL     1      -4.043   3.787  26.176  0.00  0.00    +0.018 A 
ATOM     26  C   UNL     1      -4.454   3.353  25.608  0.00  0.00    +0.106 A 
ATOM     27  C   UNL     1      -4.041   2.883  25.070  0.00  0.00    +0.018 A 
ATOM     28  C   UNL     1      -3.217   2.848  25.101  0.00  0.00    -0.002 A 
BRANCH  26  29
ATOM     29  S   UNL     1      -5.278   3.389  25.577  0.00  0.00    +0.010 S 
ATOM     30  C   UNL     1      -6.101   3.424  25.545  0.00  0.00    +0.182 C 
ATOM     31  O   UNL     1      -5.322   2.607  25.838  0.00  0.00    -0.169 OA
ATOM     32  O   UNL     1      -5.235   4.169  25.315  0.00  0.00    -0.169 OA
ENDBRANCH  26  29
ENDBRANCH  22  23
ENDBRANCH  21  22
ENDBRANCH  15  17
TORSDOF 9
ENDMDL
MODEL 8
REMARK VINA RESULT:      -9.6      1.738      3.702
REMARK  Name = 
REMARK  9 active torsions:
REMARK  status: ('A' for Active; 'I' for Inactive)
REMARK    1  A    between atoms: O_2  and  C_3
REMARK    2  A    between atoms: C_3  and  C_4
REMARK    3  A    between atoms: C_4  and  O_5
REMARK    4  A    between atoms: O_5  and  C_6
REMARK    5  A    between atoms: C_8  and  C_12
REMARK    6  A    between atoms: C_15  and  C_17
REMARK    7  A    between atoms: N_21  and  C_22
REMARK    8  A    between atoms: C_22  and  C_23
REMARK    9  A    between atoms: C_26  and  S_29
REMARK                            x       y       z     vdW  Elec       q    Type
REMARK                         _______ _______ _______ _____ _____    ______ ____
ROOT
ATOM     12  C   UNL     1      -4.694   1.305  25.281  0.00  0.00    +0.221 A 
ATOM     13  N   UNL     1      -4.982   0.783  25.852  0.00  0.00    -0.054 NA
ATOM     14  O   UNL     1      -4.730   0.023  25.653  0.00  0.00    -0.336 OA
ATOM     15  C   UNL     1      -4.286   0.076  24.960  0.00  0.00    +0.251 A 
ATOM     16  N   UNL     1      -4.264   0.868  24.730  0.00  0.00    -0.188 NA
ENDROOT
BRANCH  12   8
ATOM      6  C   UNL     1      -4.327   3.440  25.010  0.00  0.00    +0.142 A 
ATOM      7  C   UNL     1      -4.206   2.624  25.026  0.00  0.00    +0.059 A 
ATOM      8  C   UNL     1      -4.815   2.121  25.266  0.00  0.00    +0.123 A 
ATOM      9  N   UNL     1      -5.545   2.434  25.489  0.00  0.00    -0.240 NA
ATOM     10  C   UNL     1      -5.666   3.250  25.473  0.00  0.00    +0.102 A 
ATOM     11  C   UNL     1      -5.058   3.753  25.234  0.00  0.00    +0.058 A 
BRANCH   6   5
ATOM      5  O   UNL     1      -3.719   3.943  24.771  0.00  0.00    -0.473 OA
BRANCH   5   4
ATOM      4  C   UNL     1      -3.036   4.011  25.227  0.00  0.00    +0.237 C 
BRANCH   4   3
ATOM      3  C   UNL     1      -2.398   4.456  24.950  0.00  0.00    +0.189 C 
BRANCH   3   2
ATOM      1  C   UNL     1      -1.016   4.795  25.078  0.00  0.00    +0.174 C 
ATOM      2  O   UNL     1      -1.724   4.545  25.418  0.00  0.00    -0.347 OA
ENDBRANCH   3   2
ENDBRANCH   4   3
ENDBRANCH   5   4
ENDBRANCH   6   5
ENDBRANCH  12   8
BRANCH  15  17
ATOM     17  C   UNL     1      -3.927  -0.553  24.565  0.00  0.00    +0.138 C 
ATOM     18  C   UNL     1      -4.312  -1.121  24.106  0.00  0.00    +0.027 C 
ATOM     19  C   UNL     1      -3.742  -1.644  23.817  0.00  0.00    +0.019 C 
ATOM     20  C   UNL     1      -3.006  -1.399  24.096  0.00  0.00    +0.073 C 
ATOM     21  N   UNL     1      -3.120  -0.725  24.559  0.00  0.00    -0.263 NA
BRANCH  21  22
ATOM     22  C   UNL     1      -2.530  -0.298  24.946  0.00  0.00    +0.099 C 
BRANCH  22  23
ATOM     23  C   UNL     1      -1.783  -0.223  24.605  0.00  0.00    -0.006 A 
ATOM     24  C   UNL     1      -1.631   0.393  24.077  0.00  0.00    -0.002 A 
ATOM     25  C   UNL     1      -0.884   0.468  23.735  0.00  0.00    +0.018 A 
ATOM     26  C   UNL     1      -0.289  -0.072  23.922  0.00  0.00    +0.106 A 
ATOM     27  C   UNL     1      -0.440  -0.687  24.450  0.00  0.00    +0.018 A 
ATOM     28  C   UNL     1      -1.188  -0.763  24.791  0.00  0.00    -0.002 A 
BRANCH  26  29
ATOM     29  S   UNL     1       0.459   0.004  23.580  0.00  0.00    +0.010 S 
ATOM     30  C   UNL     1       1.206   0.079  23.239  0.00  0.00    +0.182 C 
ATOM     31  O   UNL     1       0.520   0.769  23.882  0.00  0.00    -0.169 OA
ATOM     32  O   UNL     1       0.398  -0.761  23.278  0.00  0.00    -0.169 OA
ENDBRANCH  26  29
ENDBRANCH  22  23
ENDBRANCH  21  22
ENDBRANCH  15  17
TORSDOF 9
ENDMDL
MODEL 9
REMARK VINA RESULT:      -9.5      2.760      4.556
REMARK  Name = 
REMARK  9 active torsions:
REMARK  status: ('A' for Active; 'I' for Inactive)
REMARK    1  A    between atoms: O_2  and  C_3
REMARK    2  A    between atoms: C_3  and  C_4
REMARK    3  A    between atoms: C_4  and  O_5
REMARK    4  A    between atoms: O_5  and  C_6
REMARK    5  A    between atoms: C_8  and  C_12
REMARK    6  A    between atoms: C_15  and  C_17
REMARK    7  A    between atoms: N_21  and  C_22
REMARK    8  A    between atoms: C_22  and  C_23
REMARK    9  A    between atoms: C_26  and  S_29
REMARK                            x       y       z     vdW  Elec       q    Type
REMARK                         _______ _______ _______ _____ _____    ______ ____
ROOT
ATOM     12  C   UNL     1       0.383   0.497  23.866  0.00  0.00    +0.221 A 
ATOM     13  N   UNL     1      -0.014  -0.033  24.359  0.00  0.00    -0.054 NA
ATOM     14  O   UNL     1      -0.510   0.402  24.854  0.00  0.00    -0.336 OA
ATOM     15  C   UNL     1      -0.420   1.201  24.667  0.00  0.00    +0.251 A 
ATOM     16  N   UNL     1       0.132   1.259  24.056  0.00  0.00    -0.188 NA
ENDROOT
BRANCH  12   8
ATOM      6  C   UNL     1       2.241   0.430  22.723  0.00  0.00    +0.142 A 
ATOM      7  C   UNL     1       1.690   0.628  23.304  0.00  0.00    +0.059 A 
ATOM      8  C   UNL     1       0.934   0.299  23.284  0.00  0.00    +0.123 A 
ATOM      9  N   UNL     1       0.728  -0.227  22.684  0.00  0.00    -0.240 NA
ATOM     10  C   UNL     1       1.279  -0.425  22.102  0.00  0.00    +0.102 A 
ATOM     11  C   UNL     1       2.035  -0.097  22.121  0.00  0.00    +0.058 A 
BRANCH   6   5
ATOM      5  O   UNL     1       2.997   0.758  22.741  0.00  0.00    -0.473 OA
BRANCH   5   4
ATOM      4  C   UNL     1       3.656   0.271  22.839  0.00  0.00    +0.237 C 
BRANCH   4   3
ATOM      3  C   UNL     1       4.389   0.603  23.025  0.00  0.00    +0.189 C 
BRANCH   3   2
ATOM      1  C   UNL     1       5.569   0.123  23.673  0.00  0.00    +0.174 C 
ATOM      2  O   UNL     1       5.067   0.132  23.018  0.00  0.00    -0.347 OA
ENDBRANCH   3   2
ENDBRANCH   4   3
ENDBRANCH   5   4
ENDBRANCH   6   5
ENDBRANCH  12   8
BRANCH  15  17
ATOM     17  C   UNL     1      -0.812   1.831  25.028  0.00  0.00    +0.138 C 
ATOM     18  C   UNL     1      -0.484   2.361  25.569  0.00  0.00    +0.027 C 
ATOM     19  C   UNL     1      -1.071   2.899  25.786  0.00  0.00    +0.019 C 
ATOM     20  C   UNL     1      -1.761   2.702  25.380  0.00  0.00    +0.073 C 
ATOM     21  N   UNL     1      -1.601   2.041  24.911  0.00  0.00    -0.263 NA
BRANCH  21  22
ATOM     22  C   UNL     1      -2.136   1.660  24.413  0.00  0.00    +0.099 C 
BRANCH  22  23
ATOM     23  C   UNL     1      -2.947   1.748  24.534  0.00  0.00    -0.006 A 
ATOM     24  C   UNL     1      -3.352   1.220  25.022  0.00  0.00    -0.002 A 
ATOM     25  C   UNL     1      -4.163   1.308  25.143  0.00  0.00    +0.018 A 
ATOM     26  C   UNL     1      -4.570   1.923  24.776  0.00  0.00    +0.106 A 
ATOM     27  C   UNL     1      -4.167   2.452  24.287  0.00  0.00    +0.018 A 
ATOM     28  C   UNL     1      -3.355   2.363  24.166  0.00  0.00    -0.002 A 
BRANCH  26  29
ATOM     29  S   UNL     1      -5.382   2.012  24.896  0.00  0.00    +0.010 S 
ATOM     30  C   UNL     1      -6.193   2.100  25.017  0.00  0.00    +0.182 C 
ATOM     31  O   UNL     1      -5.506   1.241  24.627  0.00  0.00    -0.169 OA
ATOM     32  O   UNL     1      -5.258   2.781  25.165  0.00  0.00    -0.169 OA
ENDBRANCH  26  29
ENDBRANCH  22  23
ENDBRANCH  21  22
ENDBRANCH  15  17
TORSDOF 9
ENDMDL
