MODEL 1
REMARK VINA RESULT:     -12.4      0.000      0.000
REMARK  Name = 
REMARK  7 active torsions:
REMARK  status: ('A' for Active; 'I' for Inactive)
REMARK    1  A    between atoms: O_2  and  C_3
REMARK    2  A    between atoms: C_3  and  C_5
REMARK    3  A    between atoms: C_18  and  N_32
REMARK    4  A    between atoms: C_20  and  C_22
REMARK    5  A    between atoms: C_25  and  C_28
REMARK    6  A    between atoms: N_32  and  C_33
REMARK    7  A    between atoms: C_33  and  C_34
REMARK                            x       y       z     vdW  Elec       q    Type
REMARK                         _______ _______ _______ _____ _____    ______ ____
ROOT
ATOM      5  C   UNL     1      -2.189   1.061  24.867  0.00  0.00    +0.162 C 
ATOM      6  C   UNL     1      -2.739   0.448  24.920  0.00  0.00    +0.055 C 
ATOM      7  C   UNL     1      -2.516  -0.323  24.727  0.00  0.00    -0.004 A 
ATOM      8  C   UNL     1      -1.745  -0.481  24.481  0.00  0.00    +0.070 A 
ATOM      9  N   UNL     1      -1.687  -1.289  24.328  0.00  0.00    -0.249 NA
ATOM     10  C   UNL     1      -2.422  -1.632  24.479  0.00  0.00    +0.081 A 
ATOM     11  C   UNL     1      -2.935  -1.034  24.725  0.00  0.00    +0.015 A 
ATOM     12  C   UNL     1      -3.717  -1.215  24.917  0.00  0.00    +0.001 A 
ATOM     13  C   UNL     1      -3.986  -1.993  24.862  0.00  0.00    +0.000 A 
ATOM     14  C   UNL     1      -3.472  -2.591  24.615  0.00  0.00    +0.002 A 
ATOM     15  C   UNL     1      -2.690  -2.410  24.423  0.00  0.00    +0.019 A 
ATOM     16  C   UNL     1      -1.195   0.132  24.428  0.00  0.00    +0.100 C 
ATOM     17  C   UNL     1      -0.424  -0.025  24.183  0.00  0.00    +0.040 C 
ATOM     18  C   UNL     1       0.125   0.588  24.130  0.00  0.00    +0.077 C 
ATOM     19  C   UNL     1      -0.097   1.359  24.324  0.00  0.00    +0.038 C 
ATOM     20  C   UNL     1      -0.868   1.516  24.569  0.00  0.00    +0.082 C 
ATOM     21  N   UNL     1      -1.417   0.903  24.622  0.00  0.00    -0.258 NA
ENDROOT
BRANCH  20  22
ATOM     22  C   UNL     1      -1.090   2.287  24.762  0.00  0.00    -0.008 A 
ATOM     23  C   UNL     1      -1.394   2.787  24.182  0.00  0.00    -0.003 A 
ATOM     24  C   UNL     1      -1.615   3.558  24.376  0.00  0.00    +0.004 A 
ATOM     25  C   UNL     1      -1.531   3.828  25.151  0.00  0.00    +0.071 A 
ATOM     26  C   UNL     1      -1.227   3.329  25.732  0.00  0.00    +0.004 A 
ATOM     27  C   UNL     1      -1.006   2.558  25.538  0.00  0.00    -0.003 A 
BRANCH  25  28
ATOM     28  C   UNL     1      -1.753   4.600  25.344  0.00  0.00    +0.419 C 
ATOM     29  F   UNL     1      -1.974   5.371  25.537  0.00  0.00    -0.166 F 
ATOM     30  F   UNL     1      -1.706   4.413  26.146  0.00  0.00    -0.166 F 
ATOM     31  F   UNL     1      -1.800   4.786  24.542  0.00  0.00    -0.166 F 
ENDBRANCH  25  28
ENDBRANCH  20  22
BRANCH   5   3
ATOM      3  C   UNL     1      -2.411   1.831  25.061  0.00  0.00    +0.332 C 
ATOM      4  O   UNL     1      -2.331   2.573  25.414  0.00  0.00    -0.249 OA
BRANCH   3   2
ATOM      1  C   UNL     1      -3.798   2.113  25.259  0.00  0.00    +0.256 C 
ATOM      2  O   UNL     1      -3.125   2.138  24.782  0.00  0.00    -0.443 OA
ENDBRANCH   3   2
ENDBRANCH   5   3
BRANCH  18  32
ATOM     32  N   UNL     1       0.897   0.430  23.884  0.00  0.00    -0.215 NA
BRANCH  32  33
ATOM     33  C   UNL     1       1.113   0.553  23.097  0.00  0.00    +0.116 C 
BRANCH  33  34
ATOM     34  C   UNL     1       1.902   0.475  22.869  0.00  0.00    +0.014 A 
ATOM     35  C   UNL     1       2.464   1.013  23.142  0.00  0.00    +0.000 A 
ATOM     36  C   UNL     1       3.254   0.935  22.913  0.00  0.00    +0.020 A 
ATOM     37  C   UNL     1       3.479   0.320  22.412  0.00  0.00    +0.099 A 
ATOM     38  N   UNL     1       2.916  -0.218  22.138  0.00  0.00    -0.243 NA
ATOM     39  C   UNL     1       2.126  -0.140  22.367  0.00  0.00    +0.096 A 
ENDBRANCH  33  34
ENDBRANCH  32  33
ENDBRANCH  18  32
TORSDOF 7
ENDMDL
MODEL 2
REMARK VINA RESULT:     -12.4      2.302      4.136
REMARK  Name = 
REMARK  7 active torsions:
REMARK  status: ('A' for Active; 'I' for Inactive)
REMARK    1  A    between atoms: O_2  and  C_3
REMARK    2  A    between atoms: C_3  and  C_5
REMARK    3  A    between atoms: C_18  and  N_32
REMARK    4  A    between atoms: C_20  and  C_22
REMARK    5  A    between atoms: C_25  and  C_28
REMARK    6  A    between atoms: N_32  and  C_33
REMARK    7  A    between atoms: C_33  and  C_34
REMARK                            x       y       z     vdW  Elec       q    Type
REMARK                         _______ _______ _______ _____ _____    ______ ____
ROOT
ATOM      5  C   UNL     1      -2.888   1.150  24.810  0.00  0.00    +0.162 C 
ATOM      6  C   UNL     1      -3.091   1.911  25.053  0.00  0.00    +0.055 C 
ATOM      7  C   UNL     1      -2.513   2.498  25.099  0.00  0.00    -0.004 A 
ATOM      8  C   UNL     1      -1.731   2.324  24.901  0.00  0.00    +0.070 A 
ATOM      9  N   UNL     1      -1.285   3.010  24.999  0.00  0.00    -0.249 NA
ATOM     10  C   UNL     1      -1.789   3.609  25.257  0.00  0.00    +0.081 A 
ATOM     11  C   UNL     1      -2.550   3.292  25.319  0.00  0.00    +0.015 A 
ATOM     12  C   UNL     1      -3.176   3.768  25.568  0.00  0.00    +0.001 A 
ATOM     13  C   UNL     1      -3.043   4.561  25.755  0.00  0.00    +0.000 A 
ATOM     14  C   UNL     1      -2.282   4.878  25.693  0.00  0.00    +0.002 A 
ATOM     15  C   UNL     1      -1.656   4.402  25.444  0.00  0.00    +0.019 A 
ATOM     16  C   UNL     1      -1.528   1.562  24.657  0.00  0.00    +0.100 C 
ATOM     17  C   UNL     1      -0.746   1.387  24.460  0.00  0.00    +0.040 C 
ATOM     18  C   UNL     1      -0.543   0.626  24.216  0.00  0.00    +0.077 C 
ATOM     19  C   UNL     1      -1.121   0.039  24.170  0.00  0.00    +0.038 C 
ATOM     20  C   UNL     1      -1.902   0.214  24.368  0.00  0.00    +0.082 C 
ATOM     21  N   UNL     1      -2.106   0.975  24.612  0.00  0.00    -0.258 NA
ENDROOT
BRANCH  20  22
ATOM     22  C   UNL     1      -2.480  -0.374  24.322  0.00  0.00    -0.008 A 
ATOM     23  C   UNL     1      -2.927  -0.459  23.635  0.00  0.00    -0.003 A 
ATOM     24  C   UNL     1      -3.505  -1.047  23.590  0.00  0.00    +0.004 A 
ATOM     25  C   UNL     1      -3.634  -1.549  24.233  0.00  0.00    +0.071 A 
ATOM     26  C   UNL     1      -3.186  -1.463  24.920  0.00  0.00    +0.004 A 
ATOM     27  C   UNL     1      -2.609  -0.875  24.965  0.00  0.00    -0.003 A 
BRANCH  25  28
ATOM     28  C   UNL     1      -4.212  -2.137  24.187  0.00  0.00    +0.419 C 
ATOM     29  F   UNL     1      -4.789  -2.725  24.141  0.00  0.00    -0.166 F 
ATOM     30  F   UNL     1      -4.385  -1.907  23.415  0.00  0.00    -0.166 F 
ATOM     31  F   UNL     1      -4.038  -2.367  24.960  0.00  0.00    -0.166 F 
ENDBRANCH  25  28
ENDBRANCH  20  22
BRANCH   5   3
ATOM      3  C   UNL     1      -3.466   0.563  24.764  0.00  0.00    +0.332 C 
ATOM      4  O   UNL     1      -3.773  -0.199  24.837  0.00  0.00    -0.249 OA
BRANCH   3   2
ATOM      1  C   UNL     1      -4.822   0.916  25.040  0.00  0.00    +0.256 C 
ATOM      2  O   UNL     1      -4.224   0.749  24.497  0.00  0.00    -0.443 OA
ENDBRANCH   3   2
ENDBRANCH   5   3
BRANCH  18  32
ATOM     32  N   UNL     1       0.239   0.451  24.018  0.00  0.00    -0.215 NA
BRANCH  32  33
ATOM     33  C   UNL     1       0.485   0.493  23.232  0.00  0.00    +0.116 C 
BRANCH  33  34
ATOM     34  C   UNL     1       1.287   0.439  23.046  0.00  0.00    +0.014 A 
ATOM     35  C   UNL     1       1.553  -0.150  22.535  0.00  0.00    +0.000 A 
ATOM     36  C   UNL     1       2.356  -0.203  22.349  0.00  0.00    +0.020 A 
ATOM     37  C   UNL     1       2.891   0.333  22.676  0.00  0.00    +0.099 A 
ATOM     38  N   UNL     1       2.624   0.922  23.188  0.00  0.00    -0.243 NA
ATOM     39  C   UNL     1       1.821   0.976  23.373  0.00  0.00    +0.096 A 
ENDBRANCH  33  34
ENDBRANCH  32  33
ENDBRANCH  18  32
TORSDOF 7
ENDMDL
MODEL 3
REMARK VINA RESULT:     -11.7      2.992      5.995
REMARK  Name = 
REMARK  7 active torsions:
REMARK  status: ('A' for Active; 'I' for Inactive)
REMARK    1  A    between atoms: O_2  and  C_3
REMARK    2  A    between atoms: C_3  and  C_5
REMARK    3  A    between atoms: C_18  and  N_32
REMARK    4  A    between atoms: C_20  and  C_22
REMARK    5  A    between atoms: C_25  and  C_28
REMARK    6  A    between atoms: N_32  and  C_33
REMARK    7  A    between atoms: C_33  and  C_34
REMARK                            x       y       z     vdW  Elec       q    Type
REMARK                         _______ _______ _______ _____ _____    ______ ____
ROOT
ATOM      5  C   UNL     1      -1.962  -0.098  24.490  0.00  0.00    +0.162 C 
ATOM      6  C   UNL     1      -1.208   0.218  24.380  0.00  0.00    +0.055 C 
ATOM      7  C   UNL     1      -1.100   1.036  24.378  0.00  0.00    -0.004 A 
ATOM      8  C   UNL     1      -1.746   1.538  24.486  0.00  0.00    +0.070 A 
ATOM      9  N   UNL     1      -1.472   2.316  24.458  0.00  0.00    -0.249 NA
ATOM     10  C   UNL     1      -0.657   2.296  24.333  0.00  0.00    +0.081 A 
ATOM     11  C   UNL     1      -0.427   1.504  24.284  0.00  0.00    +0.015 A 
ATOM     12  C   UNL     1       0.366   1.312  24.159  0.00  0.00    +0.001 A 
ATOM     13  C   UNL     1       0.929   1.911  24.084  0.00  0.00    +0.000 A 
ATOM     14  C   UNL     1       0.698   2.702  24.133  0.00  0.00    +0.002 A 
ATOM     15  C   UNL     1      -0.094   2.894  24.258  0.00  0.00    +0.019 A 
ATOM     16  C   UNL     1      -2.500   1.222  24.596  0.00  0.00    +0.100 C 
ATOM     17  C   UNL     1      -3.146   1.723  24.703  0.00  0.00    +0.040 C 
ATOM     18  C   UNL     1      -3.900   1.407  24.813  0.00  0.00    +0.077 C 
ATOM     19  C   UNL     1      -4.008   0.589  24.815  0.00  0.00    +0.038 C 
ATOM     20  C   UNL     1      -3.362   0.088  24.707  0.00  0.00    +0.082 C 
ATOM     21  N   UNL     1      -2.608   0.404  24.598  0.00  0.00    -0.258 NA
ENDROOT
BRANCH  20  22
ATOM     22  C   UNL     1      -3.470  -0.730  24.709  0.00  0.00    -0.008 A 
ATOM     23  C   UNL     1      -3.397  -1.155  25.412  0.00  0.00    -0.003 A 
ATOM     24  C   UNL     1      -3.506  -1.972  25.413  0.00  0.00    +0.004 A 
ATOM     25  C   UNL     1      -3.688  -2.366  24.711  0.00  0.00    +0.071 A 
ATOM     26  C   UNL     1      -3.762  -1.941  24.008  0.00  0.00    +0.004 A 
ATOM     27  C   UNL     1      -3.653  -1.123  24.007  0.00  0.00    -0.003 A 
BRANCH  25  28
ATOM     28  C   UNL     1      -3.797  -3.184  24.713  0.00  0.00    +0.419 C 
ATOM     29  F   UNL     1      -3.906  -4.002  24.714  0.00  0.00    -0.166 F 
ATOM     30  F   UNL     1      -3.602  -3.208  25.513  0.00  0.00    -0.166 F 
ATOM     31  F   UNL     1      -3.992  -3.159  23.912  0.00  0.00    -0.166 F 
ENDBRANCH  25  28
ENDBRANCH  20  22
BRANCH   5   3
ATOM      3  C   UNL     1      -2.070  -0.916  24.492  0.00  0.00    +0.332 C 
ATOM      4  O   UNL     1      -2.446  -1.627  24.309  0.00  0.00    -0.249 OA
BRANCH   3   2
ATOM      1  C   UNL     1      -0.918  -1.760  24.466  0.00  0.00    +0.256 C 
ATOM      2  O   UNL     1      -1.532  -1.402  24.885  0.00  0.00    -0.443 OA
ENDBRANCH   3   2
ENDBRANCH   5   3
BRANCH  18  32
ATOM     32  N   UNL     1      -4.546   1.909  24.920  0.00  0.00    -0.215 NA
BRANCH  32  33
ATOM     33  C   UNL     1      -4.588   2.390  25.589  0.00  0.00    +0.116 C 
BRANCH  33  34
ATOM     34  C   UNL     1      -5.105   3.034  25.603  0.00  0.00    +0.014 A 
ATOM     35  C   UNL     1      -4.824   3.790  25.431  0.00  0.00    +0.000 A 
ATOM     36  C   UNL     1      -5.341   4.433  25.444  0.00  0.00    +0.020 A 
ATOM     37  C   UNL     1      -6.137   4.320  25.630  0.00  0.00    +0.099 A 
ATOM     38  N   UNL     1      -6.416   3.563  25.802  0.00  0.00    -0.243 NA
ATOM     39  C   UNL     1      -5.900   2.919  25.789  0.00  0.00    +0.096 A 
ENDBRANCH  33  34
ENDBRANCH  32  33
ENDBRANCH  18  32
TORSDOF 7
ENDMDL
MODEL 4
REMARK VINA RESULT:     -11.4      1.798      4.486
REMARK  Name = 
REMARK  7 active torsions:
REMARK  status: ('A' for Active; 'I' for Inactive)
REMARK    1  A    between atoms: O_2  and  C_3
REMARK    2  A    between atoms: C_3  and  C_5
REMARK    3  A    between atoms: C_18  and  N_32
REMARK    4  A    between atoms: C_20  and  C_22
REMARK    5  A    between atoms: C_25  and  C_28
REMARK    6  A    between atoms: N_32  and  C_33
REMARK    7  A    between atoms: C_33  and  C_34
REMARK                            x       y       z     vdW  Elec       q    Type
REMARK                         _______ _______ _______ _____ _____    ______ ____
ROOT
ATOM      5  C   UNL     1      -2.609   2.506  24.702  0.00  0.00    +0.162 C 
ATOM      6  C   UNL     1      -1.796   2.623  24.635  0.00  0.00    +0.055 C 
ATOM      7  C   UNL     1      -1.307   2.001  24.402  0.00  0.00    -0.004 A 
ATOM      8  C   UNL     1      -1.631   1.261  24.237  0.00  0.00    +0.070 A 
ATOM      9  N   UNL     1      -1.016   0.755  24.022  0.00  0.00    -0.249 NA
ATOM     10  C   UNL     1      -0.311   1.182  24.054  0.00  0.00    +0.081 A 
ATOM     11  C   UNL     1      -0.491   1.952  24.289  0.00  0.00    +0.015 A 
ATOM     12  C   UNL     1       0.112   2.510  24.370  0.00  0.00    +0.001 A 
ATOM     13  C   UNL     1       0.895   2.297  24.216  0.00  0.00    +0.000 A 
ATOM     14  C   UNL     1       1.074   1.526  23.980  0.00  0.00    +0.002 A 
ATOM     15  C   UNL     1       0.471   0.969  23.899  0.00  0.00    +0.019 A 
ATOM     16  C   UNL     1      -2.445   1.143  24.304  0.00  0.00    +0.100 C 
ATOM     17  C   UNL     1      -2.771   0.404  24.138  0.00  0.00    +0.040 C 
ATOM     18  C   UNL     1      -3.584   0.286  24.205  0.00  0.00    +0.077 C 
ATOM     19  C   UNL     1      -4.073   0.909  24.438  0.00  0.00    +0.038 C 
ATOM     20  C   UNL     1      -3.747   1.648  24.603  0.00  0.00    +0.082 C 
ATOM     21  N   UNL     1      -2.934   1.766  24.536  0.00  0.00    -0.258 NA
ENDROOT
BRANCH  20  22
ATOM     22  C   UNL     1      -4.237   2.271  24.835  0.00  0.00    -0.008 A 
ATOM     23  C   UNL     1      -4.416   2.379  25.633  0.00  0.00    -0.003 A 
ATOM     24  C   UNL     1      -4.906   3.002  25.864  0.00  0.00    +0.004 A 
ATOM     25  C   UNL     1      -5.216   3.516  25.297  0.00  0.00    +0.071 A 
ATOM     26  C   UNL     1      -5.037   3.407  24.500  0.00  0.00    +0.004 A 
ATOM     27  C   UNL     1      -4.547   2.785  24.269  0.00  0.00    -0.003 A 
BRANCH  25  28
ATOM     28  C   UNL     1      -5.706   4.138  25.530  0.00  0.00    +0.419 C 
ATOM     29  F   UNL     1      -6.196   4.760  25.763  0.00  0.00    -0.166 F 
ATOM     30  F   UNL     1      -5.506   4.552  24.845  0.00  0.00    -0.166 F 
ATOM     31  F   UNL     1      -5.906   3.724  26.215  0.00  0.00    -0.166 F 
ENDBRANCH  25  28
ENDBRANCH  20  22
BRANCH   5   3
ATOM      3  C   UNL     1      -3.098   3.129  24.934  0.00  0.00    +0.332 C 
ATOM      4  O   UNL     1      -3.765   3.614  24.907  0.00  0.00    -0.249 OA
BRANCH   3   2
ATOM      1  C   UNL     1      -2.459   4.316  25.406  0.00  0.00    +0.256 C 
ATOM      2  O   UNL     1      -2.874   3.619  25.559  0.00  0.00    -0.443 OA
ENDBRANCH   3   2
ENDBRANCH   5   3
BRANCH  18  32
ATOM     32  N   UNL     1      -3.909  -0.454  24.040  0.00  0.00    -0.215 NA
BRANCH  32  33
ATOM     33  C   UNL     1      -3.984  -1.015  24.640  0.00  0.00    +0.116 C 
BRANCH  33  34
ATOM     34  C   UNL     1      -3.924  -1.819  24.463  0.00  0.00    +0.014 A 
ATOM     35  C   UNL     1      -3.467  -2.312  24.940  0.00  0.00    +0.000 A 
ATOM     36  C   UNL     1      -3.407  -3.116  24.764  0.00  0.00    +0.020 A 
ATOM     37  C   UNL     1      -3.804  -3.426  24.110  0.00  0.00    +0.099 A 
ATOM     38  N   UNL     1      -4.261  -2.932  23.633  0.00  0.00    -0.243 NA
ATOM     39  C   UNL     1      -4.321  -2.128  23.810  0.00  0.00    +0.096 A 
ENDBRANCH  33  34
ENDBRANCH  32  33
ENDBRANCH  18  32
TORSDOF 7
ENDMDL
MODEL 5
REMARK VINA RESULT:     -11.2      2.776      4.717
REMARK  Name = 
REMARK  7 active torsions:
REMARK  status: ('A' for Active; 'I' for Inactive)
REMARK    1  A    between atoms: O_2  and  C_3
REMARK    2  A    between atoms: C_3  and  C_5
REMARK    3  A    between atoms: C_18  and  N_32
REMARK    4  A    between atoms: C_20  and  C_22
REMARK    5  A    between atoms: C_25  and  C_28
REMARK    6  A    between atoms: N_32  and  C_33
REMARK    7  A    between atoms: C_33  and  C_34
REMARK                            x       y       z     vdW  Elec       q    Type
REMARK                         _______ _______ _______ _____ _____    ______ ____
ROOT
ATOM      5  C   UNL     1      -3.410   3.074  24.962  0.00  0.00    +0.162 C 
ATOM      6  C   UNL     1      -2.984   3.779  24.983  0.00  0.00    +0.055 C 
ATOM      7  C   UNL     1      -2.162   3.767  24.908  0.00  0.00    -0.004 A 
ATOM      8  C   UNL     1      -1.767   3.049  24.812  0.00  0.00    +0.070 A 
ATOM      9  N   UNL     1      -0.960   3.207  24.753  0.00  0.00    -0.249 NA
ATOM     10  C   UNL     1      -0.855   4.023  24.811  0.00  0.00    +0.081 A 
ATOM     11  C   UNL     1      -1.599   4.369  24.907  0.00  0.00    +0.015 A 
ATOM     12  C   UNL     1      -1.666   5.188  24.982  0.00  0.00    +0.001 A 
ATOM     13  C   UNL     1      -0.990   5.662  24.960  0.00  0.00    +0.000 A 
ATOM     14  C   UNL     1      -0.246   5.315  24.864  0.00  0.00    +0.002 A 
ATOM     15  C   UNL     1      -0.179   4.496  24.790  0.00  0.00    +0.019 A 
ATOM     16  C   UNL     1      -2.194   2.343  24.791  0.00  0.00    +0.100 C 
ATOM     17  C   UNL     1      -1.801   1.624  24.696  0.00  0.00    +0.040 C 
ATOM     18  C   UNL     1      -2.227   0.919  24.675  0.00  0.00    +0.077 C 
ATOM     19  C   UNL     1      -3.049   0.932  24.751  0.00  0.00    +0.038 C 
ATOM     20  C   UNL     1      -3.443   1.650  24.846  0.00  0.00    +0.082 C 
ATOM     21  N   UNL     1      -3.016   2.356  24.867  0.00  0.00    -0.258 NA
ENDROOT
BRANCH  20  22
ATOM     22  C   UNL     1      -4.265   1.662  24.921  0.00  0.00    -0.008 A 
ATOM     23  C   UNL     1      -4.612   1.595  25.666  0.00  0.00    -0.003 A 
ATOM     24  C   UNL     1      -5.434   1.607  25.740  0.00  0.00    +0.004 A 
ATOM     25  C   UNL     1      -5.908   1.686  25.068  0.00  0.00    +0.071 A 
ATOM     26  C   UNL     1      -5.560   1.754  24.324  0.00  0.00    +0.004 A 
ATOM     27  C   UNL     1      -4.738   1.742  24.250  0.00  0.00    -0.003 A 
BRANCH  25  28
ATOM     28  C   UNL     1      -6.730   1.698  25.143  0.00  0.00    +0.419 C 
ATOM     29  F   UNL     1      -7.551   1.710  25.217  0.00  0.00    -0.166 F 
ATOM     30  F   UNL     1      -6.656   1.670  25.964  0.00  0.00    -0.166 F 
ATOM     31  F   UNL     1      -6.803   1.727  24.322  0.00  0.00    -0.166 F 
ENDBRANCH  25  28
ENDBRANCH  20  22
BRANCH   5   3
ATOM      3  C   UNL     1      -4.232   3.087  25.037  0.00  0.00    +0.332 C 
ATOM      4  O   UNL     1      -5.008   2.869  24.862  0.00  0.00    -0.249 OA
BRANCH   3   2
ATOM      1  C   UNL     1      -4.904   4.306  25.356  0.00  0.00    +0.256 C 
ATOM      2  O   UNL     1      -4.588   3.581  25.593  0.00  0.00    -0.443 OA
ENDBRANCH   3   2
ENDBRANCH   5   3
BRANCH  18  32
ATOM     32  N   UNL     1      -1.833   0.201  24.580  0.00  0.00    -0.215 NA
BRANCH  32  33
ATOM     33  C   UNL     1      -1.833  -0.354  25.190  0.00  0.00    +0.116 C 
BRANCH  33  34
ATOM     34  C   UNL     1      -1.501  -1.100  25.070  0.00  0.00    +0.014 A 
ATOM     35  C   UNL     1      -1.952  -1.701  24.730  0.00  0.00    +0.000 A 
ATOM     36  C   UNL     1      -1.620  -2.447  24.609  0.00  0.00    +0.020 A 
ATOM     37  C   UNL     1      -0.838  -2.591  24.829  0.00  0.00    +0.099 A 
ATOM     38  N   UNL     1      -0.388  -1.989  25.169  0.00  0.00    -0.243 NA
ATOM     39  C   UNL     1      -0.720  -1.243  25.290  0.00  0.00    +0.096 A 
ENDBRANCH  33  34
ENDBRANCH  32  33
ENDBRANCH  18  32
TORSDOF 7
ENDMDL
MODEL 6
REMARK VINA RESULT:     -11.0      2.230      4.643
REMARK  Name = 
REMARK  7 active torsions:
REMARK  status: ('A' for Active; 'I' for Inactive)
REMARK    1  A    between atoms: O_2  and  C_3
REMARK    2  A    between atoms: C_3  and  C_5
REMARK    3  A    between atoms: C_18  and  N_32
REMARK    4  A    between atoms: C_20  and  C_22
REMARK    5  A    between atoms: C_25  and  C_28
REMARK    6  A    between atoms: N_32  and  C_33
REMARK    7  A    between atoms: C_33  and  C_34
REMARK                            x       y       z     vdW  Elec       q    Type
REMARK                         _______ _______ _______ _____ _____    ______ ____
ROOT
ATOM      5  C   UNL     1      -2.753   2.556  24.870  0.00  0.00    +0.162 C 
ATOM      6  C   UNL     1      -3.278   3.151  25.092  0.00  0.00    +0.055 C 
ATOM      7  C   UNL     1      -4.085   2.987  25.151  0.00  0.00    -0.004 A 
ATOM      8  C   UNL     1      -4.366   2.229  24.987  0.00  0.00    +0.070 A 
ATOM      9  N   UNL     1      -5.184   2.233  25.090  0.00  0.00    -0.249 NA
ATOM     10  C   UNL     1      -5.410   2.993  25.319  0.00  0.00    +0.081 A 
ATOM     11  C   UNL     1      -4.730   3.459  25.356  0.00  0.00    +0.015 A 
ATOM     12  C   UNL     1      -4.786   4.254  25.572  0.00  0.00    +0.001 A 
ATOM     13  C   UNL     1      -5.523   4.582  25.750  0.00  0.00    +0.000 A 
ATOM     14  C   UNL     1      -6.202   4.114  25.713  0.00  0.00    +0.002 A 
ATOM     15  C   UNL     1      -6.146   3.320  25.497  0.00  0.00    +0.019 A 
ATOM     16  C   UNL     1      -3.840   1.634  24.764  0.00  0.00    +0.100 C 
ATOM     17  C   UNL     1      -4.120   0.876  24.600  0.00  0.00    +0.040 C 
ATOM     18  C   UNL     1      -3.594   0.281  24.377  0.00  0.00    +0.077 C 
ATOM     19  C   UNL     1      -2.788   0.444  24.319  0.00  0.00    +0.038 C 
ATOM     20  C   UNL     1      -2.508   1.202  24.483  0.00  0.00    +0.082 C 
ATOM     21  N   UNL     1      -3.033   1.797  24.705  0.00  0.00    -0.258 NA
ENDROOT
BRANCH  20  22
ATOM     22  C   UNL     1      -1.700   1.364  24.424  0.00  0.00    -0.008 A 
ATOM     23  C   UNL     1      -1.384   1.630  23.711  0.00  0.00    -0.003 A 
ATOM     24  C   UNL     1      -0.577   1.792  23.653  0.00  0.00    +0.004 A 
ATOM     25  C   UNL     1      -0.087   1.688  24.309  0.00  0.00    +0.071 A 
ATOM     26  C   UNL     1      -0.404   1.423  25.022  0.00  0.00    +0.004 A 
ATOM     27  C   UNL     1      -1.211   1.261  25.080  0.00  0.00    -0.003 A 
BRANCH  25  28
ATOM     28  C   UNL     1       0.720   1.850  24.250  0.00  0.00    +0.419 C 
ATOM     29  F   UNL     1       1.527   2.013  24.190  0.00  0.00    -0.166 F 
ATOM     30  F   UNL     1       0.809   1.703  25.056  0.00  0.00    -0.166 F 
ATOM     31  F   UNL     1       0.631   1.998  23.443  0.00  0.00    -0.166 F 
ENDBRANCH  25  28
ENDBRANCH  20  22
BRANCH   5   3
ATOM      3  C   UNL     1      -1.946   2.719  24.811  0.00  0.00    +0.332 C 
ATOM      4  O   UNL     1      -1.191   2.677  24.481  0.00  0.00    -0.249 OA
BRANCH   3   2
ATOM      1  C   UNL     1      -1.473   4.008  25.205  0.00  0.00    +0.256 C 
ATOM      2  O   UNL     1      -1.581   3.206  25.368  0.00  0.00    -0.443 OA
ENDBRANCH   3   2
ENDBRANCH   5   3
BRANCH  18  32
ATOM     32  N   UNL     1      -3.875  -0.478  24.213  0.00  0.00    -0.215 NA
BRANCH  32  33
ATOM     33  C   UNL     1      -3.832  -1.067  24.790  0.00  0.00    +0.116 C 
BRANCH  33  34
ATOM     34  C   UNL     1      -3.813  -1.861  24.567  0.00  0.00    +0.014 A 
ATOM     35  C   UNL     1      -3.350  -2.396  24.990  0.00  0.00    +0.000 A 
ATOM     36  C   UNL     1      -3.331  -3.191  24.767  0.00  0.00    +0.020 A 
ATOM     37  C   UNL     1      -3.775  -3.449  24.122  0.00  0.00    +0.099 A 
ATOM     38  N   UNL     1      -4.238  -2.913  23.699  0.00  0.00    -0.243 NA
ATOM     39  C   UNL     1      -4.258  -2.119  23.922  0.00  0.00    +0.096 A 
ENDBRANCH  33  34
ENDBRANCH  32  33
ENDBRANCH  18  32
TORSDOF 7
ENDMDL
MODEL 7
REMARK VINA RESULT:     -10.9      3.027      4.619
REMARK  Name = 
REMARK  7 active torsions:
REMARK  status: ('A' for Active; 'I' for Inactive)
REMARK    1  A    between atoms: O_2  and  C_3
REMARK    2  A    between atoms: C_3  and  C_5
REMARK    3  A    between atoms: C_18  and  N_32
REMARK    4  A    between atoms: C_20  and  C_22
REMARK    5  A    between atoms: C_25  and  C_28
REMARK    6  A    between atoms: N_32  and  C_33
REMARK    7  A    between atoms: C_33  and  C_34
REMARK                            x       y       z     vdW  Elec       q    Type
REMARK                         _______ _______ _______ _____ _____    ______ ____
ROOT
ATOM      5  C   UNL     1      -3.183   0.193  25.045  0.00  0.00    +0.162 C 
ATOM      6  C   UNL     1      -4.002   0.281  25.073  0.00  0.00    +0.055 C 
ATOM      7  C   UNL     1      -4.339   1.031  25.001  0.00  0.00    -0.004 A 
ATOM      8  C   UNL     1      -3.856   1.693  24.900  0.00  0.00    +0.070 A 
ATOM      9  N   UNL     1      -4.342   2.357  24.845  0.00  0.00    -0.249 NA
ATOM     10  C   UNL     1      -5.126   2.107  24.911  0.00  0.00    +0.081 A 
ATOM     11  C   UNL     1      -5.123   1.287  25.008  0.00  0.00    +0.015 A 
ATOM     12  C   UNL     1      -5.836   0.880  25.089  0.00  0.00    +0.001 A 
ATOM     13  C   UNL     1      -6.551   1.292  25.074  0.00  0.00    +0.000 A 
ATOM     14  C   UNL     1      -6.553   2.112  24.978  0.00  0.00    +0.002 A 
ATOM     15  C   UNL     1      -5.840   2.520  24.897  0.00  0.00    +0.019 A 
ATOM     16  C   UNL     1      -3.036   1.604  24.872  0.00  0.00    +0.100 C 
ATOM     17  C   UNL     1      -2.553   2.265  24.771  0.00  0.00    +0.040 C 
ATOM     18  C   UNL     1      -1.734   2.176  24.743  0.00  0.00    +0.077 C 
ATOM     19  C   UNL     1      -1.397   1.426  24.816  0.00  0.00    +0.038 C 
ATOM     20  C   UNL     1      -1.881   0.766  24.916  0.00  0.00    +0.082 C 
ATOM     21  N   UNL     1      -2.700   0.854  24.944  0.00  0.00    -0.258 NA
ENDROOT
BRANCH  20  22
ATOM     22  C   UNL     1      -1.543   0.016  24.988  0.00  0.00    -0.008 A 
ATOM     23  C   UNL     1      -1.341  -0.276  25.732  0.00  0.00    -0.003 A 
ATOM     24  C   UNL     1      -1.004  -1.025  25.803  0.00  0.00    +0.004 A 
ATOM     25  C   UNL     1      -0.869  -1.483  25.130  0.00  0.00    +0.071 A 
ATOM     26  C   UNL     1      -1.071  -1.191  24.386  0.00  0.00    +0.004 A 
ATOM     27  C   UNL     1      -1.408  -0.442  24.315  0.00  0.00    -0.003 A 
BRANCH  25  28
ATOM     28  C   UNL     1      -0.531  -2.233  25.202  0.00  0.00    +0.419 C 
ATOM     29  F   UNL     1      -0.193  -2.982  25.275  0.00  0.00    -0.166 F 
ATOM     30  F   UNL     1      -0.837  -2.442  24.466  0.00  0.00    -0.166 F 
ATOM     31  F   UNL     1      -0.225  -2.023  25.939  0.00  0.00    -0.166 F 
ENDBRANCH  25  28
ENDBRANCH  20  22
BRANCH   5   3
ATOM      3  C   UNL     1      -2.847  -0.557  25.117  0.00  0.00    +0.332 C 
ATOM      4  O   UNL     1      -2.316  -1.165  24.944  0.00  0.00    -0.249 OA
BRANCH   3   2
ATOM      1  C   UNL     1      -3.673  -1.685  25.409  0.00  0.00    +0.256 C 
ATOM      2  O   UNL     1      -3.152  -1.096  25.661  0.00  0.00    -0.443 OA
ENDBRANCH   3   2
ENDBRANCH   5   3
BRANCH  18  32
ATOM     32  N   UNL     1      -1.250   2.837  24.643  0.00  0.00    -0.215 NA
BRANCH  32  33
ATOM     33  C   UNL     1      -1.176   3.390  25.251  0.00  0.00    +0.116 C 
BRANCH  33  34
ATOM     34  C   UNL     1      -1.054   4.187  25.071  0.00  0.00    +0.014 A 
ATOM     35  C   UNL     1      -1.612   4.750  25.300  0.00  0.00    +0.000 A 
ATOM     36  C   UNL     1      -1.491   5.546  25.121  0.00  0.00    +0.020 A 
ATOM     37  C   UNL     1      -0.812   5.779  24.713  0.00  0.00    +0.099 A 
ATOM     38  N   UNL     1      -0.254   5.215  24.485  0.00  0.00    -0.243 NA
ATOM     39  C   UNL     1      -0.376   4.418  24.664  0.00  0.00    +0.096 A 
ENDBRANCH  33  34
ENDBRANCH  32  33
ENDBRANCH  18  32
TORSDOF 7
ENDMDL
MODEL 8
REMARK VINA RESULT:     -10.7      2.554      3.941
REMARK  Name = 
REMARK  7 active torsions:
REMARK  status: ('A' for Active; 'I' for Inactive)
REMARK    1  A    between atoms: O_2  and  C_3
REMARK    2  A    between atoms: C_3  and  C_5
REMARK    3  A    between atoms: C_18  and  N_32
REMARK    4  A    between atoms: C_20  and  C_22
REMARK    5  A    between atoms: C_25  and  C_28
REMARK    6  A    between atoms: N_32  and  C_33
REMARK    7  A    between atoms: C_33  and  C_34
REMARK                            x       y       z     vdW  Elec       q    Type
REMARK                         _______ _______ _______ _____ _____    ______ ____
ROOT
ATOM      5  C   UNL     1      -3.222   0.146  24.872  0.00  0.00    +0.162 C 
ATOM      6  C   UNL     1      -2.864  -0.597  24.876  0.00  0.00    +0.055 C 
ATOM      7  C   UNL     1      -2.041  -0.658  24.863  0.00  0.00    -0.004 A 
ATOM      8  C   UNL     1      -1.577   0.023  24.846  0.00  0.00    +0.070 A 
ATOM      9  N   UNL     1      -0.785  -0.208  24.836  0.00  0.00    -0.249 NA
ATOM     10  C   UNL     1      -0.759  -1.033  24.847  0.00  0.00    +0.081 A 
ATOM     11  C   UNL     1      -1.537  -1.311  24.864  0.00  0.00    +0.015 A 
ATOM     12  C   UNL     1      -1.683  -2.122  24.878  0.00  0.00    +0.001 A 
ATOM     13  C   UNL     1      -1.054  -2.656  24.875  0.00  0.00    +0.000 A 
ATOM     14  C   UNL     1      -0.277  -2.377  24.858  0.00  0.00    +0.002 A 
ATOM     15  C   UNL     1      -0.130  -1.566  24.844  0.00  0.00    +0.019 A 
ATOM     16  C   UNL     1      -1.935   0.767  24.842  0.00  0.00    +0.100 C 
ATOM     17  C   UNL     1      -1.472   1.448  24.824  0.00  0.00    +0.040 C 
ATOM     18  C   UNL     1      -1.829   2.191  24.820  0.00  0.00    +0.077 C 
ATOM     19  C   UNL     1      -2.652   2.252  24.833  0.00  0.00    +0.038 C 
ATOM     20  C   UNL     1      -3.116   1.570  24.850  0.00  0.00    +0.082 C 
ATOM     21  N   UNL     1      -2.758   0.828  24.855  0.00  0.00    -0.258 NA
ENDROOT
BRANCH  20  22
ATOM     22  C   UNL     1      -3.939   1.633  24.863  0.00  0.00    -0.008 A 
ATOM     23  C   UNL     1      -4.361   1.678  24.157  0.00  0.00    -0.003 A 
ATOM     24  C   UNL     1      -5.183   1.740  24.171  0.00  0.00    +0.004 A 
ATOM     25  C   UNL     1      -5.584   1.757  24.892  0.00  0.00    +0.071 A 
ATOM     26  C   UNL     1      -5.162   1.712  25.599  0.00  0.00    +0.004 A 
ATOM     27  C   UNL     1      -4.339   1.650  25.585  0.00  0.00    -0.003 A 
BRANCH  25  28
ATOM     28  C   UNL     1      -6.407   1.819  24.905  0.00  0.00    +0.419 C 
ATOM     29  F   UNL     1      -7.229   1.882  24.917  0.00  0.00    -0.166 F 
ATOM     30  F   UNL     1      -6.401   1.725  25.724  0.00  0.00    -0.166 F 
ATOM     31  F   UNL     1      -6.412   1.914  24.086  0.00  0.00    -0.166 F 
ENDBRANCH  25  28
ENDBRANCH  20  22
BRANCH   5   3
ATOM      3  C   UNL     1      -4.045   0.207  24.885  0.00  0.00    +0.332 C 
ATOM      4  O   UNL     1      -4.776   0.487  25.146  0.00  0.00    -0.249 OA
BRANCH   3   2
ATOM      1  C   UNL     1      -4.723  -1.008  24.563  0.00  0.00    +0.256 C 
ATOM      2  O   UNL     1      -4.501  -0.239  24.362  0.00  0.00    -0.443 OA
ENDBRANCH   3   2
ENDBRANCH   5   3
BRANCH  18  32
ATOM     32  N   UNL     1      -1.365   2.873  24.803  0.00  0.00    -0.215 NA
BRANCH  32  33
ATOM     33  C   UNL     1      -1.484   3.468  25.362  0.00  0.00    +0.116 C 
BRANCH  33  34
ATOM     34  C   UNL     1      -1.293   4.250  25.180  0.00  0.00    +0.014 A 
ATOM     35  C   UNL     1      -1.839   4.851  25.326  0.00  0.00    +0.000 A 
ATOM     36  C   UNL     1      -1.648   5.633  25.144  0.00  0.00    +0.020 A 
ATOM     37  C   UNL     1      -0.912   5.813  24.817  0.00  0.00    +0.099 A 
ATOM     38  N   UNL     1      -0.367   5.211  24.672  0.00  0.00    -0.243 NA
ATOM     39  C   UNL     1      -0.558   4.429  24.854  0.00  0.00    +0.096 A 
ENDBRANCH  33  34
ENDBRANCH  32  33
ENDBRANCH  18  32
TORSDOF 7
ENDMDL
