MODEL 1
REMARK VINA RESULT:     -11.6      0.000      0.000
REMARK  Name = 
REMARK  7 active torsions:
REMARK  status: ('A' for Active; 'I' for Inactive)
REMARK    1  A    between atoms: O_2  and  C_3
REMARK    2  A    between atoms: C_9  and  C_10
REMARK    3  A    between atoms: C_10  and  C_11
REMARK    4  A    between atoms: C_16  and  C_17
REMARK    5  A    between atoms: C_17  and  C_18
REMARK    6  A    between atoms: C_21  and  C_23
REMARK    7  A    between atoms: C_23  and  C_24
REMARK                            x       y       z     vdW  Elec       q    Type
REMARK                         _______ _______ _______ _____ _____    ______ ____
ROOT
ATOM     11  C   UNL     1      -3.732   1.425  24.897  0.00  0.00    +0.026 C 
ATOM     12  C   UNL     1      -3.405   0.672  24.825  0.00  0.00    +0.094 C 
ATOM     13  N   UNL     1      -3.898   0.011  24.785  0.00  0.00    -0.280 N 
ATOM     14  C   UNL     1      -4.717   0.105  24.818  0.00  0.00    +0.093 C 
ATOM     15  C   UNL     1      -5.043   0.858  24.890  0.00  0.00    +0.022 C 
ATOM     16  C   UNL     1      -4.551   1.519  24.929  0.00  0.00    +0.015 C 
ATOM     21  C   UNL     1      -3.571  -0.743  24.713  0.00  0.00    +0.226 C 
ATOM     22  O   UNL     1      -2.752  -0.836  24.680  0.00  0.00    -0.275 OA
ENDROOT
BRANCH  11  10
ATOM     10  C   UNL     1      -3.240   2.087  24.936  0.00  0.00    +0.047 C 
BRANCH  10   9
ATOM      3  C   UNL     1      -0.380   2.723  25.455  0.00  0.00    +0.138 A 
ATOM      4  C   UNL     1      -0.438   2.570  24.646  0.00  0.00    +0.033 A 
ATOM      5  C   UNL     1      -1.167   2.373  24.314  0.00  0.00    -0.016 A 
ATOM      6  C   UNL     1      -1.840   2.328  24.791  0.00  0.00    +0.009 A 
ATOM      7  C   UNL     1      -1.782   2.481  25.600  0.00  0.00    +0.004 A 
ATOM      8  C   UNL     1      -1.053   2.678  25.933  0.00  0.00    +0.037 A 
ATOM      9  C   UNL     1      -2.568   2.131  24.460  0.00  0.00    +0.053 C 
ATOM     28  N   UNL     1      -2.626   1.978  23.651  0.00  0.00    -0.274 NA
ATOM     29  C   UNL     1      -1.953   2.023  23.174  0.00  0.00    +0.130 C 
ATOM     30  C   UNL     1      -1.225   2.220  23.506  0.00  0.00    +0.053 C 
BRANCH   3   2
ATOM      1  C   UNL     1       0.562   2.616  26.523  0.00  0.00    +0.252 C 
ATOM      2  O   UNL     1       0.348   2.920  25.787  0.00  0.00    -0.471 OA
ENDBRANCH   3   2
ENDBRANCH  10   9
ENDBRANCH  11  10
BRANCH  16  17
ATOM     17  C   UNL     1      -4.878   2.273  25.002  0.00  0.00    +0.114 C 
BRANCH  17  18
ATOM     18  C   UNL     1      -5.638   2.365  25.308  0.00  0.00    +0.365 C 
ATOM     19  O   UNL     1      -6.295   2.276  24.817  0.00  0.00    -0.246 OA
ATOM     20  O   UNL     1      -5.742   2.546  26.107  0.00  0.00    -0.246 OA
ENDBRANCH  17  18
ENDBRANCH  16  17
BRANCH  21  23
ATOM     23  C   UNL     1      -4.063  -1.404  24.673  0.00  0.00    +0.085 C 
BRANCH  23  24
ATOM     24  C   UNL     1      -3.740  -2.152  24.544  0.00  0.00    +0.009 C 
ATOM     25  C   UNL     1      -3.416  -2.899  24.415  0.00  0.00    +0.000 C 
ATOM     26  C   UNL     1      -4.001  -2.130  23.762  0.00  0.00    +0.000 C 
ATOM     27  C   UNL     1      -3.478  -2.173  25.326  0.00  0.00    +0.000 C 
ENDBRANCH  23  24
ENDBRANCH  21  23
TORSDOF 7
ENDMDL
MODEL 2
REMARK VINA RESULT:     -11.1      1.256      4.487
REMARK  Name = 
REMARK  7 active torsions:
REMARK  status: ('A' for Active; 'I' for Inactive)
REMARK    1  A    between atoms: O_2  and  C_3
REMARK    2  A    between atoms: C_9  and  C_10
REMARK    3  A    between atoms: C_10  and  C_11
REMARK    4  A    between atoms: C_16  and  C_17
REMARK    5  A    between atoms: C_17  and  C_18
REMARK    6  A    between atoms: C_21  and  C_23
REMARK    7  A    between atoms: C_23  and  C_24
REMARK                            x       y       z     vdW  Elec       q    Type
REMARK                         _______ _______ _______ _____ _____    ______ ____
ROOT
ATOM     11  C   UNL     1      -3.869   1.494  24.788  0.00  0.00    +0.026 C 
ATOM     12  C   UNL     1      -3.155   1.899  24.715  0.00  0.00    +0.094 C 
ATOM     13  N   UNL     1      -3.102   2.688  24.952  0.00  0.00    -0.280 N 
ATOM     14  C   UNL     1      -3.764   3.070  25.262  0.00  0.00    +0.093 C 
ATOM     15  C   UNL     1      -4.478   2.665  25.335  0.00  0.00    +0.022 C 
ATOM     16  C   UNL     1      -4.531   1.877  25.098  0.00  0.00    +0.015 C 
ATOM     21  C   UNL     1      -2.387   3.093  24.879  0.00  0.00    +0.226 C 
ATOM     22  O   UNL     1      -1.726   2.709  24.569  0.00  0.00    -0.275 OA
ENDROOT
BRANCH  11  10
ATOM     10  C   UNL     1      -3.923   0.706  24.551  0.00  0.00    +0.047 C 
BRANCH  10   9
ATOM      3  C   UNL     1      -3.699  -2.249  24.284  0.00  0.00    +0.138 A 
ATOM      4  C   UNL     1      -3.140  -2.027  24.849  0.00  0.00    +0.033 A 
ATOM      5  C   UNL     1      -3.055  -1.232  25.057  0.00  0.00    -0.016 A 
ATOM      6  C   UNL     1      -3.531  -0.660  24.700  0.00  0.00    +0.009 A 
ATOM      7  C   UNL     1      -4.091  -0.882  24.135  0.00  0.00    +0.004 A 
ATOM      8  C   UNL     1      -4.175  -1.677  23.927  0.00  0.00    +0.037 A 
ATOM      9  C   UNL     1      -3.447   0.134  24.907  0.00  0.00    +0.053 C 
ATOM     28  N   UNL     1      -2.888   0.356  25.471  0.00  0.00    -0.274 NA
ATOM     29  C   UNL     1      -2.412  -0.217  25.828  0.00  0.00    +0.130 C 
ATOM     30  C   UNL     1      -2.496  -1.010  25.620  0.00  0.00    +0.053 C 
BRANCH   3   2
ATOM      1  C   UNL     1      -4.339  -3.264  23.510  0.00  0.00    +0.252 C 
ATOM      2  O   UNL     1      -3.783  -3.043  24.077  0.00  0.00    -0.471 OA
ENDBRANCH   3   2
ENDBRANCH  10   9
ENDBRANCH  11  10
BRANCH  16  17
ATOM     17  C   UNL     1      -5.246   1.472  25.171  0.00  0.00    +0.114 C 
BRANCH  17  18
ATOM     18  C   UNL     1      -5.933   1.881  25.371  0.00  0.00    +0.365 C 
ATOM     19  O   UNL     1      -6.117   2.019  26.163  0.00  0.00    -0.246 OA
ATOM     20  O   UNL     1      -6.439   2.154  24.777  0.00  0.00    -0.246 OA
ENDBRANCH  17  18
ENDBRANCH  16  17
BRANCH  21  23
ATOM     23  C   UNL     1      -2.334   3.881  25.116  0.00  0.00    +0.085 C 
BRANCH  23  24
ATOM     24  C   UNL     1      -1.611   4.276  25.075  0.00  0.00    +0.009 C 
ATOM     25  C   UNL     1      -0.888   4.671  25.035  0.00  0.00    +0.000 C 
ATOM     26  C   UNL     1      -1.873   4.687  24.410  0.00  0.00    +0.000 C 
ATOM     27  C   UNL     1      -1.349   3.865  25.741  0.00  0.00    +0.000 C 
ENDBRANCH  23  24
ENDBRANCH  21  23
TORSDOF 7
ENDMDL
MODEL 3
REMARK VINA RESULT:     -10.8      1.366      3.494
REMARK  Name = 
REMARK  7 active torsions:
REMARK  status: ('A' for Active; 'I' for Inactive)
REMARK    1  A    between atoms: O_2  and  C_3
REMARK    2  A    between atoms: C_9  and  C_10
REMARK    3  A    between atoms: C_10  and  C_11
REMARK    4  A    between atoms: C_16  and  C_17
REMARK    5  A    between atoms: C_17  and  C_18
REMARK    6  A    between atoms: C_21  and  C_23
REMARK    7  A    between atoms: C_23  and  C_24
REMARK                            x       y       z     vdW  Elec       q    Type
REMARK                         _______ _______ _______ _____ _____    ______ ____
ROOT
ATOM     11  C   UNL     1      -1.812   1.542  24.921  0.00  0.00    +0.026 C 
ATOM     12  C   UNL     1      -2.333   0.906  24.981  0.00  0.00    +0.094 C 
ATOM     13  N   UNL     1      -2.040   0.134  25.015  0.00  0.00    -0.280 N 
ATOM     14  C   UNL     1      -1.227   0.001  24.989  0.00  0.00    +0.093 C 
ATOM     15  C   UNL     1      -0.706   0.637  24.929  0.00  0.00    +0.022 C 
ATOM     16  C   UNL     1      -0.998   1.408  24.895  0.00  0.00    +0.015 C 
ATOM     21  C   UNL     1      -2.561  -0.503  25.075  0.00  0.00    +0.226 C 
ATOM     22  O   UNL     1      -3.375  -0.368  25.101  0.00  0.00    -0.275 OA
ENDROOT
BRANCH  11  10
ATOM     10  C   UNL     1      -2.104   2.312  24.887  0.00  0.00    +0.047 C 
BRANCH  10   9
ATOM      3  C   UNL     1      -4.694   3.755  25.140  0.00  0.00    +0.138 A 
ATOM      4  C   UNL     1      -4.634   3.528  24.349  0.00  0.00    +0.033 A 
ATOM      5  C   UNL     1      -3.973   3.110  24.087  0.00  0.00    -0.016 A 
ATOM      6  C   UNL     1      -3.369   2.920  24.618  0.00  0.00    +0.009 A 
ATOM      7  C   UNL     1      -3.428   3.147  25.409  0.00  0.00    +0.004 A 
ATOM      8  C   UNL     1      -4.090   3.565  25.670  0.00  0.00    +0.037 A 
ATOM      9  C   UNL     1      -2.707   2.503  24.357  0.00  0.00    +0.053 C 
ATOM     28  N   UNL     1      -2.648   2.276  23.566  0.00  0.00    -0.274 NA
ATOM     29  C   UNL     1      -3.252   2.466  23.036  0.00  0.00    +0.130 C 
ATOM     30  C   UNL     1      -3.913   2.883  23.297  0.00  0.00    +0.053 C 
BRANCH   3   2
ATOM      1  C   UNL     1      -5.974   3.774  25.774  0.00  0.00    +0.252 C 
ATOM      2  O   UNL     1      -5.356   4.172  25.401  0.00  0.00    -0.471 OA
ENDBRANCH   3   2
ENDBRANCH  10   9
ENDBRANCH  11  10
BRANCH  16  17
ATOM     17  C   UNL     1      -0.477   2.045  24.835  0.00  0.00    +0.114 C 
BRANCH  17  18
ATOM     18  C   UNL     1       0.311   1.955  25.059  0.00  0.00    +0.365 C 
ATOM     19  O   UNL     1       0.873   1.708  24.507  0.00  0.00    -0.246 OA
ATOM     20  O   UNL     1       0.539   2.112  25.837  0.00  0.00    -0.246 OA
ENDBRANCH  17  18
ENDBRANCH  16  17
BRANCH  21  23
ATOM     23  C   UNL     1      -2.269  -1.273  25.109  0.00  0.00    +0.085 C 
BRANCH  23  24
ATOM     24  C   UNL     1      -2.789  -1.913  25.082  0.00  0.00    +0.009 C 
ATOM     25  C   UNL     1      -3.308  -2.553  25.056  0.00  0.00    +0.000 C 
ATOM     26  C   UNL     1      -3.026  -1.752  25.856  0.00  0.00    +0.000 C 
ATOM     27  C   UNL     1      -2.551  -2.073  24.309  0.00  0.00    +0.000 C 
ENDBRANCH  23  24
ENDBRANCH  21  23
TORSDOF 7
ENDMDL
MODEL 4
REMARK VINA RESULT:     -10.3      1.023      3.055
REMARK  Name = 
REMARK  7 active torsions:
REMARK  status: ('A' for Active; 'I' for Inactive)
REMARK    1  A    between atoms: O_2  and  C_3
REMARK    2  A    between atoms: C_9  and  C_10
REMARK    3  A    between atoms: C_10  and  C_11
REMARK    4  A    between atoms: C_16  and  C_17
REMARK    5  A    between atoms: C_17  and  C_18
REMARK    6  A    between atoms: C_21  and  C_23
REMARK    7  A    between atoms: C_23  and  C_24
REMARK                            x       y       z     vdW  Elec       q    Type
REMARK                         _______ _______ _______ _____ _____    ______ ____
ROOT
ATOM     11  C   UNL     1      -3.071   0.093  24.766  0.00  0.00    +0.026 C 
ATOM     12  C   UNL     1      -3.470   0.791  24.948  0.00  0.00    +0.094 C 
ATOM     13  N   UNL     1      -4.294   0.794  25.003  0.00  0.00    -0.280 N 
ATOM     14  C   UNL     1      -4.717   0.098  24.876  0.00  0.00    +0.093 C 
ATOM     15  C   UNL     1      -4.319  -0.600  24.693  0.00  0.00    +0.022 C 
ATOM     16  C   UNL     1      -3.496  -0.604  24.638  0.00  0.00    +0.015 C 
ATOM     21  C   UNL     1      -4.693   1.492  25.186  0.00  0.00    +0.226 C 
ATOM     22  O   UNL     1      -4.268   2.188  25.313  0.00  0.00    -0.275 OA
ENDROOT
BRANCH  11  10
ATOM     10  C   UNL     1      -2.248   0.090  24.711  0.00  0.00    +0.047 C 
BRANCH  10   9
ATOM      3  C   UNL     1      -0.053   1.946  25.479  0.00  0.00    +0.138 A 
ATOM      4  C   UNL     1      -0.265   2.147  24.707  0.00  0.00    +0.033 A 
ATOM      5  C   UNL     1      -0.866   1.734  24.321  0.00  0.00    -0.016 A 
ATOM      6  C   UNL     1      -1.257   1.118  24.709  0.00  0.00    +0.009 A 
ATOM      7  C   UNL     1      -1.046   0.917  25.481  0.00  0.00    +0.004 A 
ATOM      8  C   UNL     1      -0.444   1.330  25.866  0.00  0.00    +0.037 A 
ATOM      9  C   UNL     1      -1.858   0.705  24.324  0.00  0.00    +0.053 C 
ATOM     28  N   UNL     1      -2.068   0.906  23.553  0.00  0.00    -0.274 NA
ATOM     29  C   UNL     1      -1.677   1.522  23.165  0.00  0.00    +0.130 C 
ATOM     30  C   UNL     1      -1.077   1.935  23.550  0.00  0.00    +0.053 C 
BRANCH   3   2
ATOM      1  C   UNL     1       0.415   2.678  26.612  0.00  0.00    +0.252 C 
ATOM      2  O   UNL     1       0.547   2.359  25.863  0.00  0.00    -0.471 OA
ENDBRANCH   3   2
ENDBRANCH  10   9
ENDBRANCH  11  10
BRANCH  16  17
ATOM     17  C   UNL     1      -3.097  -1.302  24.456  0.00  0.00    +0.114 C 
BRANCH  17  18
ATOM     18  C   UNL     1      -3.489  -2.026  24.505  0.00  0.00    +0.365 C 
ATOM     19  O   UNL     1      -3.895  -2.321  23.850  0.00  0.00    -0.246 OA
ATOM     20  O   UNL     1      -3.475  -2.455  25.210  0.00  0.00    -0.246 OA
ENDBRANCH  17  18
ENDBRANCH  16  17
BRANCH  21  23
ATOM     23  C   UNL     1      -5.515   1.495  25.241  0.00  0.00    +0.085 C 
BRANCH  23  24
ATOM     24  C   UNL     1      -5.913   2.187  25.448  0.00  0.00    +0.009 C 
ATOM     25  C   UNL     1      -6.310   2.880  25.656  0.00  0.00    +0.000 C 
ATOM     26  C   UNL     1      -5.975   1.919  26.226  0.00  0.00    +0.000 C 
ATOM     27  C   UNL     1      -5.851   2.456  24.671  0.00  0.00    +0.000 C 
ENDBRANCH  23  24
ENDBRANCH  21  23
TORSDOF 7
ENDMDL
MODEL 5
REMARK VINA RESULT:      -9.9      1.961      3.448
REMARK  Name = 
REMARK  7 active torsions:
REMARK  status: ('A' for Active; 'I' for Inactive)
REMARK    1  A    between atoms: O_2  and  C_3
REMARK    2  A    between atoms: C_9  and  C_10
REMARK    3  A    between atoms: C_10  and  C_11
REMARK    4  A    between atoms: C_16  and  C_17
REMARK    5  A    between atoms: C_17  and  C_18
REMARK    6  A    between atoms: C_21  and  C_23
REMARK    7  A    between atoms: C_23  and  C_24
REMARK                            x       y       z     vdW  Elec       q    Type
REMARK                         _______ _______ _______ _____ _____    ______ ____
ROOT
ATOM     11  C   UNL     1      -1.109   0.412  24.236  0.00  0.00    +0.026 C 
ATOM     12  C   UNL     1      -1.774   0.006  24.505  0.00  0.00    +0.094 C 
ATOM     13  N   UNL     1      -1.796  -0.819  24.472  0.00  0.00    -0.280 N 
ATOM     14  C   UNL     1      -1.152  -1.236  24.170  0.00  0.00    +0.093 C 
ATOM     15  C   UNL     1      -0.487  -0.831  23.901  0.00  0.00    +0.022 C 
ATOM     16  C   UNL     1      -0.465  -0.007  23.934  0.00  0.00    +0.015 C 
ATOM     21  C   UNL     1      -2.462  -1.225  24.742  0.00  0.00    +0.226 C 
ATOM     22  O   UNL     1      -3.106  -0.806  25.044  0.00  0.00    -0.275 OA
ENDROOT
BRANCH  11  10
ATOM     10  C   UNL     1      -1.086   1.235  24.269  0.00  0.00    +0.047 C 
BRANCH  10   9
ATOM      3  C   UNL     1      -2.535   3.643  25.247  0.00  0.00    +0.138 A 
ATOM      4  C   UNL     1      -2.897   3.430  24.537  0.00  0.00    +0.033 A 
ATOM      5  C   UNL     1      -2.626   2.775  24.115  0.00  0.00    -0.016 A 
ATOM      6  C   UNL     1      -1.992   2.332  24.403  0.00  0.00    +0.009 A 
ATOM      7  C   UNL     1      -1.629   2.545  25.113  0.00  0.00    +0.004 A 
ATOM      8  C   UNL     1      -1.900   3.200  25.536  0.00  0.00    +0.037 A 
ATOM      9  C   UNL     1      -1.721   1.678  23.981  0.00  0.00    +0.053 C 
ATOM     28  N   UNL     1      -2.083   1.465  23.272  0.00  0.00    -0.274 NA
ATOM     29  C   UNL     1      -2.718   1.908  22.984  0.00  0.00    +0.130 C 
ATOM     30  C   UNL     1      -2.989   2.562  23.405  0.00  0.00    +0.053 C 
BRANCH   3   2
ATOM      1  C   UNL     1      -3.109   4.202  26.430  0.00  0.00    +0.252 C 
ATOM      2  O   UNL     1      -2.806   4.298  25.669  0.00  0.00    -0.471 OA
ENDBRANCH   3   2
ENDBRANCH  10   9
ENDBRANCH  11  10
BRANCH  16  17
ATOM     17  C   UNL     1       0.201   0.399  23.665  0.00  0.00    +0.114 C 
BRANCH  17  18
ATOM     18  C   UNL     1       0.800  -0.007  23.269  0.00  0.00    +0.365 C 
ATOM     19  O   UNL     1       1.410  -0.362  23.697  0.00  0.00    -0.246 OA
ATOM     20  O   UNL     1       0.789  -0.059  22.445  0.00  0.00    -0.246 OA
ENDBRANCH  17  18
ENDBRANCH  16  17
BRANCH  21  23
ATOM     23  C   UNL     1      -2.484  -2.048  24.709  0.00  0.00    +0.085 C 
BRANCH  23  24
ATOM     24  C   UNL     1      -3.193  -2.448  24.844  0.00  0.00    +0.009 C 
ATOM     25  C   UNL     1      -3.902  -2.847  24.979  0.00  0.00    +0.000 C 
ATOM     26  C   UNL     1      -3.030  -2.463  25.652  0.00  0.00    +0.000 C 
ATOM     27  C   UNL     1      -3.356  -2.432  24.035  0.00  0.00    +0.000 C 
ENDBRANCH  23  24
ENDBRANCH  21  23
TORSDOF 7
ENDMDL
MODEL 6
REMARK VINA RESULT:      -9.8      2.187      3.768
REMARK  Name = 
REMARK  7 active torsions:
REMARK  status: ('A' for Active; 'I' for Inactive)
REMARK    1  A    between atoms: O_2  and  C_3
REMARK    2  A    between atoms: C_9  and  C_10
REMARK    3  A    between atoms: C_10  and  C_11
REMARK    4  A    between atoms: C_16  and  C_17
REMARK    5  A    between atoms: C_17  and  C_18
REMARK    6  A    between atoms: C_21  and  C_23
REMARK    7  A    between atoms: C_23  and  C_24
REMARK                            x       y       z     vdW  Elec       q    Type
REMARK                         _______ _______ _______ _____ _____    ______ ____
ROOT
ATOM     11  C   UNL     1      -1.897   2.713  24.942  0.00  0.00    +0.026 C 
ATOM     12  C   UNL     1      -2.615   2.317  24.860  0.00  0.00    +0.094 C 
ATOM     13  N   UNL     1      -3.322   2.703  25.041  0.00  0.00    -0.280 N 
ATOM     14  C   UNL     1      -3.309   3.485  25.302  0.00  0.00    +0.093 C 
ATOM     15  C   UNL     1      -2.591   3.881  25.383  0.00  0.00    +0.022 C 
ATOM     16  C   UNL     1      -1.884   3.496  25.203  0.00  0.00    +0.015 C 
ATOM     21  C   UNL     1      -4.041   2.306  24.959  0.00  0.00    +0.226 C 
ATOM     22  O   UNL     1      -4.052   1.524  24.698  0.00  0.00    -0.275 OA
ENDROOT
BRANCH  11  10
ATOM     10  C   UNL     1      -1.190   2.328  24.762  0.00  0.00    +0.047 C 
BRANCH  10   9
ATOM      3  C   UNL     1       0.219   0.013  23.535  0.00  0.00    +0.138 A 
ATOM      4  C   UNL     1      -0.103  -0.264  24.242  0.00  0.00    +0.033 A 
ATOM      5  C   UNL     1      -0.536   0.245  24.726  0.00  0.00    -0.016 A 
ATOM      6  C   UNL     1      -0.647   1.033  24.502  0.00  0.00    +0.009 A 
ATOM      7  C   UNL     1      -0.324   1.309  23.795  0.00  0.00    +0.004 A 
ATOM      8  C   UNL     1       0.109   0.800  23.311  0.00  0.00    +0.037 A 
ATOM      9  C   UNL     1      -1.079   1.542  24.985  0.00  0.00    +0.053 C 
ATOM     28  N   UNL     1      -1.401   1.265  25.692  0.00  0.00    -0.274 NA
ATOM     29  C   UNL     1      -1.291   0.478  25.916  0.00  0.00    +0.130 C 
ATOM     30  C   UNL     1      -0.858  -0.031  25.433  0.00  0.00    +0.053 C 
BRANCH   3   2
ATOM      1  C   UNL     1       1.328  -0.224  22.666  0.00  0.00    +0.252 C 
ATOM      2  O   UNL     1       0.652  -0.496  23.051  0.00  0.00    -0.471 OA
ENDBRANCH   3   2
ENDBRANCH  10   9
ENDBRANCH  11  10
BRANCH  16  17
ATOM     17  C   UNL     1      -1.166   3.893  25.285  0.00  0.00    +0.114 C 
BRANCH  17  18
ATOM     18  C   UNL     1      -1.109   4.689  25.080  0.00  0.00    +0.365 C 
ATOM     19  O   UNL     1      -1.499   5.261  25.530  0.00  0.00    -0.246 OA
ATOM     20  O   UNL     1      -0.662   4.916  24.423  0.00  0.00    -0.246 OA
ENDBRANCH  17  18
ENDBRANCH  16  17
BRANCH  21  23
ATOM     23  C   UNL     1      -4.747   2.692  25.139  0.00  0.00    +0.085 C 
BRANCH  23  24
ATOM     24  C   UNL     1      -5.458   2.275  25.130  0.00  0.00    +0.009 C 
ATOM     25  C   UNL     1      -6.170   1.857  25.121  0.00  0.00    +0.000 C 
ATOM     26  C   UNL     1      -5.495   2.319  25.953  0.00  0.00    +0.000 C 
ATOM     27  C   UNL     1      -5.422   2.230  24.307  0.00  0.00    +0.000 C 
ENDBRANCH  23  24
ENDBRANCH  21  23
TORSDOF 7
ENDMDL
MODEL 7
REMARK VINA RESULT:      -9.7      1.431      4.904
REMARK  Name = 
REMARK  7 active torsions:
REMARK  status: ('A' for Active; 'I' for Inactive)
REMARK    1  A    between atoms: O_2  and  C_3
REMARK    2  A    between atoms: C_9  and  C_10
REMARK    3  A    between atoms: C_10  and  C_11
REMARK    4  A    between atoms: C_16  and  C_17
REMARK    5  A    between atoms: C_17  and  C_18
REMARK    6  A    between atoms: C_21  and  C_23
REMARK    7  A    between atoms: C_23  and  C_24
REMARK                            x       y       z     vdW  Elec       q    Type
REMARK                         _______ _______ _______ _____ _____    ______ ____
ROOT
ATOM     11  C   UNL     1      -1.913   0.975  24.677  0.00  0.00    +0.026 C 
ATOM     12  C   UNL     1      -2.658   1.312  24.778  0.00  0.00    +0.094 C 
ATOM     13  N   UNL     1      -2.733   2.127  24.886  0.00  0.00    -0.280 N 
ATOM     14  C   UNL     1      -2.060   2.604  24.893  0.00  0.00    +0.093 C 
ATOM     15  C   UNL     1      -1.314   2.268  24.793  0.00  0.00    +0.022 C 
ATOM     16  C   UNL     1      -1.240   1.454  24.685  0.00  0.00    +0.015 C 
ATOM     21  C   UNL     1      -3.479   2.464  24.986  0.00  0.00    +0.226 C 
ATOM     22  O   UNL     1      -4.151   1.985  24.979  0.00  0.00    -0.275 OA
ENDROOT
BRANCH  11  10
ATOM     10  C   UNL     1      -1.838   0.161  24.569  0.00  0.00    +0.047 C 
BRANCH  10   9
ATOM      3  C   UNL     1      -3.588  -2.238  24.383  0.00  0.00    +0.138 A 
ATOM      4  C   UNL     1      -3.427  -2.133  25.186  0.00  0.00    +0.033 A 
ATOM      5  C   UNL     1      -2.950  -1.507  25.434  0.00  0.00    -0.016 A 
ATOM      6  C   UNL     1      -2.632  -0.985  24.878  0.00  0.00    +0.009 A 
ATOM      7  C   UNL     1      -2.793  -1.091  24.075  0.00  0.00    +0.004 A 
ATOM      8  C   UNL     1      -3.270  -1.717  23.827  0.00  0.00    +0.037 A 
ATOM      9  C   UNL     1      -2.156  -0.360  25.125  0.00  0.00    +0.053 C 
ATOM     28  N   UNL     1      -1.996  -0.255  25.927  0.00  0.00    -0.274 NA
ATOM     29  C   UNL     1      -2.313  -0.777  26.483  0.00  0.00    +0.130 C 
ATOM     30  C   UNL     1      -2.790  -1.402  26.235  0.00  0.00    +0.053 C 
BRANCH   3   2
ATOM      1  C   UNL     1      -4.576  -2.765  23.497  0.00  0.00    +0.252 C 
ATOM      2  O   UNL     1      -4.065  -2.864  24.136  0.00  0.00    -0.471 OA
ENDBRANCH   3   2
ENDBRANCH  10   9
ENDBRANCH  11  10
BRANCH  16  17
ATOM     17  C   UNL     1      -0.493   1.117  24.584  0.00  0.00    +0.114 C 
BRANCH  17  18
ATOM     18  C   UNL     1       0.169   1.600  24.502  0.00  0.00    +0.365 C 
ATOM     19  O   UNL     1       0.549   1.898  25.172  0.00  0.00    -0.246 OA
ATOM     20  O   UNL     1       0.454   1.787  23.750  0.00  0.00    -0.246 OA
ENDBRANCH  17  18
ENDBRANCH  16  17
BRANCH  21  23
ATOM     23  C   UNL     1      -3.553   3.278  25.094  0.00  0.00    +0.085 C 
BRANCH  23  24
ATOM     24  C   UNL     1      -4.299   3.614  25.196  0.00  0.00    +0.009 C 
ATOM     25  C   UNL     1      -5.045   3.951  25.298  0.00  0.00    +0.000 C 
ATOM     26  C   UNL     1      -4.372   3.700  24.379  0.00  0.00    +0.000 C 
ATOM     27  C   UNL     1      -4.226   3.529  26.013  0.00  0.00    +0.000 C 
ENDBRANCH  23  24
ENDBRANCH  21  23
TORSDOF 7
ENDMDL
