MODEL 1
REMARK VINA RESULT:     -16.3      0.000      0.000
REMARK  Name = 
REMARK  2 active torsions:
REMARK  status: ('A' for Active; 'I' for Inactive)
REMARK    1  A    between atoms: N_3  and  C_4
REMARK    2  A    between atoms: C_19  and  C_24
REMARK                            x       y       z     vdW  Elec       q    Type
REMARK                         _______ _______ _______ _____ _____    ______ ____
ROOT
ATOM      1  O   UNL     1      -1.259   1.406  24.123  0.00  0.00    -0.250 OA
ATOM      2  C   UNL     1      -2.132   1.250  24.324  0.00  0.00    +0.327 C 
ATOM      3  N   UNL     1      -2.846   0.702  24.539  0.00  0.00    -0.162 NA
ATOM     10  N   UNL     1      -2.724   1.886  24.370  0.00  0.00    -0.262 N 
ATOM     11  C   UNL     1      -2.757   2.716  24.276  0.00  0.00    +0.097 C 
ATOM     12  C   UNL     1      -3.717   2.865  24.458  0.00  0.00    +0.043 C 
ATOM     13  C   UNL     1      -4.470   3.151  24.580  0.00  0.00    +0.011 C 
ATOM     14  C   UNL     1      -4.144   2.530  24.587  0.00  0.00    +0.058 C 
ATOM     15  C   UNL     1      -3.214   2.402  24.409  0.00  0.00    +0.101 C 
ATOM     16  C   UNL     1      -4.300   1.635  24.728  0.00  0.00    +0.041 A 
ATOM     17  C   UNL     1      -4.910   1.114  24.918  0.00  0.00    +0.013 A 
ATOM     18  C   UNL     1      -4.756   0.306  24.984  0.00  0.00    +0.006 A 
ATOM     19  C   UNL     1      -3.992   0.020  24.860  0.00  0.00    +0.058 A 
ATOM     20  C   UNL     1      -3.382   0.541  24.670  0.00  0.00    +0.261 A 
ATOM     21  O   UNL     1      -2.463   0.342  24.503  0.00  0.00    -0.267 OA
ATOM     22  N   UNL     1      -3.536   1.349  24.604  0.00  0.00    -0.299 N 
ATOM     23  C   UNL     1      -3.871   1.928  24.603  0.00  0.00    +0.110 C 
ENDROOT
BRANCH   3   4
ATOM      4  C   UNL     1      -2.561  -0.278  24.598  0.00  0.00    +0.075 A 
ATOM      5  C   UNL     1      -1.979  -0.412  25.167  0.00  0.00    +0.017 A 
ATOM      6  C   UNL     1      -1.686  -1.174  25.287  0.00  0.00    +0.001 A 
ATOM      7  C   UNL     1      -1.975  -1.803  24.837  0.00  0.00    +0.000 A 
ATOM      8  C   UNL     1      -2.558  -1.670  24.269  0.00  0.00    +0.001 A 
ATOM      9  C   UNL     1      -2.728  -0.785  24.305  0.00  0.00    +0.017 A 
ENDBRANCH   3   4
BRANCH  19  24
ATOM     24  C   UNL     1      -3.839  -0.788  24.926  0.00  0.00    +0.024 A 
ATOM     25  C   UNL     1      -3.938  -1.281  24.272  0.00  0.00    +0.003 A 
ATOM     26  C   UNL     1      -3.785  -2.089  24.337  0.00  0.00    +0.021 A 
ATOM     27  C   UNL     1      -3.534  -2.404  25.057  0.00  0.00    +0.099 A 
ATOM     28  N   UNL     1      -3.436  -1.912  25.712  0.00  0.00    -0.242 NA
ATOM     29  C   UNL     1      -3.588  -1.103  25.646  0.00  0.00    +0.099 A 
ENDBRANCH  19  24
TORSDOF 2
ENDMDL
MODEL 2
REMARK VINA RESULT:     -16.1      0.965      3.385
REMARK  Name = 
REMARK  2 active torsions:
REMARK  status: ('A' for Active; 'I' for Inactive)
REMARK    1  A    between atoms: N_3  and  C_4
REMARK    2  A    between atoms: C_19  and  C_24
REMARK                            x       y       z     vdW  Elec       q    Type
REMARK                         _______ _______ _______ _____ _____    ______ ____
ROOT
ATOM      1  O   UNL     1      -0.550  -0.849  24.738  0.00  0.00    -0.250 OA
ATOM      2  C   UNL     1      -1.448  -0.774  24.620  0.00  0.00    +0.327 C 
ATOM      3  N   UNL     1      -2.227  -0.294  24.479  0.00  0.00    -0.162 NA
ATOM     10  N   UNL     1      -1.981  -1.463  24.618  0.00  0.00    -0.262 N 
ATOM     11  C   UNL     1      -1.928  -2.293  24.701  0.00  0.00    +0.097 C 
ATOM     12  C   UNL     1      -2.882  -2.530  24.604  0.00  0.00    +0.043 C 
ATOM     13  C   UNL     1      -3.613  -2.884  24.546  0.00  0.00    +0.011 C 
ATOM     14  C   UNL     1      -3.348  -2.235  24.519  0.00  0.00    +0.058 C 
ATOM     15  C   UNL     1      -2.422  -2.022  24.614  0.00  0.00    +0.101 C 
ATOM     16  C   UNL     1      -3.599  -1.358  24.407  0.00  0.00    +0.041 A 
ATOM     17  C   UNL     1      -4.269  -0.895  24.282  0.00  0.00    +0.013 A 
ATOM     18  C   UNL     1      -4.198  -0.076  24.215  0.00  0.00    +0.006 A 
ATOM     19  C   UNL     1      -3.456   0.280  24.274  0.00  0.00    +0.058 A 
ATOM     20  C   UNL     1      -2.785  -0.183  24.400  0.00  0.00    +0.261 A 
ATOM     21  O   UNL     1      -1.877   0.100  24.486  0.00  0.00    -0.267 OA
ATOM     22  N   UNL     1      -2.857  -1.002  24.467  0.00  0.00    -0.299 N 
ATOM     23  C   UNL     1      -3.135  -1.611  24.488  0.00  0.00    +0.110 C 
ENDROOT
BRANCH   3   4
ATOM      4  C   UNL     1      -2.041   0.709  24.410  0.00  0.00    +0.075 A 
ATOM      5  C   UNL     1      -1.720   1.027  25.100  0.00  0.00    +0.017 A 
ATOM      6  C   UNL     1      -1.536   1.830  25.138  0.00  0.00    +0.001 A 
ATOM      7  C   UNL     1      -1.673   2.316  24.485  0.00  0.00    +0.000 A 
ATOM      8  C   UNL     1      -1.994   1.999  23.795  0.00  0.00    +0.001 A 
ATOM      9  C   UNL     1      -2.115   1.123  23.970  0.00  0.00    +0.017 A 
ENDBRANCH   3   4
BRANCH  19  24
ATOM     24  C   UNL     1      -3.385   1.099  24.208  0.00  0.00    +0.024 A 
ATOM     25  C   UNL     1      -3.263   1.443  23.468  0.00  0.00    +0.003 A 
ATOM     26  C   UNL     1      -3.192   2.262  23.400  0.00  0.00    +0.021 A 
ATOM     27  C   UNL     1      -3.244   2.737  24.072  0.00  0.00    +0.099 A 
ATOM     28  N   UNL     1      -3.367   2.394  24.812  0.00  0.00    -0.242 NA
ATOM     29  C   UNL     1      -3.437   1.574  24.880  0.00  0.00    +0.099 A 
ENDBRANCH  19  24
TORSDOF 2
ENDMDL
MODEL 3
REMARK VINA RESULT:     -15.7      1.004      1.987
REMARK  Name = 
REMARK  2 active torsions:
REMARK  status: ('A' for Active; 'I' for Inactive)
REMARK    1  A    between atoms: N_3  and  C_4
REMARK    2  A    between atoms: C_19  and  C_24
REMARK                            x       y       z     vdW  Elec       q    Type
REMARK                         _______ _______ _______ _____ _____    ______ ____
ROOT
ATOM      1  O   UNL     1      -5.727   1.188  24.822  0.00  0.00    -0.250 OA
ATOM      2  C   UNL     1      -4.828   1.318  24.845  0.00  0.00    +0.327 C 
ATOM      3  N   UNL     1      -3.950   1.025  24.875  0.00  0.00    -0.162 NA
ATOM     10  N   UNL     1      -4.468   2.111  24.841  0.00  0.00    -0.262 N 
ATOM     11  C   UNL     1      -4.715   2.908  24.820  0.00  0.00    +0.097 C 
ATOM     12  C   UNL     1      -3.834   3.356  24.837  0.00  0.00    +0.043 C 
ATOM     13  C   UNL     1      -3.200   3.867  24.846  0.00  0.00    +0.011 C 
ATOM     14  C   UNL     1      -3.307   3.173  24.856  0.00  0.00    +0.058 C 
ATOM     15  C   UNL     1      -4.166   2.756  24.839  0.00  0.00    +0.101 C 
ATOM     16  C   UNL     1      -2.854   2.374  24.883  0.00  0.00    +0.041 A 
ATOM     17  C   UNL     1      -2.087   2.074  24.910  0.00  0.00    +0.013 A 
ATOM     18  C   UNL     1      -1.964   1.258  24.928  0.00  0.00    +0.006 A 
ATOM     19  C   UNL     1      -2.608   0.743  24.919  0.00  0.00    +0.058 A 
ATOM     20  C   UNL     1      -3.376   1.044  24.891  0.00  0.00    +0.261 A 
ATOM     21  O   UNL     1      -4.200   0.562  24.876  0.00  0.00    -0.267 OA
ATOM     22  N   UNL     1      -3.499   1.859  24.874  0.00  0.00    -0.299 N 
ATOM     23  C   UNL     1      -3.369   2.516  24.866  0.00  0.00    +0.110 C 
ENDROOT
BRANCH   3   4
ATOM      4  C   UNL     1      -3.896   0.005  24.895  0.00  0.00    +0.075 A 
ATOM      5  C   UNL     1      -4.193  -0.348  24.212  0.00  0.00    +0.017 A 
ATOM      6  C   UNL     1      -4.192  -1.170  24.137  0.00  0.00    +0.001 A 
ATOM      7  C   UNL     1      -3.893  -1.639  24.746  0.00  0.00    +0.000 A 
ATOM      8  C   UNL     1      -3.596  -1.287  25.430  0.00  0.00    +0.001 A 
ATOM      9  C   UNL     1      -3.693  -0.400  25.302  0.00  0.00    +0.017 A 
ENDBRANCH   3   4
BRANCH  19  24
ATOM     24  C   UNL     1      -2.484  -0.072  24.937  0.00  0.00    +0.024 A 
ATOM     25  C   UNL     1      -2.439  -0.466  25.660  0.00  0.00    +0.003 A 
ATOM     26  C   UNL     1      -2.316  -1.281  25.679  0.00  0.00    +0.021 A 
ATOM     27  C   UNL     1      -2.236  -1.702  24.975  0.00  0.00    +0.099 A 
ATOM     28  N   UNL     1      -2.281  -1.309  24.251  0.00  0.00    -0.242 NA
ATOM     29  C   UNL     1      -2.405  -0.493  24.232  0.00  0.00    +0.099 A 
ENDBRANCH  19  24
TORSDOF 2
ENDMDL
MODEL 4
REMARK VINA RESULT:     -15.5      2.253      3.605
REMARK  Name = 
REMARK  2 active torsions:
REMARK  status: ('A' for Active; 'I' for Inactive)
REMARK    1  A    between atoms: N_3  and  C_4
REMARK    2  A    between atoms: C_19  and  C_24
REMARK                            x       y       z     vdW  Elec       q    Type
REMARK                         _______ _______ _______ _____ _____    ______ ____
ROOT
ATOM      1  O   UNL     1      -3.726   4.486  26.326  0.00  0.00    -0.250 OA
ATOM      2  C   UNL     1      -3.652   3.726  25.832  0.00  0.00    +0.327 C 
ATOM      3  N   UNL     1      -3.172   3.079  25.376  0.00  0.00    -0.162 NA
ATOM     10  N   UNL     1      -4.343   3.255  25.589  0.00  0.00    -0.262 N 
ATOM     11  C   UNL     1      -5.173   3.277  25.674  0.00  0.00    +0.097 C 
ATOM     12  C   UNL     1      -5.412   2.461  25.171  0.00  0.00    +0.043 C 
ATOM     13  C   UNL     1      -5.769   1.831  24.797  0.00  0.00    +0.011 C 
ATOM     14  C   UNL     1      -5.118   2.074  24.897  0.00  0.00    +0.058 C 
ATOM     15  C   UNL     1      -4.903   2.865  25.387  0.00  0.00    +0.101 C 
ATOM     16  C   UNL     1      -4.240   1.886  24.702  0.00  0.00    +0.041 A 
ATOM     17  C   UNL     1      -3.777   1.330  24.305  0.00  0.00    +0.013 A 
ATOM     18  C   UNL     1      -2.957   1.414  24.289  0.00  0.00    +0.006 A 
ATOM     19  C   UNL     1      -2.599   2.053  24.668  0.00  0.00    +0.058 A 
ATOM     20  C   UNL     1      -3.062   2.609  25.065  0.00  0.00    +0.261 A 
ATOM     21  O   UNL     1      -2.777   3.387  25.540  0.00  0.00    -0.267 OA
ATOM     22  N   UNL     1      -3.883   2.525  25.081  0.00  0.00    -0.299 N 
ATOM     23  C   UNL     1      -4.492   2.272  24.971  0.00  0.00    +0.110 C 
ENDROOT
BRANCH   3   4
ATOM      4  C   UNL     1      -2.167   3.265  25.409  0.00  0.00    +0.075 A 
ATOM      5  C   UNL     1      -1.959   3.983  25.060  0.00  0.00    +0.017 A 
ATOM      6  C   UNL     1      -1.169   4.219  25.040  0.00  0.00    +0.001 A 
ATOM      7  C   UNL     1      -0.586   3.736  25.369  0.00  0.00    +0.000 A 
ATOM      8  C   UNL     1      -0.793   3.018  25.719  0.00  0.00    +0.001 A 
ATOM      9  C   UNL     1      -1.689   2.961  25.632  0.00  0.00    +0.017 A 
ENDBRANCH   3   4
BRANCH  19  24
ATOM     24  C   UNL     1      -1.779   2.136  24.651  0.00  0.00    +0.024 A 
ATOM     25  C   UNL     1      -1.317   1.780  25.235  0.00  0.00    +0.003 A 
ATOM     26  C   UNL     1      -0.496   1.863  25.219  0.00  0.00    +0.021 A 
ATOM     27  C   UNL     1      -0.138   2.300  24.619  0.00  0.00    +0.099 A 
ATOM     28  N   UNL     1      -0.599   2.656  24.035  0.00  0.00    -0.242 NA
ATOM     29  C   UNL     1      -1.420   2.573  24.051  0.00  0.00    +0.099 A 
ENDBRANCH  19  24
TORSDOF 2
ENDMDL
