MODEL 1
REMARK VINA RESULT:     -11.9      0.000      0.000
REMARK  Name = 
REMARK  7 active torsions:
REMARK  status: ('A' for Active; 'I' for Inactive)
REMARK    1  A    between atoms: O_2  and  C_3
REMARK    2  A    between atoms: C_6  and  C_9
REMARK    3  A    between atoms: C_11  and  C_12
REMARK    4  A    between atoms: C_12  and  C_13
REMARK    5  A    between atoms: C_18  and  C_19
REMARK    6  A    between atoms: C_19  and  C_20
REMARK    7  A    between atoms: N_25  and  C_28
REMARK                            x       y       z     vdW  Elec       q    Type
REMARK                         _______ _______ _______ _____ _____    ______ ____
ROOT
ATOM     13  C   UNL     1      -3.601   3.008  24.979  0.00  0.00    +0.024 C 
ATOM     14  C   UNL     1      -4.213   3.288  25.456  0.00  0.00    +0.089 C 
ATOM     15  N   UNL     1      -4.049   3.802  26.080  0.00  0.00    -0.218 NA
ATOM     16  C   UNL     1      -3.271   4.037  26.226  0.00  0.00    +0.089 C 
ATOM     17  C   UNL     1      -2.658   3.757  25.748  0.00  0.00    +0.019 C 
ATOM     18  C   UNL     1      -2.823   3.243  25.125  0.00  0.00    +0.012 C 
ENDROOT
BRANCH  13  12
ATOM     12  C   UNL     1      -3.766   2.494  24.354  0.00  0.00    +0.051 C 
BRANCH  12  11
ATOM      9  C   UNL     1      -4.287   0.445  24.649  0.00  0.00    +0.177 A 
ATOM     10  C   UNL     1      -3.738   1.027  24.446  0.00  0.00    +0.058 A 
ATOM     11  C   UNL     1      -4.110   1.760  24.507  0.00  0.00    +0.101 A 
ATOM     35  N   UNL     1      -4.889   1.631  24.746  0.00  0.00    -0.081 NA
ATOM     36  O   UNL     1      -4.998   0.819  24.834  0.00  0.00    -0.354 OA
BRANCH   9   6
ATOM      3  C   UNL     1      -3.871  -1.995  24.692  0.00  0.00    +0.139 A 
ATOM      4  C   UNL     1      -4.233  -1.650  24.035  0.00  0.00    +0.037 A 
ATOM      5  C   UNL     1      -4.372  -0.837  24.021  0.00  0.00    +0.006 A 
ATOM      6  C   UNL     1      -4.148  -0.368  24.663  0.00  0.00    +0.037 A 
ATOM      7  C   UNL     1      -3.786  -0.714  25.319  0.00  0.00    +0.006 A 
ATOM      8  C   UNL     1      -3.648  -1.527  25.333  0.00  0.00    +0.037 A 
BRANCH   3   2
ATOM      1  C   UNL     1      -2.980  -3.101  24.539  0.00  0.00    +0.252 C 
ATOM      2  O   UNL     1      -3.732  -2.808  24.706  0.00  0.00    -0.471 OA
ENDBRANCH   3   2
ENDBRANCH   9   6
ENDBRANCH  12  11
ENDBRANCH  13  12
BRANCH  18  19
ATOM     19  C   UNL     1      -2.211   2.964  24.647  0.00  0.00    +0.085 C 
BRANCH  19  20
ATOM     20  C   UNL     1      -1.434   2.977  24.924  0.00  0.00    +0.226 C 
ATOM     21  O   UNL     1      -1.224   3.482  25.542  0.00  0.00    -0.275 OA
ATOM     22  N   UNL     1      -0.866   2.486  24.582  0.00  0.00    -0.276 N 
ATOM     23  C   UNL     1      -0.089   2.500  24.859  0.00  0.00    +0.115 C 
ATOM     24  C   UNL     1       0.479   2.008  24.516  0.00  0.00    +0.112 C 
ATOM     25  N   UNL     1       0.269   1.503  23.899  0.00  0.00    -0.304 N 
ATOM     26  C   UNL     1      -0.509   1.490  23.623  0.00  0.00    +0.112 C 
ATOM     27  C   UNL     1      -1.076   1.981  23.964  0.00  0.00    +0.115 C 
BRANCH  25  28
ATOM     28  C   UNL     1       0.837   1.011  23.557  0.00  0.00    +0.048 A 
ATOM     29  C   UNL     1       0.622   0.266  23.278  0.00  0.00    +0.017 A 
ATOM     30  C   UNL     1       1.190  -0.226  22.936  0.00  0.00    +0.031 A 
ATOM     31  C   UNL     1       1.972   0.028  22.873  0.00  0.00    +0.140 A 
ATOM     32  F   UNL     1       2.539  -0.464  22.531  0.00  0.00    -0.204 F 
ATOM     33  C   UNL     1       2.187   0.774  23.152  0.00  0.00    +0.031 A 
ATOM     34  C   UNL     1       1.619   1.266  23.494  0.00  0.00    +0.017 A 
ENDBRANCH  25  28
ENDBRANCH  19  20
ENDBRANCH  18  19
TORSDOF 7
ENDMDL
MODEL 2
REMARK VINA RESULT:     -11.9      2.827      6.426
REMARK  Name = 
REMARK  7 active torsions:
REMARK  status: ('A' for Active; 'I' for Inactive)
REMARK    1  A    between atoms: O_2  and  C_3
REMARK    2  A    between atoms: C_6  and  C_9
REMARK    3  A    between atoms: C_11  and  C_12
REMARK    4  A    between atoms: C_12  and  C_13
REMARK    5  A    between atoms: C_18  and  C_19
REMARK    6  A    between atoms: C_19  and  C_20
REMARK    7  A    between atoms: N_25  and  C_28
REMARK                            x       y       z     vdW  Elec       q    Type
REMARK                         _______ _______ _______ _____ _____    ______ ____
ROOT
ATOM     13  C   UNL     1      -0.453  -0.428  24.276  0.00  0.00    +0.024 C 
ATOM     14  C   UNL     1       0.036  -1.070  24.449  0.00  0.00    +0.089 C 
ATOM     15  N   UNL     1      -0.241  -1.684  24.924  0.00  0.00    -0.218 NA
ATOM     16  C   UNL     1      -1.008  -1.657  25.227  0.00  0.00    +0.089 C 
ATOM     17  C   UNL     1      -1.498  -1.015  25.054  0.00  0.00    +0.019 C 
ATOM     18  C   UNL     1      -1.220  -0.401  24.579  0.00  0.00    +0.012 C 
ENDROOT
BRANCH  13  12
ATOM     12  C   UNL     1      -0.176   0.187  23.800  0.00  0.00    +0.051 C 
BRANCH  12  11
ATOM      9  C   UNL     1       1.781   0.086  22.953  0.00  0.00    +0.177 A 
ATOM     10  C   UNL     1       1.272   0.291  23.570  0.00  0.00    +0.058 A 
ATOM     11  C   UNL     1       0.506   0.082  23.348  0.00  0.00    +0.101 A 
ATOM     35  N   UNL     1       0.541  -0.252  22.595  0.00  0.00    -0.081 NA
ATOM     36  O   UNL     1       1.329  -0.249  22.351  0.00  0.00    -0.354 OA
BRANCH   9   6
ATOM      3  C   UNL     1       4.233   0.421  22.919  0.00  0.00    +0.139 A 
ATOM      4  C   UNL     1       3.921  -0.320  23.102  0.00  0.00    +0.037 A 
ATOM      5  C   UNL     1       3.104  -0.432  23.114  0.00  0.00    +0.006 A 
ATOM      6  C   UNL     1       2.598   0.198  22.942  0.00  0.00    +0.037 A 
ATOM      7  C   UNL     1       2.912   0.939  22.759  0.00  0.00    +0.006 A 
ATOM      8  C   UNL     1       3.729   1.051  22.747  0.00  0.00    +0.037 A 
BRANCH   3   2
ATOM      1  C   UNL     1       5.522   0.195  23.494  0.00  0.00    +0.252 C 
ATOM      2  O   UNL     1       5.050   0.533  22.907  0.00  0.00    -0.471 OA
ENDBRANCH   3   2
ENDBRANCH   9   6
ENDBRANCH  12  11
ENDBRANCH  13  12
BRANCH  18  19
ATOM     19  C   UNL     1      -1.710   0.241  24.406  0.00  0.00    +0.085 C 
BRANCH  19  20
ATOM     20  C   UNL     1      -2.527   0.139  24.374  0.00  0.00    +0.226 C 
ATOM     21  O   UNL     1      -2.844  -0.591  24.154  0.00  0.00    -0.275 OA
ATOM     22  N   UNL     1      -3.030   0.766  24.561  0.00  0.00    -0.276 N 
ATOM     23  C   UNL     1      -3.847   0.663  24.529  0.00  0.00    +0.115 C 
ATOM     24  C   UNL     1      -4.349   1.291  24.716  0.00  0.00    +0.112 C 
ATOM     25  N   UNL     1      -4.033   2.021  24.935  0.00  0.00    -0.304 N 
ATOM     26  C   UNL     1      -3.214   2.123  24.968  0.00  0.00    +0.112 C 
ATOM     27  C   UNL     1      -2.713   1.496  24.781  0.00  0.00    +0.115 C 
BRANCH  25  28
ATOM     28  C   UNL     1      -4.535   2.649  25.123  0.00  0.00    +0.048 A 
ATOM     29  C   UNL     1      -5.250   2.504  25.507  0.00  0.00    +0.017 A 
ATOM     30  C   UNL     1      -5.752   3.132  25.695  0.00  0.00    +0.031 A 
ATOM     31  C   UNL     1      -5.538   3.903  25.497  0.00  0.00    +0.140 A 
ATOM     32  F   UNL     1      -6.040   4.531  25.685  0.00  0.00    -0.204 F 
ATOM     33  C   UNL     1      -4.823   4.048  25.113  0.00  0.00    +0.031 A 
ATOM     34  C   UNL     1      -4.321   3.420  24.925  0.00  0.00    +0.017 A 
ENDBRANCH  25  28
ENDBRANCH  19  20
ENDBRANCH  18  19
TORSDOF 7
ENDMDL
MODEL 3
REMARK VINA RESULT:     -11.8      2.248      4.059
REMARK  Name = 
REMARK  7 active torsions:
REMARK  status: ('A' for Active; 'I' for Inactive)
REMARK    1  A    between atoms: O_2  and  C_3
REMARK    2  A    between atoms: C_6  and  C_9
REMARK    3  A    between atoms: C_11  and  C_12
REMARK    4  A    between atoms: C_12  and  C_13
REMARK    5  A    between atoms: C_18  and  C_19
REMARK    6  A    between atoms: C_19  and  C_20
REMARK    7  A    between atoms: N_25  and  C_28
REMARK                            x       y       z     vdW  Elec       q    Type
REMARK                         _______ _______ _______ _____ _____    ______ ____
ROOT
ATOM     13  C   UNL     1      -0.928   3.359  25.270  0.00  0.00    +0.024 C 
ATOM     14  C   UNL     1      -0.782   4.096  24.931  0.00  0.00    +0.089 C 
ATOM     15  N   UNL     1      -0.274   4.161  24.285  0.00  0.00    -0.218 NA
ATOM     16  C   UNL     1       0.089   3.486  23.977  0.00  0.00    +0.089 C 
ATOM     17  C   UNL     1      -0.056   2.748  24.316  0.00  0.00    +0.019 C 
ATOM     18  C   UNL     1      -0.565   2.684  24.963  0.00  0.00    +0.012 C 
ENDROOT
BRANCH  13  12
ATOM     12  C   UNL     1      -1.436   3.294  25.917  0.00  0.00    +0.051 C 
BRANCH  12  11
ATOM      9  C   UNL     1      -3.545   3.454  25.629  0.00  0.00    +0.177 A 
ATOM     10  C   UNL     1      -2.852   3.006  25.645  0.00  0.00    +0.058 A 
ATOM     11  C   UNL     1      -2.229   3.509  25.840  0.00  0.00    +0.101 A 
ATOM     35  N   UNL     1      -2.537   4.268  25.946  0.00  0.00    -0.081 NA
ATOM     36  O   UNL     1      -3.350   4.233  25.815  0.00  0.00    -0.354 OA
BRANCH   9   6
ATOM      3  C   UNL     1      -5.812   2.604  25.114  0.00  0.00    +0.139 A 
ATOM      4  C   UNL     1      -5.687   3.060  25.791  0.00  0.00    +0.037 A 
ATOM      5  C   UNL     1      -4.931   3.343  25.963  0.00  0.00    +0.006 A 
ATOM      6  C   UNL     1      -4.301   3.171  25.458  0.00  0.00    +0.037 A 
ATOM      7  C   UNL     1      -4.428   2.715  24.781  0.00  0.00    +0.006 A 
ATOM      8  C   UNL     1      -5.183   2.432  24.610  0.00  0.00    +0.037 A 
BRANCH   3   2
ATOM      1  C   UNL     1      -6.697   1.511  24.864  0.00  0.00    +0.252 C 
ATOM      2  O   UNL     1      -6.568   2.321  24.943  0.00  0.00    -0.471 OA
ENDBRANCH   3   2
ENDBRANCH   9   6
ENDBRANCH  12  11
ENDBRANCH  13  12
BRANCH  18  19
ATOM     19  C   UNL     1      -0.710   1.946  25.302  0.00  0.00    +0.085 C 
BRANCH  19  20
ATOM     20  C   UNL     1      -0.398   1.265  24.956  0.00  0.00    +0.226 C 
ATOM     21  O   UNL     1       0.374   1.266  24.666  0.00  0.00    -0.275 OA
ATOM     22  N   UNL     1      -0.859   0.583  24.900  0.00  0.00    -0.276 N 
ATOM     23  C   UNL     1      -0.547  -0.098  24.554  0.00  0.00    +0.115 C 
ATOM     24  C   UNL     1      -1.008  -0.780  24.499  0.00  0.00    +0.112 C 
ATOM     25  N   UNL     1      -1.780  -0.781  24.788  0.00  0.00    -0.304 N 
ATOM     26  C   UNL     1      -2.092  -0.099  25.134  0.00  0.00    +0.112 C 
ATOM     27  C   UNL     1      -1.632   0.582  25.190  0.00  0.00    +0.115 C 
BRANCH  25  28
ATOM     28  C   UNL     1      -2.242  -1.463  24.733  0.00  0.00    +0.048 A 
ATOM     29  C   UNL     1      -3.061  -1.413  24.808  0.00  0.00    +0.017 A 
ATOM     30  C   UNL     1      -3.523  -2.096  24.752  0.00  0.00    +0.031 A 
ATOM     31  C   UNL     1      -3.164  -2.826  24.621  0.00  0.00    +0.140 A 
ATOM     32  F   UNL     1      -3.625  -3.509  24.566  0.00  0.00    -0.204 F 
ATOM     33  C   UNL     1      -2.344  -2.876  24.546  0.00  0.00    +0.031 A 
ATOM     34  C   UNL     1      -1.883  -2.194  24.602  0.00  0.00    +0.017 A 
ENDBRANCH  25  28
ENDBRANCH  19  20
ENDBRANCH  18  19
TORSDOF 7
ENDMDL
MODEL 4
REMARK VINA RESULT:     -11.3      2.355      4.554
REMARK  Name = 
REMARK  7 active torsions:
REMARK  status: ('A' for Active; 'I' for Inactive)
REMARK    1  A    between atoms: O_2  and  C_3
REMARK    2  A    between atoms: C_6  and  C_9
REMARK    3  A    between atoms: C_11  and  C_12
REMARK    4  A    between atoms: C_12  and  C_13
REMARK    5  A    between atoms: C_18  and  C_19
REMARK    6  A    between atoms: C_19  and  C_20
REMARK    7  A    between atoms: N_25  and  C_28
REMARK                            x       y       z     vdW  Elec       q    Type
REMARK                         _______ _______ _______ _____ _____    ______ ____
ROOT
ATOM     13  C   UNL     1      -4.656   3.358  24.856  0.00  0.00    +0.024 C 
ATOM     14  C   UNL     1      -4.959   3.999  25.277  0.00  0.00    +0.089 C 
ATOM     15  N   UNL     1      -5.603   3.895  25.782  0.00  0.00    -0.218 NA
ATOM     16  C   UNL     1      -5.943   3.147  25.866  0.00  0.00    +0.089 C 
ATOM     17  C   UNL     1      -5.639   2.506  25.445  0.00  0.00    +0.019 C 
ATOM     18  C   UNL     1      -4.996   2.611  24.940  0.00  0.00    +0.012 C 
ENDROOT
BRANCH  13  12
ATOM     12  C   UNL     1      -4.012   3.463  24.350  0.00  0.00    +0.051 C 
BRANCH  12  11
ATOM      9  C   UNL     1      -2.056   3.696  25.173  0.00  0.00    +0.177 A 
ATOM     10  C   UNL     1      -2.677   3.217  24.914  0.00  0.00    +0.058 A 
ATOM     11  C   UNL     1      -3.285   3.709  24.655  0.00  0.00    +0.101 A 
ATOM     35  N   UNL     1      -3.042   4.491  24.753  0.00  0.00    -0.081 NA
ATOM     36  O   UNL     1      -2.282   4.482  25.074  0.00  0.00    -0.354 OA
BRANCH   9   6
ATOM      3  C   UNL     1       0.104   2.907  26.088  0.00  0.00    +0.139 A 
ATOM      4  C   UNL     1      -0.604   2.632  26.409  0.00  0.00    +0.037 A 
ATOM      5  C   UNL     1      -1.324   2.895  26.104  0.00  0.00    +0.006 A 
ATOM      6  C   UNL     1      -1.336   3.433  25.478  0.00  0.00    +0.037 A 
ATOM      7  C   UNL     1      -0.627   3.707  25.158  0.00  0.00    +0.006 A 
ATOM      8  C   UNL     1       0.093   3.444  25.463  0.00  0.00    +0.037 A 
BRANCH   3   2
ATOM      1  C   UNL     1       0.917   2.545  27.207  0.00  0.00    +0.252 C 
ATOM      2  O   UNL     1       0.824   2.644  26.393  0.00  0.00    -0.471 OA
ENDBRANCH   3   2
ENDBRANCH   9   6
ENDBRANCH  12  11
ENDBRANCH  13  12
BRANCH  18  19
ATOM     19  C   UNL     1      -4.693   1.969  24.518  0.00  0.00    +0.085 C 
BRANCH  19  20
ATOM     20  C   UNL     1      -5.014   1.218  24.625  0.00  0.00    +0.226 C 
ATOM     21  O   UNL     1      -5.823   1.130  24.764  0.00  0.00    -0.275 OA
ATOM     22  N   UNL     1      -4.528   0.552  24.592  0.00  0.00    -0.276 N 
ATOM     23  C   UNL     1      -4.849  -0.200  24.699  0.00  0.00    +0.115 C 
ATOM     24  C   UNL     1      -4.362  -0.865  24.666  0.00  0.00    +0.112 C 
ATOM     25  N   UNL     1      -3.554  -0.778  24.527  0.00  0.00    -0.304 N 
ATOM     26  C   UNL     1      -3.232  -0.025  24.420  0.00  0.00    +0.112 C 
ATOM     27  C   UNL     1      -3.719   0.640  24.453  0.00  0.00    +0.115 C 
BRANCH  25  28
ATOM     28  C   UNL     1      -3.066  -1.443  24.494  0.00  0.00    +0.048 A 
ATOM     29  C   UNL     1      -2.257  -1.368  24.632  0.00  0.00    +0.017 A 
ATOM     30  C   UNL     1      -1.769  -2.033  24.599  0.00  0.00    +0.031 A 
ATOM     31  C   UNL     1      -2.092  -2.773  24.428  0.00  0.00    +0.140 A 
ATOM     32  F   UNL     1      -1.604  -3.438  24.395  0.00  0.00    -0.204 F 
ATOM     33  C   UNL     1      -2.901  -2.848  24.290  0.00  0.00    +0.031 A 
ATOM     34  C   UNL     1      -3.389  -2.183  24.323  0.00  0.00    +0.017 A 
ENDBRANCH  25  28
ENDBRANCH  19  20
ENDBRANCH  18  19
TORSDOF 7
ENDMDL
MODEL 5
REMARK VINA RESULT:     -11.0      2.174      4.977
REMARK  Name = 
REMARK  7 active torsions:
REMARK  status: ('A' for Active; 'I' for Inactive)
REMARK    1  A    between atoms: O_2  and  C_3
REMARK    2  A    between atoms: C_6  and  C_9
REMARK    3  A    between atoms: C_11  and  C_12
REMARK    4  A    between atoms: C_12  and  C_13
REMARK    5  A    between atoms: C_18  and  C_19
REMARK    6  A    between atoms: C_19  and  C_20
REMARK    7  A    between atoms: N_25  and  C_28
REMARK                            x       y       z     vdW  Elec       q    Type
REMARK                         _______ _______ _______ _____ _____    ______ ____
ROOT
ATOM     13  C   UNL     1      -3.167  -1.242  24.830  0.00  0.00    +0.024 C 
ATOM     14  C   UNL     1      -3.297  -1.951  24.430  0.00  0.00    +0.089 C 
ATOM     15  N   UNL     1      -3.975  -2.049  23.970  0.00  0.00    -0.218 NA
ATOM     16  C   UNL     1      -4.524  -1.435  23.911  0.00  0.00    +0.089 C 
ATOM     17  C   UNL     1      -4.394  -0.725  24.312  0.00  0.00    +0.019 C 
ATOM     18  C   UNL     1      -3.716  -0.628  24.771  0.00  0.00    +0.012 C 
ENDROOT
BRANCH  13  12
ATOM     12  C   UNL     1      -2.488  -1.144  25.289  0.00  0.00    +0.051 C 
BRANCH  12  11
ATOM      9  C   UNL     1      -0.589  -0.994  24.326  0.00  0.00    +0.177 A 
ATOM     10  C   UNL     1      -1.293  -0.652  24.589  0.00  0.00    +0.058 A 
ATOM     11  C   UNL     1      -1.743  -1.242  24.949  0.00  0.00    +0.101 A 
ATOM     35  N   UNL     1      -1.319  -1.948  24.908  0.00  0.00    -0.081 NA
ATOM     36  O   UNL     1      -0.606  -1.795  24.523  0.00  0.00    -0.354 OA
BRANCH   9   6
ATOM      3  C   UNL     1       1.247   0.179  23.152  0.00  0.00    +0.139 A 
ATOM      4  C   UNL     1       0.811   0.572  23.731  0.00  0.00    +0.037 A 
ATOM      5  C   UNL     1       0.199   0.182  24.123  0.00  0.00    +0.006 A 
ATOM      6  C   UNL     1       0.023  -0.603  23.935  0.00  0.00    +0.037 A 
ATOM      7  C   UNL     1       0.460  -0.996  23.356  0.00  0.00    +0.006 A 
ATOM      8  C   UNL     1       1.072  -0.605  22.965  0.00  0.00    +0.037 A 
BRANCH   3   2
ATOM      1  C   UNL     1       2.508   0.144  22.479  0.00  0.00    +0.252 C 
ATOM      2  O   UNL     1       1.860   0.569  22.761  0.00  0.00    -0.471 OA
ENDBRANCH   3   2
ENDBRANCH   9   6
ENDBRANCH  12  11
ENDBRANCH  13  12
BRANCH  18  19
ATOM     19  C   UNL     1      -3.587   0.082  25.171  0.00  0.00    +0.085 C 
BRANCH  19  20
ATOM     20  C   UNL     1      -3.986   0.765  24.938  0.00  0.00    +0.226 C 
ATOM     21  O   UNL     1      -4.759   0.715  24.652  0.00  0.00    -0.275 OA
ATOM     22  N   UNL     1      -3.613   1.499  24.991  0.00  0.00    -0.276 N 
ATOM     23  C   UNL     1      -4.013   2.182  24.758  0.00  0.00    +0.115 C 
ATOM     24  C   UNL     1      -3.639   2.916  24.811  0.00  0.00    +0.112 C 
ATOM     25  N   UNL     1      -2.868   2.967  25.097  0.00  0.00    -0.304 N 
ATOM     26  C   UNL     1      -2.468   2.283  25.330  0.00  0.00    +0.112 C 
ATOM     27  C   UNL     1      -2.841   1.549  25.277  0.00  0.00    +0.115 C 
BRANCH  25  28
ATOM     28  C   UNL     1      -2.494   3.701  25.151  0.00  0.00    +0.048 A 
ATOM     29  C   UNL     1      -1.727   3.795  24.863  0.00  0.00    +0.017 A 
ATOM     30  C   UNL     1      -1.353   4.529  24.916  0.00  0.00    +0.031 A 
ATOM     31  C   UNL     1      -1.747   5.168  25.257  0.00  0.00    +0.140 A 
ATOM     32  F   UNL     1      -1.374   5.902  25.310  0.00  0.00    -0.204 F 
ATOM     33  C   UNL     1      -2.515   5.074  25.545  0.00  0.00    +0.031 A 
ATOM     34  C   UNL     1      -2.888   4.340  25.491  0.00  0.00    +0.017 A 
ENDBRANCH  25  28
ENDBRANCH  19  20
ENDBRANCH  18  19
TORSDOF 7
ENDMDL
MODEL 6
REMARK VINA RESULT:     -11.0      1.731      4.632
REMARK  Name = 
REMARK  7 active torsions:
REMARK  status: ('A' for Active; 'I' for Inactive)
REMARK    1  A    between atoms: O_2  and  C_3
REMARK    2  A    between atoms: C_6  and  C_9
REMARK    3  A    between atoms: C_11  and  C_12
REMARK    4  A    between atoms: C_12  and  C_13
REMARK    5  A    between atoms: C_18  and  C_19
REMARK    6  A    between atoms: C_19  and  C_20
REMARK    7  A    between atoms: N_25  and  C_28
REMARK                            x       y       z     vdW  Elec       q    Type
REMARK                         _______ _______ _______ _____ _____    ______ ____
ROOT
ATOM     13  C   UNL     1      -2.448   3.552  24.935  0.00  0.00    +0.024 C 
ATOM     14  C   UNL     1      -2.179   4.162  25.420  0.00  0.00    +0.089 C 
ATOM     15  N   UNL     1      -2.614   4.386  26.084  0.00  0.00    -0.218 NA
ATOM     16  C   UNL     1      -3.320   3.997  26.263  0.00  0.00    +0.089 C 
ATOM     17  C   UNL     1      -3.590   3.386  25.778  0.00  0.00    +0.019 C 
ATOM     18  C   UNL     1      -3.154   3.164  25.114  0.00  0.00    +0.012 C 
ENDROOT
BRANCH  13  12
ATOM     12  C   UNL     1      -2.012   3.328  24.271  0.00  0.00    +0.051 C 
BRANCH  12  11
ATOM      9  C   UNL     1      -0.195   2.210  24.206  0.00  0.00    +0.177 A 
ATOM     10  C   UNL     1      -0.958   2.362  23.930  0.00  0.00    +0.058 A 
ATOM     11  C   UNL     1      -1.264   2.993  24.364  0.00  0.00    +0.101 A 
ATOM     35  N   UNL     1      -0.691   3.230  24.908  0.00  0.00    -0.081 NA
ATOM     36  O   UNL     1      -0.031   2.746  24.811  0.00  0.00    -0.354 OA
BRANCH   9   6
ATOM      3  C   UNL     1       1.331   0.451  23.367  0.00  0.00    +0.139 A 
ATOM      4  C   UNL     1       0.537   0.275  23.507  0.00  0.00    +0.037 A 
ATOM      5  C   UNL     1       0.028   0.861  23.786  0.00  0.00    +0.006 A 
ATOM      6  C   UNL     1       0.314   1.623  23.927  0.00  0.00    +0.037 A 
ATOM      7  C   UNL     1       1.108   1.798  23.787  0.00  0.00    +0.006 A 
ATOM      8  C   UNL     1       1.617   1.212  23.507  0.00  0.00    +0.037 A 
BRANCH   3   2
ATOM      1  C   UNL     1       2.340   0.021  22.450  0.00  0.00    +0.252 C 
ATOM      2  O   UNL     1       1.840  -0.135  23.088  0.00  0.00    -0.471 OA
ENDBRANCH   3   2
ENDBRANCH   9   6
ENDBRANCH  12  11
ENDBRANCH  13  12
BRANCH  18  19
ATOM     19  C   UNL     1      -3.423   2.552  24.629  0.00  0.00    +0.085 C 
BRANCH  19  20
ATOM     20  C   UNL     1      -4.065   2.092  24.866  0.00  0.00    +0.226 C 
ATOM     21  O   UNL     1      -4.735   2.451  25.188  0.00  0.00    -0.275 OA
ATOM     22  N   UNL     1      -4.039   1.272  24.780  0.00  0.00    -0.276 N 
ATOM     23  C   UNL     1      -4.681   0.811  25.016  0.00  0.00    +0.115 C 
ATOM     24  C   UNL     1      -4.653  -0.010  24.930  0.00  0.00    +0.112 C 
ATOM     25  N   UNL     1      -3.984  -0.368  24.607  0.00  0.00    -0.304 N 
ATOM     26  C   UNL     1      -3.342   0.093  24.371  0.00  0.00    +0.112 C 
ATOM     27  C   UNL     1      -3.369   0.913  24.457  0.00  0.00    +0.115 C 
BRANCH  25  28
ATOM     28  C   UNL     1      -3.957  -1.189  24.521  0.00  0.00    +0.048 A 
ATOM     29  C   UNL     1      -3.563  -1.649  25.080  0.00  0.00    +0.017 A 
ATOM     30  C   UNL     1      -3.536  -2.469  24.994  0.00  0.00    +0.031 A 
ATOM     31  C   UNL     1      -3.902  -2.828  24.349  0.00  0.00    +0.140 A 
ATOM     32  F   UNL     1      -3.875  -3.649  24.262  0.00  0.00    -0.204 F 
ATOM     33  C   UNL     1      -4.296  -2.368  23.789  0.00  0.00    +0.031 A 
ATOM     34  C   UNL     1      -4.324  -1.548  23.875  0.00  0.00    +0.017 A 
ENDBRANCH  25  28
ENDBRANCH  19  20
ENDBRANCH  18  19
TORSDOF 7
ENDMDL
MODEL 7
REMARK VINA RESULT:     -10.9     14.217     16.015
REMARK  Name = 
REMARK  7 active torsions:
REMARK  status: ('A' for Active; 'I' for Inactive)
REMARK    1  A    between atoms: O_2  and  C_3
REMARK    2  A    between atoms: C_6  and  C_9
REMARK    3  A    between atoms: C_11  and  C_12
REMARK    4  A    between atoms: C_12  and  C_13
REMARK    5  A    between atoms: C_18  and  C_19
REMARK    6  A    between atoms: C_19  and  C_20
REMARK    7  A    between atoms: N_25  and  C_28
REMARK                            x       y       z     vdW  Elec       q    Type
REMARK                         _______ _______ _______ _____ _____    ______ ____
ROOT
ATOM     13  C   UNL     1      -2.911 -10.654  15.498  0.00  0.00    +0.024 C 
ATOM     14  C   UNL     1      -2.564 -10.625  16.246  0.00  0.00    +0.089 C 
ATOM     15  N   UNL     1      -1.752 -10.504  16.320  0.00  0.00    -0.218 NA
ATOM     16  C   UNL     1      -1.285 -10.412  15.646  0.00  0.00    +0.089 C 
ATOM     17  C   UNL     1      -1.632 -10.442  14.897  0.00  0.00    +0.019 C 
ATOM     18  C   UNL     1      -2.444 -10.562  14.823  0.00  0.00    +0.012 C 
ENDROOT
BRANCH  13  12
ATOM     12  C   UNL     1      -3.724 -10.775  15.423  0.00  0.00    +0.051 C 
BRANCH  12  11
ATOM      9  C   UNL     1      -5.292 -10.275  16.782  0.00  0.00    +0.177 A 
ATOM     10  C   UNL     1      -5.006 -10.362  16.013  0.00  0.00    +0.058 A 
ATOM     11  C   UNL     1      -4.223 -10.618  16.061  0.00  0.00    +0.101 A 
ATOM     35  N   UNL     1      -4.026 -10.689  16.859  0.00  0.00    -0.081 NA
ATOM     36  O   UNL     1      -4.687 -10.477  17.304  0.00  0.00    -0.354 OA
BRANCH   9   6
ATOM      3  C   UNL     1      -7.570  -9.538  17.410  0.00  0.00    +0.139 A 
ATOM      4  C   UNL     1      -7.169 -10.083  17.882  0.00  0.00    +0.037 A 
ATOM      5  C   UNL     1      -6.410 -10.329  17.673  0.00  0.00    +0.006 A 
ATOM      6  C   UNL     1      -6.052 -10.030  16.991  0.00  0.00    +0.037 A 
ATOM      7  C   UNL     1      -6.454  -9.485  16.520  0.00  0.00    +0.006 A 
ATOM      8  C   UNL     1      -7.213  -9.240  16.729  0.00  0.00    +0.037 A 
BRANCH   3   2
ATOM      1  C   UNL     1      -8.937  -9.846  17.692  0.00  0.00    +0.252 C 
ATOM      2  O   UNL     1      -8.330  -9.293  17.619  0.00  0.00    -0.471 OA
ENDBRANCH   3   2
ENDBRANCH   9   6
ENDBRANCH  12  11
ENDBRANCH  13  12
BRANCH  18  19
ATOM     19  C   UNL     1      -2.791 -10.591  14.075  0.00  0.00    +0.085 C 
BRANCH  19  20
ATOM     20  C   UNL     1      -2.315 -10.607  13.401  0.00  0.00    +0.226 C 
ATOM     21  O   UNL     1      -1.511 -10.780  13.466  0.00  0.00    -0.275 OA
ATOM     22  N   UNL     1      -2.643 -10.448  12.661  0.00  0.00    -0.276 N 
ATOM     23  C   UNL     1      -2.168 -10.463  11.987  0.00  0.00    +0.115 C 
ATOM     24  C   UNL     1      -2.497 -10.305  11.247  0.00  0.00    +0.112 C 
ATOM     25  N   UNL     1      -3.300 -10.131  11.181  0.00  0.00    -0.304 N 
ATOM     26  C   UNL     1      -3.776 -10.116  11.856  0.00  0.00    +0.112 C 
ATOM     27  C   UNL     1      -3.448 -10.275  12.595  0.00  0.00    +0.115 C 
BRANCH  25  28
ATOM     28  C   UNL     1      -3.629  -9.973  10.441  0.00  0.00    +0.048 A 
ATOM     29  C   UNL     1      -3.638  -9.201  10.151  0.00  0.00    +0.017 A 
ATOM     30  C   UNL     1      -3.967  -9.042   9.410  0.00  0.00    +0.031 A 
ATOM     31  C   UNL     1      -4.286  -9.655   8.961  0.00  0.00    +0.140 A 
ATOM     32  F   UNL     1      -4.615  -9.497   8.221  0.00  0.00    -0.204 F 
ATOM     33  C   UNL     1      -4.278 -10.427   9.251  0.00  0.00    +0.031 A 
ATOM     34  C   UNL     1      -3.949 -10.586   9.991  0.00  0.00    +0.017 A 
ENDBRANCH  25  28
ENDBRANCH  19  20
ENDBRANCH  18  19
TORSDOF 7
ENDMDL
MODEL 8
REMARK VINA RESULT:     -10.8      2.245      4.241
REMARK  Name = 
REMARK  7 active torsions:
REMARK  status: ('A' for Active; 'I' for Inactive)
REMARK    1  A    between atoms: O_2  and  C_3
REMARK    2  A    between atoms: C_6  and  C_9
REMARK    3  A    between atoms: C_11  and  C_12
REMARK    4  A    between atoms: C_12  and  C_13
REMARK    5  A    between atoms: C_18  and  C_19
REMARK    6  A    between atoms: C_19  and  C_20
REMARK    7  A    between atoms: N_25  and  C_28
REMARK                            x       y       z     vdW  Elec       q    Type
REMARK                         _______ _______ _______ _____ _____    ______ ____
ROOT
ATOM     13  C   UNL     1      -2.173  -1.436  25.100  0.00  0.00    +0.024 C 
ATOM     14  C   UNL     1      -2.418  -2.154  24.778  0.00  0.00    +0.089 C 
ATOM     15  N   UNL     1      -1.935  -2.553  24.241  0.00  0.00    -0.218 NA
ATOM     16  C   UNL     1      -1.205  -2.233  24.027  0.00  0.00    +0.089 C 
ATOM     17  C   UNL     1      -0.959  -1.514  24.350  0.00  0.00    +0.019 C 
ATOM     18  C   UNL     1      -1.443  -1.116  24.886  0.00  0.00    +0.012 C 
ENDROOT
BRANCH  13  12
ATOM     12  C   UNL     1      -2.657  -1.036  25.637  0.00  0.00    +0.051 C 
BRANCH  12  11
ATOM      9  C   UNL     1      -4.379   0.134  25.167  0.00  0.00    +0.177 A 
ATOM     10  C   UNL     1      -3.634   0.055  25.513  0.00  0.00    +0.058 A 
ATOM     11  C   UNL     1      -3.374  -0.717  25.384  0.00  0.00    +0.101 A 
ATOM     35  N   UNL     1      -3.958  -1.115  24.958  0.00  0.00    -0.081 NA
ATOM     36  O   UNL     1      -4.579  -0.589  24.824  0.00  0.00    -0.354 OA
BRANCH   9   6
ATOM      3  C   UNL     1      -5.769   2.182  25.158  0.00  0.00    +0.139 A 
ATOM      4  C   UNL     1      -5.127   2.117  24.644  0.00  0.00    +0.037 A 
ATOM      5  C   UNL     1      -4.664   1.435  24.647  0.00  0.00    +0.006 A 
ATOM      6  C   UNL     1      -4.842   0.816  25.164  0.00  0.00    +0.037 A 
ATOM      7  C   UNL     1      -5.484   0.882  25.678  0.00  0.00    +0.006 A 
ATOM      8  C   UNL     1      -5.947   1.565  25.675  0.00  0.00    +0.037 A 
BRANCH   3   2
ATOM      1  C   UNL     1      -5.928   3.571  25.452  0.00  0.00    +0.252 C 
ATOM      2  O   UNL     1      -6.232   2.864  25.155  0.00  0.00    -0.471 OA
ENDBRANCH   3   2
ENDBRANCH   9   6
ENDBRANCH  12  11
ENDBRANCH  13  12
BRANCH  18  19
ATOM     19  C   UNL     1      -1.197  -0.397  25.208  0.00  0.00    +0.085 C 
BRANCH  19  20
ATOM     20  C   UNL     1      -0.637   0.062  24.813  0.00  0.00    +0.226 C 
ATOM     21  O   UNL     1      -0.030  -0.302  24.388  0.00  0.00    -0.275 OA
ATOM     22  N   UNL     1      -0.682   0.885  24.842  0.00  0.00    -0.276 N 
ATOM     23  C   UNL     1      -0.122   1.344  24.447  0.00  0.00    +0.115 C 
ATOM     24  C   UNL     1      -0.169   2.167  24.477  0.00  0.00    +0.112 C 
ATOM     25  N   UNL     1      -0.774   2.531  24.902  0.00  0.00    -0.304 N 
ATOM     26  C   UNL     1      -1.335   2.072  25.297  0.00  0.00    +0.112 C 
ATOM     27  C   UNL     1      -1.289   1.249  25.268  0.00  0.00    +0.115 C 
BRANCH  25  28
ATOM     28  C   UNL     1      -0.821   3.355  24.932  0.00  0.00    +0.048 A 
ATOM     29  C   UNL     1      -1.467   3.718  25.294  0.00  0.00    +0.017 A 
ATOM     30  C   UNL     1      -1.513   4.542  25.324  0.00  0.00    +0.031 A 
ATOM     31  C   UNL     1      -0.914   5.001  24.992  0.00  0.00    +0.140 A 
ATOM     32  F   UNL     1      -0.960   5.824  25.022  0.00  0.00    -0.204 F 
ATOM     33  C   UNL     1      -0.268   4.637  24.630  0.00  0.00    +0.031 A 
ATOM     34  C   UNL     1      -0.222   3.814  24.600  0.00  0.00    +0.017 A 
ENDBRANCH  25  28
ENDBRANCH  19  20
ENDBRANCH  18  19
TORSDOF 7
ENDMDL
MODEL 9
REMARK VINA RESULT:     -10.7      1.471      4.020
REMARK  Name = 
REMARK  7 active torsions:
REMARK  status: ('A' for Active; 'I' for Inactive)
REMARK    1  A    between atoms: O_2  and  C_3
REMARK    2  A    between atoms: C_6  and  C_9
REMARK    3  A    between atoms: C_11  and  C_12
REMARK    4  A    between atoms: C_12  and  C_13
REMARK    5  A    between atoms: C_18  and  C_19
REMARK    6  A    between atoms: C_19  and  C_20
REMARK    7  A    between atoms: N_25  and  C_28
REMARK                            x       y       z     vdW  Elec       q    Type
REMARK                         _______ _______ _______ _____ _____    ______ ____
ROOT
ATOM     13  C   UNL     1      -3.385  -0.174  24.878  0.00  0.00    +0.024 C 
ATOM     14  C   UNL     1      -4.026  -0.342  25.369  0.00  0.00    +0.089 C 
ATOM     15  N   UNL     1      -3.978  -0.958  25.916  0.00  0.00    -0.218 NA
ATOM     16  C   UNL     1      -3.287  -1.406  25.972  0.00  0.00    +0.089 C 
ATOM     17  C   UNL     1      -2.645  -1.238  25.481  0.00  0.00    +0.019 C 
ATOM     18  C   UNL     1      -2.694  -0.622  24.935  0.00  0.00    +0.012 C 
ENDROOT
BRANCH  13  12
ATOM     12  C   UNL     1      -3.433   0.441  24.330  0.00  0.00    +0.051 C 
BRANCH  12  11
ATOM      9  C   UNL     1      -3.309   2.490  24.919  0.00  0.00    +0.177 A 
ATOM     10  C   UNL     1      -2.961   1.802  24.623  0.00  0.00    +0.058 A 
ATOM     11  C   UNL     1      -3.540   1.216  24.592  0.00  0.00    +0.101 A 
ATOM     35  N   UNL     1      -4.246   1.541  24.868  0.00  0.00    -0.081 NA
ATOM     36  O   UNL     1      -4.104   2.328  25.070  0.00  0.00    -0.354 OA
BRANCH   9   6
ATOM      3  C   UNL     1      -2.170   4.655  25.287  0.00  0.00    +0.139 A 
ATOM      4  C   UNL     1      -1.915   3.982  25.691  0.00  0.00    +0.037 A 
ATOM      5  C   UNL     1      -2.295   3.260  25.568  0.00  0.00    +0.006 A 
ATOM      6  C   UNL     1      -2.929   3.212  25.042  0.00  0.00    +0.037 A 
ATOM      7  C   UNL     1      -3.183   3.885  24.639  0.00  0.00    +0.006 A 
ATOM      8  C   UNL     1      -2.803   4.607  24.761  0.00  0.00    +0.037 A 
BRANCH   3   2
ATOM      1  C   UNL     1      -1.099   5.556  24.996  0.00  0.00    +0.252 C 
ATOM      2  O   UNL     1      -1.790   5.377  25.410  0.00  0.00    -0.471 OA
ENDBRANCH   3   2
ENDBRANCH   9   6
ENDBRANCH  12  11
ENDBRANCH  13  12
BRANCH  18  19
ATOM     19  C   UNL     1      -2.052  -0.455  24.444  0.00  0.00    +0.085 C 
BRANCH  19  20
ATOM     20  C   UNL     1      -1.403  -0.963  24.426  0.00  0.00    +0.226 C 
ATOM     21  O   UNL     1      -1.466  -1.725  24.737  0.00  0.00    -0.275 OA
ATOM     22  N   UNL     1      -0.690  -0.711  24.096  0.00  0.00    -0.276 N 
ATOM     23  C   UNL     1      -0.041  -1.220  24.079  0.00  0.00    +0.115 C 
ATOM     24  C   UNL     1       0.672  -0.966  23.749  0.00  0.00    +0.112 C 
ATOM     25  N   UNL     1       0.736  -0.206  23.438  0.00  0.00    -0.304 N 
ATOM     26  C   UNL     1       0.086   0.303  23.456  0.00  0.00    +0.112 C 
ATOM     27  C   UNL     1      -0.627   0.051  23.785  0.00  0.00    +0.115 C 
BRANCH  25  28
ATOM     28  C   UNL     1       1.449   0.048  23.108  0.00  0.00    +0.048 A 
ATOM     29  C   UNL     1       1.879   0.651  23.471  0.00  0.00    +0.017 A 
ATOM     30  C   UNL     1       2.592   0.904  23.141  0.00  0.00    +0.031 A 
ATOM     31  C   UNL     1       2.874   0.554  22.450  0.00  0.00    +0.140 A 
ATOM     32  F   UNL     1       3.587   0.807  22.120  0.00  0.00    -0.204 F 
ATOM     33  C   UNL     1       2.444  -0.049  22.087  0.00  0.00    +0.031 A 
ATOM     34  C   UNL     1       1.731  -0.302  22.417  0.00  0.00    +0.017 A 
ENDBRANCH  25  28
ENDBRANCH  19  20
ENDBRANCH  18  19
TORSDOF 7
ENDMDL
MODEL 10
REMARK VINA RESULT:      -9.5     14.157     15.821
REMARK  Name = 
REMARK  7 active torsions:
REMARK  status: ('A' for Active; 'I' for Inactive)
REMARK    1  A    between atoms: O_2  and  C_3
REMARK    2  A    between atoms: C_6  and  C_9
REMARK    3  A    between atoms: C_11  and  C_12
REMARK    4  A    between atoms: C_12  and  C_13
REMARK    5  A    between atoms: C_18  and  C_19
REMARK    6  A    between atoms: C_19  and  C_20
REMARK    7  A    between atoms: N_25  and  C_28
REMARK                            x       y       z     vdW  Elec       q    Type
REMARK                         _______ _______ _______ _____ _____    ______ ____
ROOT
ATOM     13  C   UNL     1      -5.352 -10.436  15.995  0.00  0.00    +0.024 C 
ATOM     14  C   UNL     1      -5.301 -10.410  16.818  0.00  0.00    +0.089 C 
ATOM     15  N   UNL     1      -4.563 -10.377  17.185  0.00  0.00    -0.218 NA
ATOM     16  C   UNL     1      -3.875 -10.369  16.728  0.00  0.00    +0.089 C 
ATOM     17  C   UNL     1      -3.927 -10.394  15.905  0.00  0.00    +0.019 C 
ATOM     18  C   UNL     1      -4.665 -10.428  15.538  0.00  0.00    +0.012 C 
ENDROOT
BRANCH  13  12
ATOM     12  C   UNL     1      -6.091 -10.469  15.628  0.00  0.00    +0.051 C 
BRANCH  12  11
ATOM      9  C   UNL     1      -7.888  -9.737  16.516  0.00  0.00    +0.177 A 
ATOM     10  C   UNL     1      -7.277  -9.670  15.964  0.00  0.00    +0.058 A 
ATOM     11  C   UNL     1      -6.774 -10.315  16.063  0.00  0.00    +0.101 A 
ATOM     35  N   UNL     1      -7.073 -10.781  16.675  0.00  0.00    -0.081 NA
ATOM     36  O   UNL     1      -7.761 -10.424  16.954  0.00  0.00    -0.354 OA
BRANCH   9   6
ATOM      3  C   UNL     1      -9.770  -8.155  16.800  0.00  0.00    +0.139 A 
ATOM      4  C   UNL     1      -9.422  -8.252  16.058  0.00  0.00    +0.037 A 
ATOM      5  C   UNL     1      -8.795  -8.779  15.964  0.00  0.00    +0.006 A 
ATOM      6  C   UNL     1      -8.516  -9.209  16.610  0.00  0.00    +0.037 A 
ATOM      7  C   UNL     1      -8.864  -9.112  17.352  0.00  0.00    +0.006 A 
ATOM      8  C   UNL     1      -9.491  -8.584  17.446  0.00  0.00    +0.037 A 
BRANCH   3   2
ATOM      1  C   UNL     1     -10.475  -6.982  16.387  0.00  0.00    +0.252 C 
ATOM      2  O   UNL     1     -10.397  -7.627  16.895  0.00  0.00    -0.471 OA
ENDBRANCH   3   2
ENDBRANCH   9   6
ENDBRANCH  12  11
ENDBRANCH  13  12
BRANCH  18  19
ATOM     19  C   UNL     1      -4.716 -10.453  14.715  0.00  0.00    +0.085 C 
BRANCH  19  20
ATOM     20  C   UNL     1      -4.033 -10.548  14.262  0.00  0.00    +0.226 C 
ATOM     21  O   UNL     1      -3.328 -10.781  14.623  0.00  0.00    -0.275 OA
ATOM     22  N   UNL     1      -4.054 -10.409  13.449  0.00  0.00    -0.276 N 
ATOM     23  C   UNL     1      -3.371 -10.504  12.997  0.00  0.00    +0.115 C 
ATOM     24  C   UNL     1      -3.393 -10.365  12.184  0.00  0.00    +0.112 C 
ATOM     25  N   UNL     1      -4.097 -10.132  11.824  0.00  0.00    -0.304 N 
ATOM     26  C   UNL     1      -4.780 -10.037  12.277  0.00  0.00    +0.112 C 
ATOM     27  C   UNL     1      -4.759 -10.176  13.089  0.00  0.00    +0.115 C 
BRANCH  25  28
ATOM     28  C   UNL     1      -4.119  -9.993  11.010  0.00  0.00    +0.048 A 
ATOM     29  C   UNL     1      -3.971  -9.236  10.718  0.00  0.00    +0.017 A 
ATOM     30  C   UNL     1      -3.992  -9.098   9.904  0.00  0.00    +0.031 A 
ATOM     31  C   UNL     1      -4.162  -9.715   9.385  0.00  0.00    +0.140 A 
ATOM     32  F   UNL     1      -4.184  -9.576   8.571  0.00  0.00    -0.204 F 
ATOM     33  C   UNL     1      -4.310 -10.472   9.678  0.00  0.00    +0.031 A 
ATOM     34  C   UNL     1      -4.289 -10.611  10.491  0.00  0.00    +0.017 A 
ENDBRANCH  25  28
ENDBRANCH  19  20
ENDBRANCH  18  19
TORSDOF 7
ENDMDL
