MODEL 1
REMARK VINA RESULT:     -10.1      0.000      0.000
REMARK  Name = 
REMARK  6 active torsions:
REMARK  status: ('A' for Active; 'I' for Inactive)
REMARK    1  A    between atoms: O_2  and  C_3
REMARK    2  A    between atoms: C_6  and  S_9
REMARK    3  A    between atoms: S_9  and  N_12
REMARK    4  A    between atoms: N_12  and  C_13
REMARK    5  A    between atoms: C_15  and  C_19
REMARK    6  A    between atoms: C_21  and  C_24
REMARK                            x       y       z     vdW  Elec       q    Type
REMARK                         _______ _______ _______ _____ _____    ______ ____
ROOT
ATOM     13  C   UNL     1      -4.906   1.058  24.890  0.00  0.00    +0.115 C 
ATOM     14  C   UNL     1      -4.318   1.539  24.569  0.00  0.00    +0.046 C 
ATOM     15  C   UNL     1      -4.388   2.288  24.909  0.00  0.00    +0.139 C 
ATOM     16  N   UNL     1      -5.019   2.268  25.441  0.00  0.00    -0.264 NA
ATOM     17  C   UNL     1      -5.283   2.898  25.903  0.00  0.00    +0.090 C 
ATOM     18  C   UNL     1      -5.339   1.507  25.429  0.00  0.00    +0.092 C 
ENDROOT
BRANCH  15  19
ATOM     19  C   UNL     1      -3.911   2.940  24.747  0.00  0.00    +0.251 A 
ATOM     20  N   UNL     1      -3.131   3.045  24.995  0.00  0.00    -0.188 NA
ATOM     21  C   UNL     1      -2.868   3.773  24.708  0.00  0.00    +0.223 A 
ATOM     22  N   UNL     1      -3.485   4.118  24.283  0.00  0.00    -0.054 NA
ATOM     23  O   UNL     1      -4.130   3.604  24.307  0.00  0.00    -0.336 OA
BRANCH  21  24
ATOM     24  C   UNL     1      -2.119   4.099  24.826  0.00  0.00    +0.139 A 
ATOM     25  C   UNL     1      -2.045   4.879  25.084  0.00  0.00    +0.121 A 
ATOM     26  N   UNL     1      -1.296   5.204  25.202  0.00  0.00    -0.239 NA
ATOM     27  C   UNL     1      -0.622   4.750  25.062  0.00  0.00    +0.120 A 
ATOM     28  C   UNL     1      -0.696   3.970  24.805  0.00  0.00    +0.120 A 
ATOM     29  N   UNL     1      -1.445   3.644  24.687  0.00  0.00    -0.237 NA
ENDBRANCH  21  24
ENDBRANCH  15  19
BRANCH  13  12
ATOM     12  N   UNL     1      -5.038   0.265  24.705  0.00  0.00    -0.078 NA
BRANCH  12   9
ATOM      9  S   UNL     1      -4.420  -0.279  24.755  0.00  0.00    +0.077 S 
ATOM     10  O   UNL     1      -4.316  -0.235  23.939  0.00  0.00    -0.152 OA
ATOM     11  O   UNL     1      -4.524  -0.322  25.572  0.00  0.00    -0.152 OA
BRANCH   9   6
ATOM      3  C   UNL     1      -2.565  -1.911  24.903  0.00  0.00    +0.139 A 
ATOM      4  C   UNL     1      -3.131  -1.983  24.307  0.00  0.00    +0.038 A 
ATOM      5  C   UNL     1      -3.750  -1.439  24.258  0.00  0.00    +0.023 A 
ATOM      6  C   UNL     1      -3.802  -0.823  24.805  0.00  0.00    +0.124 A 
ATOM      7  C   UNL     1      -3.235  -0.751  25.400  0.00  0.00    +0.023 A 
ATOM      8  C   UNL     1      -2.617  -1.295  25.449  0.00  0.00    +0.038 A 
BRANCH   3   2
ATOM      1  C   UNL     1      -1.222  -2.289  24.594  0.00  0.00    +0.252 C 
ATOM      2  O   UNL     1      -1.946  -2.455  24.952  0.00  0.00    -0.471 OA
ENDBRANCH   3   2
ENDBRANCH   9   6
ENDBRANCH  12   9
ENDBRANCH  13  12
TORSDOF 6
ENDMDL
MODEL 2
REMARK VINA RESULT:     -10.0      2.296      3.218
REMARK  Name = 
REMARK  6 active torsions:
REMARK  status: ('A' for Active; 'I' for Inactive)
REMARK    1  A    between atoms: O_2  and  C_3
REMARK    2  A    between atoms: C_6  and  S_9
REMARK    3  A    between atoms: S_9  and  N_12
REMARK    4  A    between atoms: N_12  and  C_13
REMARK    5  A    between atoms: C_15  and  C_19
REMARK    6  A    between atoms: C_21  and  C_24
REMARK                            x       y       z     vdW  Elec       q    Type
REMARK                         _______ _______ _______ _____ _____    ______ ____
ROOT
ATOM     13  C   UNL     1      -0.615  -0.308  25.097  0.00  0.00    +0.115 C 
ATOM     14  C   UNL     1      -0.717   0.388  25.528  0.00  0.00    +0.046 C 
ATOM     15  C   UNL     1      -0.440   1.015  25.068  0.00  0.00    +0.139 C 
ATOM     16  N   UNL     1      -0.166   0.705  24.354  0.00  0.00    -0.264 NA
ATOM     17  C   UNL     1       0.158   1.138  23.731  0.00  0.00    +0.090 C 
ATOM     18  C   UNL     1      -0.275  -0.113  24.372  0.00  0.00    +0.092 C 
ENDROOT
BRANCH  15  19
ATOM     19  C   UNL     1      -0.437   1.810  25.285  0.00  0.00    +0.251 A 
ATOM     20  N   UNL     1      -1.032   2.359  25.126  0.00  0.00    -0.188 NA
ATOM     21  C   UNL     1      -0.801   3.085  25.442  0.00  0.00    +0.223 A 
ATOM     22  N   UNL     1      -0.063   2.986  25.796  0.00  0.00    -0.054 NA
ATOM     23  O   UNL     1       0.163   2.198  25.699  0.00  0.00    -0.336 OA
BRANCH  21  24
ATOM     24  C   UNL     1      -1.232   3.788  25.409  0.00  0.00    +0.139 A 
ATOM     25  C   UNL     1      -0.897   4.462  25.071  0.00  0.00    +0.121 A 
ATOM     26  N   UNL     1      -1.329   5.164  25.038  0.00  0.00    -0.239 NA
ATOM     27  C   UNL     1      -2.095   5.193  25.344  0.00  0.00    +0.120 A 
ATOM     28  C   UNL     1      -2.429   4.519  25.682  0.00  0.00    +0.120 A 
ATOM     29  N   UNL     1      -1.998   3.816  25.714  0.00  0.00    -0.237 NA
ENDBRANCH  21  24
ENDBRANCH  15  19
BRANCH  13  12
ATOM     12  N   UNL     1      -0.818  -1.067  25.348  0.00  0.00    -0.078 NA
BRANCH  12   9
ATOM      9  S   UNL     1      -1.532  -1.404  25.111  0.00  0.00    +0.077 S 
ATOM     10  O   UNL     1      -1.161  -1.724  24.448  0.00  0.00    -0.152 OA
ATOM     11  O   UNL     1      -1.903  -1.082  25.774  0.00  0.00    -0.152 OA
BRANCH   9   6
ATOM      3  C   UNL     1      -3.675  -2.414  24.397  0.00  0.00    +0.139 A 
ATOM      4  C   UNL     1      -2.965  -2.806  24.248  0.00  0.00    +0.038 A 
ATOM      5  C   UNL     1      -2.250  -2.469  24.487  0.00  0.00    +0.023 A 
ATOM      6  C   UNL     1      -2.246  -1.740  24.873  0.00  0.00    +0.124 A 
ATOM      7  C   UNL     1      -2.957  -1.349  25.021  0.00  0.00    +0.023 A 
ATOM      8  C   UNL     1      -3.671  -1.685  24.783  0.00  0.00    +0.038 A 
BRANCH   3   2
ATOM      1  C   UNL     1      -4.733  -2.527  23.443  0.00  0.00    +0.252 C 
ATOM      2  O   UNL     1      -4.390  -2.751  24.159  0.00  0.00    -0.471 OA
ENDBRANCH   3   2
ENDBRANCH   9   6
ENDBRANCH  12   9
ENDBRANCH  13  12
TORSDOF 6
ENDMDL
MODEL 3
REMARK VINA RESULT:     -10.0      2.438      5.729
REMARK  Name = 
REMARK  6 active torsions:
REMARK  status: ('A' for Active; 'I' for Inactive)
REMARK    1  A    between atoms: O_2  and  C_3
REMARK    2  A    between atoms: C_6  and  S_9
REMARK    3  A    between atoms: S_9  and  N_12
REMARK    4  A    between atoms: N_12  and  C_13
REMARK    5  A    between atoms: C_15  and  C_19
REMARK    6  A    between atoms: C_21  and  C_24
REMARK                            x       y       z     vdW  Elec       q    Type
REMARK                         _______ _______ _______ _____ _____    ______ ____
ROOT
ATOM     13  C   UNL     1      -0.421   1.890  24.773  0.00  0.00    +0.115 C 
ATOM     14  C   UNL     1      -0.798   1.227  25.086  0.00  0.00    +0.046 C 
ATOM     15  C   UNL     1      -0.546   0.566  24.659  0.00  0.00    +0.139 C 
ATOM     16  N   UNL     1      -0.013   0.823  24.084  0.00  0.00    -0.264 NA
ATOM     17  C   UNL     1       0.374   0.345  23.534  0.00  0.00    +0.090 C 
ATOM     18  C   UNL     1       0.064   1.641  24.154  0.00  0.00    +0.092 C 
ENDROOT
BRANCH  15  19
ATOM     19  C   UNL     1      -0.785  -0.213  24.786  0.00  0.00    +0.251 A 
ATOM     20  N   UNL     1      -1.538  -0.518  24.644  0.00  0.00    -0.188 NA
ATOM     21  C   UNL     1      -1.531  -1.318  24.848  0.00  0.00    +0.223 A 
ATOM     22  N   UNL     1      -0.774  -1.507  25.116  0.00  0.00    -0.054 NA
ATOM     23  O   UNL     1      -0.313  -0.823  25.078  0.00  0.00    -0.336 OA
BRANCH  21  24
ATOM     24  C   UNL     1      -2.170  -1.838  24.794  0.00  0.00    +0.139 A 
ATOM     25  C   UNL     1      -2.115  -2.510  24.317  0.00  0.00    +0.121 A 
ATOM     26  N   UNL     1      -2.753  -3.029  24.263  0.00  0.00    -0.239 NA
ATOM     27  C   UNL     1      -3.446  -2.878  24.685  0.00  0.00    +0.120 A 
ATOM     28  C   UNL     1      -3.500  -2.206  25.161  0.00  0.00    +0.120 A 
ATOM     29  N   UNL     1      -2.862  -1.686  25.216  0.00  0.00    -0.237 NA
ENDBRANCH  21  24
ENDBRANCH  15  19
BRANCH  13  12
ATOM     12  N   UNL     1      -0.513   2.667  25.034  0.00  0.00    -0.078 NA
BRANCH  12   9
ATOM      9  S   UNL     1      -1.268   2.983  25.134  0.00  0.00    +0.077 S 
ATOM     10  O   UNL     1      -1.257   2.757  25.926  0.00  0.00    -0.152 OA
ATOM     11  O   UNL     1      -1.278   3.209  24.340  0.00  0.00    -0.152 OA
BRANCH   9   6
ATOM      3  C   UNL     1      -3.535   3.929  25.434  0.00  0.00    +0.139 A 
ATOM      4  C   UNL     1      -3.349   3.515  24.746  0.00  0.00    +0.038 A 
ATOM      5  C   UNL     1      -2.593   3.199  24.645  0.00  0.00    +0.023 A 
ATOM      6  C   UNL     1      -2.023   3.298  25.234  0.00  0.00    +0.124 A 
ATOM      7  C   UNL     1      -2.210   3.713  25.922  0.00  0.00    +0.023 A 
ATOM      8  C   UNL     1      -2.965   4.028  26.023  0.00  0.00    +0.038 A 
BRANCH   3   2
ATOM      1  C   UNL     1      -4.949   3.748  25.524  0.00  0.00    +0.252 C 
ATOM      2  O   UNL     1      -4.291   4.245  25.535  0.00  0.00    -0.471 OA
ENDBRANCH   3   2
ENDBRANCH   9   6
ENDBRANCH  12   9
ENDBRANCH  13  12
TORSDOF 6
ENDMDL
MODEL 4
REMARK VINA RESULT:      -9.6      1.863      3.597
REMARK  Name = 
REMARK  6 active torsions:
REMARK  status: ('A' for Active; 'I' for Inactive)
REMARK    1  A    between atoms: O_2  and  C_3
REMARK    2  A    between atoms: C_6  and  S_9
REMARK    3  A    between atoms: S_9  and  N_12
REMARK    4  A    between atoms: N_12  and  C_13
REMARK    5  A    between atoms: C_15  and  C_19
REMARK    6  A    between atoms: C_21  and  C_24
REMARK                            x       y       z     vdW  Elec       q    Type
REMARK                         _______ _______ _______ _____ _____    ______ ____
ROOT
ATOM     13  C   UNL     1      -0.825   2.640  24.546  0.00  0.00    +0.115 C 
ATOM     14  C   UNL     1      -1.635   2.526  24.440  0.00  0.00    +0.046 C 
ATOM     15  C   UNL     1      -2.023   3.205  24.705  0.00  0.00    +0.139 C 
ATOM     16  N   UNL     1      -1.453   3.736  24.974  0.00  0.00    -0.264 NA
ATOM     17  C   UNL     1      -1.597   4.486  25.286  0.00  0.00    +0.090 C 
ATOM     18  C   UNL     1      -0.712   3.387  24.875  0.00  0.00    +0.092 C 
ENDROOT
BRANCH  15  19
ATOM     19  C   UNL     1      -2.838   3.329  24.701  0.00  0.00    +0.251 A 
ATOM     20  N   UNL     1      -3.405   2.845  25.055  0.00  0.00    -0.188 NA
ATOM     21  C   UNL     1      -4.147   3.177  24.915  0.00  0.00    +0.223 A 
ATOM     22  N   UNL     1      -4.040   3.865  24.474  0.00  0.00    -0.054 NA
ATOM     23  O   UNL     1      -3.231   3.960  24.342  0.00  0.00    -0.336 OA
BRANCH  21  24
ATOM     24  C   UNL     1      -4.871   2.872  25.170  0.00  0.00    +0.139 A 
ATOM     25  C   UNL     1      -5.222   3.165  25.857  0.00  0.00    +0.121 A 
ATOM     26  N   UNL     1      -5.944   2.861  26.112  0.00  0.00    -0.239 NA
ATOM     27  C   UNL     1      -6.317   2.264  25.682  0.00  0.00    +0.120 A 
ATOM     28  C   UNL     1      -5.965   1.971  24.995  0.00  0.00    +0.120 A 
ATOM     29  N   UNL     1      -5.242   2.275  24.739  0.00  0.00    -0.237 NA
ENDBRANCH  21  24
ENDBRANCH  15  19
BRANCH  13  12
ATOM     12  N   UNL     1      -0.231   2.099  24.355  0.00  0.00    -0.078 NA
BRANCH  12   9
ATOM      9  S   UNL     1      -0.349   1.293  24.486  0.00  0.00    +0.077 S 
ATOM     10  O   UNL     1      -0.580   1.201  23.700  0.00  0.00    -0.152 OA
ATOM     11  O   UNL     1      -0.118   1.387  25.272  0.00  0.00    -0.152 OA
BRANCH   9   6
ATOM      3  C   UNL     1      -0.703  -1.124  24.875  0.00  0.00    +0.139 A 
ATOM      4  C   UNL     1      -0.917  -0.578  25.455  0.00  0.00    +0.038 A 
ATOM      5  C   UNL     1      -0.799   0.229  25.325  0.00  0.00    +0.023 A 
ATOM      6  C   UNL     1      -0.467   0.488  24.615  0.00  0.00    +0.124 A 
ATOM      7  C   UNL     1      -0.253  -0.060  24.036  0.00  0.00    +0.023 A 
ATOM      8  C   UNL     1      -0.371  -0.865  24.166  0.00  0.00    +0.038 A 
BRANCH   3   2
ATOM      1  C   UNL     1      -1.494  -2.302  24.707  0.00  0.00    +0.252 C 
ATOM      2  O   UNL     1      -0.821  -1.931  25.006  0.00  0.00    -0.471 OA
ENDBRANCH   3   2
ENDBRANCH   9   6
ENDBRANCH  12   9
ENDBRANCH  13  12
TORSDOF 6
ENDMDL
MODEL 5
REMARK VINA RESULT:      -9.5      2.250      5.074
REMARK  Name = 
REMARK  6 active torsions:
REMARK  status: ('A' for Active; 'I' for Inactive)
REMARK    1  A    between atoms: O_2  and  C_3
REMARK    2  A    between atoms: C_6  and  S_9
REMARK    3  A    between atoms: S_9  and  N_12
REMARK    4  A    between atoms: N_12  and  C_13
REMARK    5  A    between atoms: C_15  and  C_19
REMARK    6  A    between atoms: C_21  and  C_24
REMARK                            x       y       z     vdW  Elec       q    Type
REMARK                         _______ _______ _______ _____ _____    ______ ____
ROOT
ATOM     13  C   UNL     1      -1.635   3.192  25.013  0.00  0.00    +0.115 C 
ATOM     14  C   UNL     1      -1.621   2.440  24.673  0.00  0.00    +0.046 C 
ATOM     15  C   UNL     1      -0.941   2.055  24.937  0.00  0.00    +0.139 C 
ATOM     16  N   UNL     1      -0.535   2.568  25.439  0.00  0.00    -0.264 NA
ATOM     17  C   UNL     1       0.175   2.407  25.827  0.00  0.00    +0.090 C 
ATOM     18  C   UNL     1      -0.965   3.271  25.486  0.00  0.00    +0.092 C 
ENDROOT
BRANCH  15  19
ATOM     19  C   UNL     1      -0.708   1.290  24.733  0.00  0.00    +0.251 A 
ATOM     20  N   UNL     1      -1.083   0.592  24.961  0.00  0.00    -0.188 NA
ATOM     21  C   UNL     1      -0.665  -0.041  24.634  0.00  0.00    +0.223 A 
ATOM     22  N   UNL     1      -0.031   0.267  24.206  0.00  0.00    -0.054 NA
ATOM     23  O   UNL     1      -0.057   1.090  24.266  0.00  0.00    -0.336 OA
BRANCH  21  24
ATOM     24  C   UNL     1      -0.849  -0.841  24.722  0.00  0.00    +0.139 A 
ATOM     25  C   UNL     1      -0.421  -1.307  25.251  0.00  0.00    +0.121 A 
ATOM     26  N   UNL     1      -0.605  -2.106  25.339  0.00  0.00    -0.239 NA
ATOM     27  C   UNL     1      -1.217  -2.439  24.897  0.00  0.00    +0.120 A 
ATOM     28  C   UNL     1      -1.644  -1.973  24.367  0.00  0.00    +0.120 A 
ATOM     29  N   UNL     1      -1.461  -1.174  24.280  0.00  0.00    -0.237 NA
ENDBRANCH  21  24
ENDBRANCH  15  19
BRANCH  13  12
ATOM     12  N   UNL     1      -2.219   3.764  24.899  0.00  0.00    -0.078 NA
BRANCH  12   9
ATOM      9  S   UNL     1      -3.014   3.569  25.001  0.00  0.00    +0.077 S 
ATOM     10  O   UNL     1      -3.091   3.465  24.187  0.00  0.00    -0.152 OA
ATOM     11  O   UNL     1      -2.935   3.674  25.815  0.00  0.00    -0.152 OA
BRANCH   9   6
ATOM      3  C   UNL     1      -5.399   2.985  25.304  0.00  0.00    +0.139 A 
ATOM      4  C   UNL     1      -5.014   3.449  25.866  0.00  0.00    +0.038 A 
ATOM      5  C   UNL     1      -4.218   3.644  25.765  0.00  0.00    +0.023 A 
ATOM      6  C   UNL     1      -3.808   3.374  25.102  0.00  0.00    +0.124 A 
ATOM      7  C   UNL     1      -4.194   2.909  24.540  0.00  0.00    +0.023 A 
ATOM      8  C   UNL     1      -4.989   2.715  24.641  0.00  0.00    +0.038 A 
BRANCH   3   2
ATOM      1  C   UNL     1      -6.428   1.998  25.405  0.00  0.00    +0.252 C 
ATOM      2  O   UNL     1      -6.195   2.790  25.405  0.00  0.00    -0.471 OA
ENDBRANCH   3   2
ENDBRANCH   9   6
ENDBRANCH  12   9
ENDBRANCH  13  12
TORSDOF 6
ENDMDL
MODEL 6
REMARK VINA RESULT:      -9.2      1.561      4.946
REMARK  Name = 
REMARK  6 active torsions:
REMARK  status: ('A' for Active; 'I' for Inactive)
REMARK    1  A    between atoms: O_2  and  C_3
REMARK    2  A    between atoms: C_6  and  S_9
REMARK    3  A    between atoms: S_9  and  N_12
REMARK    4  A    between atoms: N_12  and  C_13
REMARK    5  A    between atoms: C_15  and  C_19
REMARK    6  A    between atoms: C_21  and  C_24
REMARK                            x       y       z     vdW  Elec       q    Type
REMARK                         _______ _______ _______ _____ _____    ______ ____
ROOT
ATOM     13  C   UNL     1      -4.591   2.339  24.700  0.00  0.00    +0.115 C 
ATOM     14  C   UNL     1      -4.224   1.674  24.378  0.00  0.00    +0.046 C 
ATOM     15  C   UNL     1      -4.554   1.005  24.731  0.00  0.00    +0.139 C 
ATOM     16  N   UNL     1      -5.126   1.257  25.270  0.00  0.00    -0.264 NA
ATOM     17  C   UNL     1      -5.592   0.771  25.745  0.00  0.00    +0.090 C 
ATOM     18  C   UNL     1      -5.148   2.082  25.250  0.00  0.00    +0.092 C 
ENDROOT
BRANCH  15  19
ATOM     19  C   UNL     1      -4.349   0.222  24.572  0.00  0.00    +0.251 A 
ATOM     20  N   UNL     1      -3.619  -0.129  24.728  0.00  0.00    -0.188 NA
ATOM     21  C   UNL     1      -3.657  -0.916  24.482  0.00  0.00    +0.223 A 
ATOM     22  N   UNL     1      -4.410  -1.051  24.174  0.00  0.00    -0.054 NA
ATOM     23  O   UNL     1      -4.838  -0.348  24.230  0.00  0.00    -0.336 OA
BRANCH  21  24
ATOM     24  C   UNL     1      -3.048  -1.471  24.534  0.00  0.00    +0.139 A 
ATOM     25  C   UNL     1      -3.224  -2.277  24.535  0.00  0.00    +0.121 A 
ATOM     26  N   UNL     1      -2.615  -2.831  24.587  0.00  0.00    -0.239 NA
ATOM     27  C   UNL     1      -1.831  -2.579  24.640  0.00  0.00    +0.120 A 
ATOM     28  C   UNL     1      -1.656  -1.773  24.639  0.00  0.00    +0.120 A 
ATOM     29  N   UNL     1      -2.265  -1.219  24.587  0.00  0.00    -0.237 NA
ENDBRANCH  21  24
ENDBRANCH  15  19
BRANCH  13  12
ATOM     12  N   UNL     1      -4.430   3.124  24.504  0.00  0.00    -0.078 NA
BRANCH  12   9
ATOM      9  S   UNL     1      -3.686   3.444  24.662  0.00  0.00    +0.077 S 
ATOM     10  O   UNL     1      -3.456   3.291  23.885  0.00  0.00    -0.152 OA
ATOM     11  O   UNL     1      -3.917   3.596  25.439  0.00  0.00    -0.152 OA
BRANCH   9   6
ATOM      3  C   UNL     1      -1.455   4.404  25.134  0.00  0.00    +0.139 A 
ATOM      4  C   UNL     1      -1.522   3.730  24.663  0.00  0.00    +0.038 A 
ATOM      5  C   UNL     1      -2.267   3.410  24.505  0.00  0.00    +0.023 A 
ATOM      6  C   UNL     1      -2.943   3.764  24.819  0.00  0.00    +0.124 A 
ATOM      7  C   UNL     1      -2.874   4.437  25.291  0.00  0.00    +0.023 A 
ATOM      8  C   UNL     1      -2.131   4.757  25.448  0.00  0.00    +0.038 A 
BRANCH   3   2
ATOM      1  C   UNL     1      -0.346   5.211  24.735  0.00  0.00    +0.252 C 
ATOM      2  O   UNL     1      -0.710   4.724  25.291  0.00  0.00    -0.471 OA
ENDBRANCH   3   2
ENDBRANCH   9   6
ENDBRANCH  12   9
ENDBRANCH  13  12
TORSDOF 6
ENDMDL
