MODEL 1
REMARK VINA RESULT:      -9.7      0.000      0.000
REMARK  Name = 
REMARK  6 active torsions:
REMARK  status: ('A' for Active; 'I' for Inactive)
REMARK    1  A    between atoms: O_2  and  C_3
REMARK    2  A    between atoms: C_3  and  C_4
REMARK    3  A    between atoms: C_10  and  C_13
REMARK    4  A    between atoms: C_16  and  C_18
REMARK    5  A    between atoms: N_22  and  C_23
REMARK    6  A    between atoms: C_23  and  C_24
REMARK                            x       y       z     vdW  Elec       q    Type
REMARK                         _______ _______ _______ _____ _____    ______ ____
ROOT
ATOM     13  C   UNL     1      -1.152  -0.185  24.532  0.00  0.00    +0.205 A 
ATOM     14  N   UNL     1      -1.266  -0.451  25.306  0.00  0.00    -0.056 NA
ATOM     15  O   UNL     1      -2.063  -0.645  25.394  0.00  0.00    -0.336 OA
ATOM     16  C   UNL     1      -2.442  -0.500  24.676  0.00  0.00    +0.251 A 
ATOM     17  N   UNL     1      -1.879  -0.215  24.144  0.00  0.00    -0.190 NA
ENDROOT
BRANCH  13  10
ATOM      4  C   UNL     1       2.190   0.284  22.831  0.00  0.00    +0.277 C 
ATOM      5  O   UNL     1       1.961  -0.505  22.761  0.00  0.00    -0.270 OA
ATOM      6  N   UNL     1       1.706   0.822  23.227  0.00  0.00    -0.158 NA
ATOM      7  C   UNL     1       0.992   0.570  23.553  0.00  0.00    +0.155 A 
ATOM      8  N   UNL     1       0.507   1.108  23.950  0.00  0.00    -0.227 NA
ATOM      9  C   UNL     1      -0.208   0.856  24.276  0.00  0.00    +0.103 A 
ATOM     10  C   UNL     1      -0.438   0.067  24.206  0.00  0.00    +0.058 A 
ATOM     11  C   UNL     1       0.046  -0.471  23.810  0.00  0.00    +0.008 A 
ATOM     12  C   UNL     1       0.761  -0.219  23.484  0.00  0.00    +0.036 A 
BRANCH   4   3
ATOM      3  C   UNL     1       2.905   0.536  22.505  0.00  0.00    +0.229 C 
BRANCH   3   2
ATOM      1  C   UNL     1       4.322   0.664  22.649  0.00  0.00    +0.175 C 
ATOM      2  O   UNL     1       3.620   0.264  22.817  0.00  0.00    -0.342 OA
ENDBRANCH   3   2
ENDBRANCH   4   3
ENDBRANCH  13  10
BRANCH  16  18
ATOM     18  C   UNL     1      -3.243  -0.617  24.518  0.00  0.00    +0.138 C 
ATOM     19  C   UNL     1      -3.575  -1.290  24.175  0.00  0.00    +0.027 C 
ATOM     20  C   UNL     1      -4.391  -1.172  24.119  0.00  0.00    +0.019 C 
ATOM     21  C   UNL     1      -4.561  -0.426  24.428  0.00  0.00    +0.073 C 
ATOM     22  N   UNL     1      -3.852  -0.083  24.674  0.00  0.00    -0.263 NA
BRANCH  22  23
ATOM     23  C   UNL     1      -3.767   0.662  25.017  0.00  0.00    +0.099 C 
BRANCH  23  24
ATOM     24  C   UNL     1      -4.384   1.208  24.975  0.00  0.00    -0.006 A 
ATOM     25  C   UNL     1      -4.364   1.810  24.411  0.00  0.00    -0.003 A 
ATOM     26  C   UNL     1      -4.981   2.356  24.369  0.00  0.00    -0.000 A 
ATOM     27  C   UNL     1      -5.617   2.301  24.890  0.00  0.00    -0.000 A 
ATOM     28  C   UNL     1      -5.638   1.699  25.454  0.00  0.00    -0.000 A 
ATOM     29  C   UNL     1      -5.021   1.152  25.496  0.00  0.00    -0.003 A 
ENDBRANCH  23  24
ENDBRANCH  22  23
ENDBRANCH  16  18
TORSDOF 6
ENDMDL
MODEL 2
REMARK VINA RESULT:      -9.5      1.996      2.545
REMARK  Name = 
REMARK  6 active torsions:
REMARK  status: ('A' for Active; 'I' for Inactive)
REMARK    1  A    between atoms: O_2  and  C_3
REMARK    2  A    between atoms: C_3  and  C_4
REMARK    3  A    between atoms: C_10  and  C_13
REMARK    4  A    between atoms: C_16  and  C_18
REMARK    5  A    between atoms: N_22  and  C_23
REMARK    6  A    between atoms: C_23  and  C_24
REMARK                            x       y       z     vdW  Elec       q    Type
REMARK                         _______ _______ _______ _____ _____    ______ ____
ROOT
ATOM     13  C   UNL     1      -0.448   0.625  23.741  0.00  0.00    +0.205 A 
ATOM     14  N   UNL     1      -0.871   0.172  24.285  0.00  0.00    -0.056 NA
ATOM     15  O   UNL     1      -1.617   0.513  24.377  0.00  0.00    -0.336 OA
ATOM     16  C   UNL     1      -1.654   1.178  23.890  0.00  0.00    +0.251 A 
ATOM     17  N   UNL     1      -0.932   1.247  23.497  0.00  0.00    -0.190 NA
ENDROOT
BRANCH  13  10
ATOM      4  C   UNL     1       3.230   0.606  22.867  0.00  0.00    +0.277 C 
ATOM      5  O   UNL     1       3.051   1.305  23.268  0.00  0.00    -0.270 OA
ATOM      6  N   UNL     1       2.638   0.051  22.721  0.00  0.00    -0.158 NA
ATOM      7  C   UNL     1       1.866   0.195  22.976  0.00  0.00    +0.155 A 
ATOM      8  N   UNL     1       1.273  -0.361  22.830  0.00  0.00    -0.227 NA
ATOM      9  C   UNL     1       0.502  -0.217  23.085  0.00  0.00    +0.103 A 
ATOM     10  C   UNL     1       0.323   0.482  23.486  0.00  0.00    +0.058 A 
ATOM     11  C   UNL     1       0.915   1.037  23.632  0.00  0.00    +0.008 A 
ATOM     12  C   UNL     1       1.687   0.893  23.377  0.00  0.00    +0.036 A 
BRANCH   4   3
ATOM      3  C   UNL     1       4.001   0.463  22.613  0.00  0.00    +0.229 C 
BRANCH   3   2
ATOM      1  C   UNL     1       5.311   0.151  23.095  0.00  0.00    +0.175 C 
ATOM      2  O   UNL     1       4.638   0.629  23.111  0.00  0.00    -0.342 OA
ENDBRANCH   3   2
ENDBRANCH   4   3
ENDBRANCH  13  10
BRANCH  16  18
ATOM     18  C   UNL     1      -2.300   1.685  23.809  0.00  0.00    +0.138 C 
ATOM     19  C   UNL     1      -2.892   1.628  23.237  0.00  0.00    +0.027 C 
ATOM     20  C   UNL     1      -3.426   2.246  23.361  0.00  0.00    +0.019 C 
ATOM     21  C   UNL     1      -3.163   2.684  24.009  0.00  0.00    +0.073 C 
ATOM     22  N   UNL     1      -2.467   2.337  24.286  0.00  0.00    -0.263 NA
BRANCH  22  23
ATOM     23  C   UNL     1      -2.018   2.597  24.927  0.00  0.00    +0.099 C 
BRANCH  23  24
ATOM     24  C   UNL     1      -2.112   3.365  25.212  0.00  0.00    -0.006 A 
ATOM     25  C   UNL     1      -2.714   3.534  25.751  0.00  0.00    -0.003 A 
ATOM     26  C   UNL     1      -2.808   4.302  26.036  0.00  0.00    -0.000 A 
ATOM     27  C   UNL     1      -2.302   4.901  25.783  0.00  0.00    -0.000 A 
ATOM     28  C   UNL     1      -1.700   4.733  25.244  0.00  0.00    -0.000 A 
ATOM     29  C   UNL     1      -1.606   3.964  24.959  0.00  0.00    -0.003 A 
ENDBRANCH  23  24
ENDBRANCH  22  23
ENDBRANCH  16  18
TORSDOF 6
ENDMDL
MODEL 3
REMARK VINA RESULT:      -9.3      1.166      2.411
REMARK  Name = 
REMARK  6 active torsions:
REMARK  status: ('A' for Active; 'I' for Inactive)
REMARK    1  A    between atoms: O_2  and  C_3
REMARK    2  A    between atoms: C_3  and  C_4
REMARK    3  A    between atoms: C_10  and  C_13
REMARK    4  A    between atoms: C_16  and  C_18
REMARK    5  A    between atoms: N_22  and  C_23
REMARK    6  A    between atoms: C_23  and  C_24
REMARK                            x       y       z     vdW  Elec       q    Type
REMARK                         _______ _______ _______ _____ _____    ______ ____
ROOT
ATOM     13  C   UNL     1      -1.645   1.440  23.837  0.00  0.00    +0.205 A 
ATOM     14  N   UNL     1      -2.131   1.927  23.381  0.00  0.00    -0.056 NA
ATOM     15  O   UNL     1      -2.915   1.766  23.583  0.00  0.00    -0.336 OA
ATOM     16  C   UNL     1      -2.914   1.179  24.162  0.00  0.00    +0.251 A 
ATOM     17  N   UNL     1      -2.129   0.978  24.320  0.00  0.00    -0.190 NA
ENDROOT
BRANCH  13  10
ATOM      4  C   UNL     1       2.038   0.786  23.292  0.00  0.00    +0.277 C 
ATOM      5  O   UNL     1       1.599   0.235  22.861  0.00  0.00    -0.270 OA
ATOM      6  N   UNL     1       1.652   1.356  23.746  0.00  0.00    -0.158 NA
ATOM      7  C   UNL     1       0.828   1.377  23.769  0.00  0.00    +0.155 A 
ATOM      8  N   UNL     1       0.442   1.948  24.223  0.00  0.00    -0.227 NA
ATOM      9  C   UNL     1      -0.383   1.969  24.246  0.00  0.00    +0.103 A 
ATOM     10  C   UNL     1      -0.821   1.419  23.815  0.00  0.00    +0.058 A 
ATOM     11  C   UNL     1      -0.436   0.848  23.361  0.00  0.00    +0.008 A 
ATOM     12  C   UNL     1       0.389   0.827  23.338  0.00  0.00    +0.036 A 
BRANCH   4   3
ATOM      3  C   UNL     1       2.862   0.765  23.269  0.00  0.00    +0.229 C 
BRANCH   3   2
ATOM      1  C   UNL     1       4.075   0.613  22.527  0.00  0.00    +0.175 C 
ATOM      2  O   UNL     1       3.251   0.580  22.565  0.00  0.00    -0.342 OA
ENDBRANCH   3   2
ENDBRANCH   4   3
ENDBRANCH  13  10
BRANCH  16  18
ATOM     18  C   UNL     1      -3.579   0.851  24.522  0.00  0.00    +0.138 C 
ATOM     19  C   UNL     1      -4.112   1.249  25.011  0.00  0.00    +0.027 C 
ATOM     20  C   UNL     1      -4.692   0.711  25.247  0.00  0.00    +0.019 C 
ATOM     21  C   UNL     1      -4.518  -0.019  24.904  0.00  0.00    +0.073 C 
ATOM     22  N   UNL     1      -3.830   0.068  24.456  0.00  0.00    -0.263 NA
BRANCH  22  23
ATOM     23  C   UNL     1      -3.459  -0.525  24.019  0.00  0.00    +0.099 C 
BRANCH  23  24
ATOM     24  C   UNL     1      -3.622  -1.318  24.177  0.00  0.00    -0.006 A 
ATOM     25  C   UNL     1      -3.204  -1.715  24.768  0.00  0.00    -0.003 A 
ATOM     26  C   UNL     1      -3.366  -2.507  24.926  0.00  0.00    -0.000 A 
ATOM     27  C   UNL     1      -3.946  -2.904  24.495  0.00  0.00    -0.000 A 
ATOM     28  C   UNL     1      -4.364  -2.508  23.904  0.00  0.00    -0.000 A 
ATOM     29  C   UNL     1      -4.201  -1.715  23.745  0.00  0.00    -0.003 A 
ENDBRANCH  23  24
ENDBRANCH  22  23
ENDBRANCH  16  18
TORSDOF 6
ENDMDL
MODEL 4
REMARK VINA RESULT:      -8.7      2.915      4.138
REMARK  Name = 
REMARK  6 active torsions:
REMARK  status: ('A' for Active; 'I' for Inactive)
REMARK    1  A    between atoms: O_2  and  C_3
REMARK    2  A    between atoms: C_3  and  C_4
REMARK    3  A    between atoms: C_10  and  C_13
REMARK    4  A    between atoms: C_16  and  C_18
REMARK    5  A    between atoms: N_22  and  C_23
REMARK    6  A    between atoms: C_23  and  C_24
REMARK                            x       y       z     vdW  Elec       q    Type
REMARK                         _______ _______ _______ _____ _____    ______ ____
ROOT
ATOM     13  C   UNL     1      -0.959   0.560  25.622  0.00  0.00    +0.205 A 
ATOM     14  N   UNL     1      -1.025   0.167  26.345  0.00  0.00    -0.056 NA
ATOM     15  O   UNL     1      -1.112  -0.639  26.190  0.00  0.00    -0.336 OA
ATOM     16  C   UNL     1      -1.099  -0.744  25.372  0.00  0.00    +0.251 A 
ATOM     17  N   UNL     1      -1.005  -0.003  25.021  0.00  0.00    -0.190 NA
ENDROOT
BRANCH  13  10
ATOM      4  C   UNL     1      -1.240   4.293  25.101  0.00  0.00    +0.277 C 
ATOM      5  O   UNL     1      -1.996   3.963  25.095  0.00  0.00    -0.270 OA
ATOM      6  N   UNL     1      -0.579   3.812  25.210  0.00  0.00    -0.158 NA
ATOM      7  C   UNL     1      -0.674   2.999  25.313  0.00  0.00    +0.155 A 
ATOM      8  N   UNL     1      -0.013   2.516  25.422  0.00  0.00    -0.227 NA
ATOM      9  C   UNL     1      -0.108   1.703  25.525  0.00  0.00    +0.103 A 
ATOM     10  C   UNL     1      -0.864   1.373  25.519  0.00  0.00    +0.058 A 
ATOM     11  C   UNL     1      -1.524   1.854  25.410  0.00  0.00    +0.008 A 
ATOM     12  C   UNL     1      -1.430   2.667  25.307  0.00  0.00    +0.036 A 
BRANCH   4   3
ATOM      3  C   UNL     1      -1.145   5.106  24.998  0.00  0.00    +0.229 C 
BRANCH   3   2
ATOM      1  C   UNL     1      -1.772   6.387  24.908  0.00  0.00    +0.175 C 
ATOM      2  O   UNL     1      -1.749   5.624  25.219  0.00  0.00    -0.342 OA
ENDBRANCH   3   2
ENDBRANCH   4   3
ENDBRANCH  13  10
BRANCH  16  18
ATOM     18  C   UNL     1      -1.168  -1.463  24.974  0.00  0.00    +0.138 C 
ATOM     19  C   UNL     1      -0.547  -1.903  24.655  0.00  0.00    +0.027 C 
ATOM     20  C   UNL     1      -0.866  -2.581  24.309  0.00  0.00    +0.019 C 
ATOM     21  C   UNL     1      -1.683  -2.561  24.415  0.00  0.00    +0.073 C 
ATOM     22  N   UNL     1      -1.871  -1.870  24.826  0.00  0.00    -0.263 NA
BRANCH  22  23
ATOM     23  C   UNL     1      -2.627  -1.629  25.049  0.00  0.00    +0.099 C 
BRANCH  23  24
ATOM     24  C   UNL     1      -3.283  -1.868  24.609  0.00  0.00    -0.006 A 
ATOM     25  C   UNL     1      -3.540  -2.651  24.645  0.00  0.00    -0.003 A 
ATOM     26  C   UNL     1      -4.196  -2.890  24.205  0.00  0.00    -0.000 A 
ATOM     27  C   UNL     1      -4.594  -2.346  23.730  0.00  0.00    -0.000 A 
ATOM     28  C   UNL     1      -4.338  -1.563  23.694  0.00  0.00    -0.000 A 
ATOM     29  C   UNL     1      -3.681  -1.324  24.134  0.00  0.00    -0.003 A 
ENDBRANCH  23  24
ENDBRANCH  22  23
ENDBRANCH  16  18
TORSDOF 6
ENDMDL
MODEL 5
REMARK VINA RESULT:      -8.6      1.742      2.441
REMARK  Name = 
REMARK  6 active torsions:
REMARK  status: ('A' for Active; 'I' for Inactive)
REMARK    1  A    between atoms: O_2  and  C_3
REMARK    2  A    between atoms: C_3  and  C_4
REMARK    3  A    between atoms: C_10  and  C_13
REMARK    4  A    between atoms: C_16  and  C_18
REMARK    5  A    between atoms: N_22  and  C_23
REMARK    6  A    between atoms: C_23  and  C_24
REMARK                            x       y       z     vdW  Elec       q    Type
REMARK                         _______ _______ _______ _____ _____    ______ ____
ROOT
ATOM     13  C   UNL     1      -1.111   2.046  24.733  0.00  0.00    +0.205 A 
ATOM     14  N   UNL     1      -1.205   2.120  25.550  0.00  0.00    -0.056 NA
ATOM     15  O   UNL     1      -1.863   2.598  25.688  0.00  0.00    -0.336 OA
ATOM     16  C   UNL     1      -2.176   2.820  24.958  0.00  0.00    +0.251 A 
ATOM     17  N   UNL     1      -1.711   2.478  24.367  0.00  0.00    -0.190 NA
ENDROOT
BRANCH  13  10
ATOM      4  C   UNL     1       2.011   0.628  23.144  0.00  0.00    +0.277 C 
ATOM      5  O   UNL     1       2.186   1.366  23.469  0.00  0.00    -0.270 OA
ATOM      6  N   UNL     1       1.248   0.321  23.201  0.00  0.00    -0.158 NA
ATOM      7  C   UNL     1       0.658   0.752  23.584  0.00  0.00    +0.155 A 
ATOM      8  N   UNL     1      -0.106   0.445  23.642  0.00  0.00    -0.227 NA
ATOM      9  C   UNL     1      -0.696   0.876  24.025  0.00  0.00    +0.103 A 
ATOM     10  C   UNL     1      -0.521   1.614  24.350  0.00  0.00    +0.058 A 
ATOM     11  C   UNL     1       0.242   1.921  24.293  0.00  0.00    +0.008 A 
ATOM     12  C   UNL     1       0.832   1.490  23.910  0.00  0.00    +0.036 A 
BRANCH   4   3
ATOM      3  C   UNL     1       2.601   0.197  22.761  0.00  0.00    +0.229 C 
BRANCH   3   2
ATOM      1  C   UNL     1       4.002   0.181  22.476  0.00  0.00    +0.175 C 
ATOM      2  O   UNL     1       3.280   0.579  22.486  0.00  0.00    -0.342 OA
ENDBRANCH   3   2
ENDBRANCH   4   3
ENDBRANCH  13  10
BRANCH  16  18
ATOM     18  C   UNL     1      -2.837   3.298  24.838  0.00  0.00    +0.138 C 
ATOM     19  C   UNL     1      -2.827   4.083  24.582  0.00  0.00    +0.027 C 
ATOM     20  C   UNL     1      -3.608   4.347  24.539  0.00  0.00    +0.019 C 
ATOM     21  C   UNL     1      -4.100   3.725  24.767  0.00  0.00    +0.073 C 
ATOM     22  N   UNL     1      -3.623   3.077  24.952  0.00  0.00    -0.263 NA
BRANCH  22  23
ATOM     23  C   UNL     1      -3.887   2.338  25.206  0.00  0.00    +0.099 C 
BRANCH  23  24
ATOM     24  C   UNL     1      -4.695   2.177  25.237  0.00  0.00    -0.006 A 
ATOM     25  C   UNL     1      -5.056   1.757  24.624  0.00  0.00    -0.003 A 
ATOM     26  C   UNL     1      -5.864   1.596  24.655  0.00  0.00    -0.000 A 
ATOM     27  C   UNL     1      -6.312   1.853  25.297  0.00  0.00    -0.000 A 
ATOM     28  C   UNL     1      -5.952   2.272  25.910  0.00  0.00    -0.000 A 
ATOM     29  C   UNL     1      -5.143   2.434  25.880  0.00  0.00    -0.003 A 
ENDBRANCH  23  24
ENDBRANCH  22  23
ENDBRANCH  16  18
TORSDOF 6
ENDMDL
MODEL 6
REMARK VINA RESULT:      -8.4      2.549      4.330
REMARK  Name = 
REMARK  6 active torsions:
REMARK  status: ('A' for Active; 'I' for Inactive)
REMARK    1  A    between atoms: O_2  and  C_3
REMARK    2  A    between atoms: C_3  and  C_4
REMARK    3  A    between atoms: C_10  and  C_13
REMARK    4  A    between atoms: C_16  and  C_18
REMARK    5  A    between atoms: N_22  and  C_23
REMARK    6  A    between atoms: C_23  and  C_24
REMARK                            x       y       z     vdW  Elec       q    Type
REMARK                         _______ _______ _______ _____ _____    ______ ____
ROOT
ATOM     13  C   UNL     1      -0.605   1.639  25.190  0.00  0.00    +0.205 A 
ATOM     14  N   UNL     1       0.039   1.902  25.633  0.00  0.00    -0.056 NA
ATOM     15  O   UNL     1      -0.011   2.724  25.692  0.00  0.00    -0.336 OA
ATOM     16  C   UNL     1      -0.687   2.968  25.286  0.00  0.00    +0.251 A 
ATOM     17  N   UNL     1      -1.054   2.297  24.976  0.00  0.00    -0.190 NA
ENDROOT
BRANCH  13  10
ATOM      4  C   UNL     1      -1.944  -1.864  24.716  0.00  0.00    +0.277 C 
ATOM      5  O   UNL     1      -2.452  -1.447  25.215  0.00  0.00    -0.270 OA
ATOM      6  N   UNL     1      -1.271  -1.499  24.413  0.00  0.00    -0.158 NA
ATOM      7  C   UNL     1      -1.104  -0.714  24.607  0.00  0.00    +0.155 A 
ATOM      8  N   UNL     1      -0.430  -0.348  24.303  0.00  0.00    -0.227 NA
ATOM      9  C   UNL     1      -0.264   0.437  24.497  0.00  0.00    +0.103 A 
ATOM     10  C   UNL     1      -0.772   0.854  24.996  0.00  0.00    +0.058 A 
ATOM     11  C   UNL     1      -1.445   0.489  25.299  0.00  0.00    +0.008 A 
ATOM     12  C   UNL     1      -1.612  -0.296  25.105  0.00  0.00    +0.036 A 
BRANCH   4   3
ATOM      3  C   UNL     1      -2.111  -2.649  24.522  0.00  0.00    +0.229 C 
BRANCH   3   2
ATOM      1  C   UNL     1      -3.253  -3.449  24.209  0.00  0.00    +0.175 C 
ATOM      2  O   UNL     1      -2.831  -2.986  24.745  0.00  0.00    -0.342 OA
ENDBRANCH   3   2
ENDBRANCH   4   3
ENDBRANCH  13  10
BRANCH  16  18
ATOM     18  C   UNL     1      -0.949   3.745  25.205  0.00  0.00    +0.138 C 
ATOM     19  C   UNL     1      -0.526   4.367  24.866  0.00  0.00    +0.027 C 
ATOM     20  C   UNL     1      -0.997   5.045  24.900  0.00  0.00    +0.019 C 
ATOM     21  C   UNL     1      -1.711   4.841  25.259  0.00  0.00    +0.073 C 
ATOM     22  N   UNL     1      -1.682   4.038  25.447  0.00  0.00    -0.263 NA
BRANCH  22  23
ATOM     23  C   UNL     1      -2.280   3.604  25.814  0.00  0.00    +0.099 C 
BRANCH  23  24
ATOM     24  C   UNL     1      -3.071   3.777  25.655  0.00  0.00    -0.006 A 
ATOM     25  C   UNL     1      -3.403   3.562  24.931  0.00  0.00    -0.003 A 
ATOM     26  C   UNL     1      -4.194   3.734  24.772  0.00  0.00    -0.000 A 
ATOM     27  C   UNL     1      -4.653   4.121  25.337  0.00  0.00    -0.000 A 
ATOM     28  C   UNL     1      -4.322   4.336  26.062  0.00  0.00    -0.000 A 
ATOM     29  C   UNL     1      -3.530   4.164  26.220  0.00  0.00    -0.003 A 
ENDBRANCH  23  24
ENDBRANCH  22  23
ENDBRANCH  16  18
TORSDOF 6
ENDMDL
MODEL 7
REMARK VINA RESULT:      -6.7     14.362     15.983
REMARK  Name = 
REMARK  6 active torsions:
REMARK  status: ('A' for Active; 'I' for Inactive)
REMARK    1  A    between atoms: O_2  and  C_3
REMARK    2  A    between atoms: C_3  and  C_4
REMARK    3  A    between atoms: C_10  and  C_13
REMARK    4  A    between atoms: C_16  and  C_18
REMARK    5  A    between atoms: N_22  and  C_23
REMARK    6  A    between atoms: C_23  and  C_24
REMARK                            x       y       z     vdW  Elec       q    Type
REMARK                         _______ _______ _______ _____ _____    ______ ____
ROOT
ATOM     13  C   UNL     1      -4.088 -10.617  14.207  0.00  0.00    +0.205 A 
ATOM     14  N   UNL     1      -4.665 -10.780  13.641  0.00  0.00    -0.056 NA
ATOM     15  O   UNL     1      -4.320 -10.704  12.895  0.00  0.00    -0.336 OA
ATOM     16  C   UNL     1      -3.529 -10.494  13.001  0.00  0.00    +0.251 A 
ATOM     17  N   UNL     1      -3.386 -10.440  13.812  0.00  0.00    -0.190 NA
ENDROOT
BRANCH  13  10
ATOM      4  C   UNL     1      -5.263 -10.542  17.799  0.00  0.00    +0.277 C 
ATOM      5  O   UNL     1      -5.907 -10.405  17.302  0.00  0.00    -0.270 OA
ATOM      6  N   UNL     1      -4.513 -10.666  17.480  0.00  0.00    -0.158 NA
ATOM      7  C   UNL     1      -4.407 -10.654  16.662  0.00  0.00    +0.155 A 
ATOM      8  N   UNL     1      -3.656 -10.779  16.341  0.00  0.00    -0.227 NA
ATOM      9  C   UNL     1      -3.550 -10.767  15.523  0.00  0.00    +0.103 A 
ATOM     10  C   UNL     1      -4.194 -10.630  15.026  0.00  0.00    +0.058 A 
ATOM     11  C   UNL     1      -4.943 -10.505  15.345  0.00  0.00    +0.008 A 
ATOM     12  C   UNL     1      -5.050 -10.517  16.163  0.00  0.00    +0.036 A 
BRANCH   4   3
ATOM      3  C   UNL     1      -5.369 -10.554  18.617  0.00  0.00    +0.229 C 
BRANCH   3   2
ATOM      1  C   UNL     1      -6.256 -10.555  19.739  0.00  0.00    +0.175 C 
ATOM      2  O   UNL     1      -6.116 -10.410  18.939  0.00  0.00    -0.342 OA
ENDBRANCH   3   2
ENDBRANCH   4   3
ENDBRANCH  13  10
BRANCH  16  18
ATOM     18  C   UNL     1      -2.978 -10.360  12.402  0.00  0.00    +0.138 C 
ATOM     19  C   UNL     1      -2.163 -10.480  12.457  0.00  0.00    +0.027 C 
ATOM     20  C   UNL     1      -1.826 -10.277  11.731  0.00  0.00    +0.019 C 
ATOM     21  C   UNL     1      -2.432 -10.033  11.228  0.00  0.00    +0.073 C 
ATOM     22  N   UNL     1      -3.144 -10.084  11.643  0.00  0.00    -0.263 NA
BRANCH  22  23
ATOM     23  C   UNL     1      -3.891  -9.892  11.349  0.00  0.00    +0.099 C 
BRANCH  23  24
ATOM     24  C   UNL     1      -3.985  -9.704  10.552  0.00  0.00    -0.006 A 
ATOM     25  C   UNL     1      -3.957  -8.916  10.307  0.00  0.00    -0.003 A 
ATOM     26  C   UNL     1      -4.051  -8.728   9.510  0.00  0.00    -0.000 A 
ATOM     27  C   UNL     1      -4.173  -9.327   8.956  0.00  0.00    -0.000 A 
ATOM     28  C   UNL     1      -4.200 -10.115   9.200  0.00  0.00    -0.000 A 
ATOM     29  C   UNL     1      -4.106 -10.303   9.998  0.00  0.00    -0.003 A 
ENDBRANCH  23  24
ENDBRANCH  22  23
ENDBRANCH  16  18
TORSDOF 6
ENDMDL
MODEL 8
REMARK VINA RESULT:      -6.1     15.949     17.023
REMARK  Name = 
REMARK  6 active torsions:
REMARK  status: ('A' for Active; 'I' for Inactive)
REMARK    1  A    between atoms: O_2  and  C_3
REMARK    2  A    between atoms: C_3  and  C_4
REMARK    3  A    between atoms: C_10  and  C_13
REMARK    4  A    between atoms: C_16  and  C_18
REMARK    5  A    between atoms: N_22  and  C_23
REMARK    6  A    between atoms: C_23  and  C_24
REMARK                            x       y       z     vdW  Elec       q    Type
REMARK                         _______ _______ _______ _____ _____    ______ ____
ROOT
ATOM     13  C   UNL     1      -3.131  -9.795  10.898  0.00  0.00    +0.205 A 
ATOM     14  N   UNL     1      -2.984  -9.116  10.450  0.00  0.00    -0.056 NA
ATOM     15  O   UNL     1      -3.468  -9.143   9.782  0.00  0.00    -0.336 OA
ATOM     16  C   UNL     1      -3.912  -9.837   9.816  0.00  0.00    +0.251 A 
ATOM     17  N   UNL     1      -3.704 -10.240  10.506  0.00  0.00    -0.190 NA
ENDROOT
BRANCH  13  10
ATOM      4  C   UNL     1      -2.113 -10.583  14.452  0.00  0.00    +0.277 C 
ATOM      5  O   UNL     1      -2.913 -10.383  14.439  0.00  0.00    -0.270 OA
ATOM      6  N   UNL     1      -1.676 -10.585  13.752  0.00  0.00    -0.158 NA
ATOM      7  C   UNL     1      -2.040 -10.388  13.039  0.00  0.00    +0.155 A 
ATOM      8  N   UNL     1      -1.603 -10.390  12.338  0.00  0.00    -0.227 NA
ATOM      9  C   UNL     1      -1.967 -10.192  11.624  0.00  0.00    +0.103 A 
ATOM     10  C   UNL     1      -2.767  -9.992  11.611  0.00  0.00    +0.058 A 
ATOM     11  C   UNL     1      -3.203  -9.990  12.311  0.00  0.00    +0.008 A 
ATOM     12  C   UNL     1      -2.840 -10.188  13.024  0.00  0.00    +0.036 A 
BRANCH   4   3
ATOM      3  C   UNL     1      -1.749 -10.781  15.165  0.00  0.00    +0.229 C 
BRANCH   3   2
ATOM      1  C   UNL     1      -1.792 -10.714  16.593  0.00  0.00    +0.175 C 
ATOM      2  O   UNL     1      -1.949 -10.376  15.857  0.00  0.00    -0.342 OA
ENDBRANCH   3   2
ENDBRANCH   4   3
ENDBRANCH  13  10
BRANCH  16  18
ATOM     18  C   UNL     1      -4.468 -10.085   9.259  0.00  0.00    +0.138 C 
ATOM     19  C   UNL     1      -4.378 -10.713   8.731  0.00  0.00    +0.027 C 
ATOM     20  C   UNL     1      -5.065 -10.765   8.278  0.00  0.00    +0.019 C 
ATOM     21  C   UNL     1      -5.580 -10.170   8.526  0.00  0.00    +0.073 C 
ATOM     22  N   UNL     1      -5.211  -9.750   9.132  0.00  0.00    -0.263 NA
BRANCH  22  23
ATOM     23  C   UNL     1      -5.529  -9.108   9.540  0.00  0.00    +0.099 C 
BRANCH  23  24
ATOM     24  C   UNL     1      -6.328  -8.920   9.456  0.00  0.00    -0.006 A 
ATOM     25  C   UNL     1      -6.619  -8.671   8.725  0.00  0.00    -0.003 A 
ATOM     26  C   UNL     1      -7.417  -8.483   8.641  0.00  0.00    -0.000 A 
ATOM     27  C   UNL     1      -7.926  -8.545   9.287  0.00  0.00    -0.000 A 
ATOM     28  C   UNL     1      -7.636  -8.795  10.018  0.00  0.00    -0.000 A 
ATOM     29  C   UNL     1      -6.836  -8.982  10.102  0.00  0.00    -0.003 A 
ENDBRANCH  23  24
ENDBRANCH  22  23
ENDBRANCH  16  18
TORSDOF 6
ENDMDL
MODEL 9
REMARK VINA RESULT:      -6.0     13.759     15.001
REMARK  Name = 
REMARK  6 active torsions:
REMARK  status: ('A' for Active; 'I' for Inactive)
REMARK    1  A    between atoms: O_2  and  C_3
REMARK    2  A    between atoms: C_3  and  C_4
REMARK    3  A    between atoms: C_10  and  C_13
REMARK    4  A    between atoms: C_16  and  C_18
REMARK    5  A    between atoms: N_22  and  C_23
REMARK    6  A    between atoms: C_23  and  C_24
REMARK                            x       y       z     vdW  Elec       q    Type
REMARK                         _______ _______ _______ _____ _____    ______ ____
ROOT
ATOM     13  C   UNL     1      -6.542 -10.227  14.488  0.00  0.00    +0.205 A 
ATOM     14  N   UNL     1      -7.150 -10.781  14.559  0.00  0.00    -0.056 NA
ATOM     15  O   UNL     1      -7.459 -10.725  15.322  0.00  0.00    -0.336 OA
ATOM     16  C   UNL     1      -7.043 -10.136  15.723  0.00  0.00    +0.251 A 
ATOM     17  N   UNL     1      -6.476  -9.829  15.207  0.00  0.00    -0.190 NA
ENDROOT
BRANCH  13  10
ATOM      4  C   UNL     1      -4.989  -9.230  11.189  0.00  0.00    +0.277 C 
ATOM      5  O   UNL     1      -5.740  -8.891  11.247  0.00  0.00    -0.270 OA
ATOM      6  N   UNL     1      -4.700  -9.700  11.802  0.00  0.00    -0.158 NA
ATOM      7  C   UNL     1      -5.160  -9.831  12.473  0.00  0.00    +0.155 A 
ATOM      8  N   UNL     1      -4.870 -10.302  13.087  0.00  0.00    -0.227 NA
ATOM      9  C   UNL     1      -5.331 -10.434  13.759  0.00  0.00    +0.103 A 
ATOM     10  C   UNL     1      -6.081 -10.095  13.817  0.00  0.00    +0.058 A 
ATOM     11  C   UNL     1      -6.371  -9.625  13.204  0.00  0.00    +0.008 A 
ATOM     12  C   UNL     1      -5.910  -9.494  12.533  0.00  0.00    +0.036 A 
BRANCH   4   3
ATOM      3  C   UNL     1      -4.529  -9.098  10.518  0.00  0.00    +0.229 C 
BRANCH   3   2
ATOM      1  C   UNL     1      -4.431  -8.881   9.108  0.00  0.00    +0.175 C 
ATOM      2  O   UNL     1      -4.886  -9.049   9.775  0.00  0.00    -0.342 OA
ENDBRANCH   3   2
ENDBRANCH   4   3
ENDBRANCH  13  10
BRANCH  16  18
ATOM     18  C   UNL     1      -7.170  -9.897  16.501  0.00  0.00    +0.138 C 
ATOM     19  C   UNL     1      -6.643  -9.989  17.130  0.00  0.00    +0.027 C 
ATOM     20  C   UNL     1      -6.995  -9.672  17.806  0.00  0.00    +0.019 C 
ATOM     21  C   UNL     1      -7.738  -9.384  17.596  0.00  0.00    +0.073 C 
ATOM     22  N   UNL     1      -7.847  -9.522  16.789  0.00  0.00    -0.263 NA
BRANCH  22  23
ATOM     23  C   UNL     1      -8.515  -9.322  16.349  0.00  0.00    +0.099 C 
BRANCH  23  24
ATOM     24  C   UNL     1      -9.163  -8.972  16.719  0.00  0.00    -0.006 A 
ATOM     25  C   UNL     1      -9.739  -9.444  17.075  0.00  0.00    -0.003 A 
ATOM     26  C   UNL     1     -10.388  -9.095  17.445  0.00  0.00    -0.000 A 
ATOM     27  C   UNL     1     -10.462  -8.274  17.460  0.00  0.00    -0.000 A 
ATOM     28  C   UNL     1      -9.887  -7.801  17.104  0.00  0.00    -0.000 A 
ATOM     29  C   UNL     1      -9.237  -8.151  16.734  0.00  0.00    -0.003 A 
ENDBRANCH  23  24
ENDBRANCH  22  23
ENDBRANCH  16  18
TORSDOF 6
ENDMDL
MODEL 10
REMARK VINA RESULT:      -5.8     15.193     16.671
REMARK  Name = 
REMARK  6 active torsions:
REMARK  status: ('A' for Active; 'I' for Inactive)
REMARK    1  A    between atoms: O_2  and  C_3
REMARK    2  A    between atoms: C_3  and  C_4
REMARK    3  A    between atoms: C_10  and  C_13
REMARK    4  A    between atoms: C_16  and  C_18
REMARK    5  A    between atoms: N_22  and  C_23
REMARK    6  A    between atoms: C_23  and  C_24
REMARK                            x       y       z     vdW  Elec       q    Type
REMARK                         _______ _______ _______ _____ _____    ______ ____
ROOT
ATOM     13  C   UNL     1      -5.330 -10.119  12.539  0.00  0.00    +0.205 A 
ATOM     14  N   UNL     1      -5.194 -10.779  12.061  0.00  0.00    -0.056 NA
ATOM     15  O   UNL     1      -5.097 -10.516  11.285  0.00  0.00    -0.336 OA
ATOM     16  C   UNL     1      -5.173  -9.694  11.283  0.00  0.00    +0.251 A 
ATOM     17  N   UNL     1      -5.317  -9.449  12.058  0.00  0.00    -0.190 NA
ENDROOT
BRANCH  13  10
ATOM      4  C   UNL     1      -5.236 -10.402  16.307  0.00  0.00    +0.277 C 
ATOM      5  O   UNL     1      -4.507 -10.639  16.000  0.00  0.00    -0.270 OA
ATOM      6  N   UNL     1      -5.837 -10.157  15.799  0.00  0.00    -0.158 NA
ATOM      7  C   UNL     1      -5.710 -10.147  14.984  0.00  0.00    +0.155 A 
ATOM      8  N   UNL     1      -6.312  -9.902  14.475  0.00  0.00    -0.227 NA
ATOM      9  C   UNL     1      -6.186  -9.892  13.660  0.00  0.00    +0.103 A 
ATOM     10  C   UNL     1      -5.457 -10.129  13.354  0.00  0.00    +0.058 A 
ATOM     11  C   UNL     1      -4.855 -10.374  13.861  0.00  0.00    +0.008 A 
ATOM     12  C   UNL     1      -4.982 -10.384  14.677  0.00  0.00    +0.036 A 
BRANCH   4   3
ATOM      3  C   UNL     1      -5.362 -10.412  17.122  0.00  0.00    +0.229 C 
BRANCH   3   2
ATOM      1  C   UNL     1      -4.923 -10.762  18.437  0.00  0.00    +0.175 C 
ATOM      2  O   UNL     1      -4.774 -10.694  17.628  0.00  0.00    -0.342 OA
ENDBRANCH   3   2
ENDBRANCH   4   3
ENDBRANCH  13  10
BRANCH  16  18
ATOM     18  C   UNL     1      -5.116  -9.204  10.622  0.00  0.00    +0.138 C 
ATOM     19  C   UNL     1      -4.445  -8.784  10.387  0.00  0.00    +0.027 C 
ATOM     20  C   UNL     1      -4.633  -8.367   9.700  0.00  0.00    +0.019 C 
ATOM     21  C   UNL     1      -5.420  -8.529   9.511  0.00  0.00    +0.073 C 
ATOM     22  N   UNL     1      -5.718  -9.046  10.081  0.00  0.00    -0.263 NA
BRANCH  22  23
ATOM     23  C   UNL     1      -6.483  -9.352  10.105  0.00  0.00    +0.099 C 
BRANCH  23  24
ATOM     24  C   UNL     1      -7.041  -9.112   9.547  0.00  0.00    -0.006 A 
ATOM     25  C   UNL     1      -7.537  -8.472   9.708  0.00  0.00    -0.003 A 
ATOM     26  C   UNL     1      -8.095  -8.232   9.150  0.00  0.00    -0.000 A 
ATOM     27  C   UNL     1      -8.158  -8.631   8.431  0.00  0.00    -0.000 A 
ATOM     28  C   UNL     1      -7.662  -9.270   8.269  0.00  0.00    -0.000 A 
ATOM     29  C   UNL     1      -7.104  -9.511   8.828  0.00  0.00    -0.003 A 
ENDBRANCH  23  24
ENDBRANCH  22  23
ENDBRANCH  16  18
TORSDOF 6
ENDMDL
