MODEL 1
REMARK VINA RESULT:     -12.3      0.000      0.000
REMARK  Name = 
REMARK  7 active torsions:
REMARK  status: ('A' for Active; 'I' for Inactive)
REMARK    1  A    between atoms: O_2  and  C_3
REMARK    2  A    between atoms: C_3  and  C_5
REMARK    3  A    between atoms: C_18  and  N_29
REMARK    4  A    between atoms: C_20  and  C_22
REMARK    5  A    between atoms: N_29  and  C_30
REMARK    6  A    between atoms: C_30  and  C_31
REMARK    7  A    between atoms: C_31  and  C_32
REMARK                            x       y       z     vdW  Elec       q    Type
REMARK                         _______ _______ _______ _____ _____    ______ ____
ROOT
ATOM      5  C   UNL     1      -2.818   1.554  24.795  0.00  0.00    +0.162 C 
ATOM      6  C   UNL     1      -2.833   2.368  24.925  0.00  0.00    +0.055 C 
ATOM      7  C   UNL     1      -2.131   2.801  24.909  0.00  0.00    -0.004 A 
ATOM      8  C   UNL     1      -1.414   2.421  24.764  0.00  0.00    +0.070 A 
ATOM      9  N   UNL     1      -0.816   2.988  24.782  0.00  0.00    -0.249 NA
ATOM     10  C   UNL     1      -1.162   3.720  24.939  0.00  0.00    +0.081 A 
ATOM     11  C   UNL     1      -1.976   3.604  25.018  0.00  0.00    +0.015 A 
ATOM     12  C   UNL     1      -2.470   4.245  25.178  0.00  0.00    +0.001 A 
ATOM     13  C   UNL     1      -2.151   5.002  25.259  0.00  0.00    +0.000 A 
ATOM     14  C   UNL     1      -1.337   5.117  25.180  0.00  0.00    +0.002 A 
ATOM     15  C   UNL     1      -0.843   4.476  25.020  0.00  0.00    +0.019 A 
ATOM     16  C   UNL     1      -1.399   1.606  24.633  0.00  0.00    +0.100 C 
ATOM     17  C   UNL     1      -0.683   1.224  24.487  0.00  0.00    +0.040 C 
ATOM     18  C   UNL     1      -0.667   0.410  24.357  0.00  0.00    +0.076 C 
ATOM     19  C   UNL     1      -1.369  -0.023  24.373  0.00  0.00    +0.038 C 
ATOM     20  C   UNL     1      -2.086   0.358  24.519  0.00  0.00    +0.082 C 
ATOM     21  N   UNL     1      -2.101   1.172  24.649  0.00  0.00    -0.258 NA
ENDROOT
BRANCH  20  22
ATOM     22  C   UNL     1      -2.787  -0.076  24.534  0.00  0.00    -0.007 A 
ATOM     23  C   UNL     1      -3.304  -0.049  23.892  0.00  0.00    -0.003 A 
ATOM     24  C   UNL     1      -4.005  -0.483  23.908  0.00  0.00    +0.001 A 
ATOM     25  C   UNL     1      -4.189  -0.945  24.567  0.00  0.00    +0.011 A 
ATOM     26  C   UNL     1      -3.673  -0.972  25.209  0.00  0.00    +0.057 A 
ATOM     27 CL   UNL     1      -3.857  -1.434  25.868  0.00  0.00    -0.082 Cl
ATOM     28  C   UNL     1      -2.972  -0.538  25.193  0.00  0.00    +0.008 A 
ENDBRANCH  20  22
BRANCH   5   3
ATOM      3  C   UNL     1      -3.520   1.120  24.810  0.00  0.00    +0.332 C 
ATOM      4  O   UNL     1      -4.045   0.527  24.579  0.00  0.00    -0.249 OA
BRANCH   3   2
ATOM      1  C   UNL     1      -4.771   1.754  25.080  0.00  0.00    +0.256 C 
ATOM      2  O   UNL     1      -4.119   1.323  25.340  0.00  0.00    -0.443 OA
ENDBRANCH   3   2
ENDBRANCH   5   3
BRANCH  18  29
ATOM     29  N   UNL     1       0.050   0.029  24.211  0.00  0.00    -0.219 NA
BRANCH  29  30
ATOM     30  C   UNL     1       0.428   0.125  23.484  0.00  0.00    +0.095 C 
BRANCH  30  31
ATOM     31  C   UNL     1       0.971  -0.440  23.224  0.00  0.00    +0.066 C 
BRANCH  31  32
ATOM     32  C   UNL     1       1.595  -0.215  22.733  0.00  0.00    +0.081 A 
ATOM     33  C   UNL     1       1.615  -0.284  21.911  0.00  0.00    +0.115 A 
ATOM     34  N   UNL     1       2.341   0.006  21.649  0.00  0.00    -0.221 NA
ATOM     35  C   UNL     1       2.770   0.254  22.308  0.00  0.00    +0.199 A 
ATOM     36  N   UNL     1       2.309   0.117  22.978  0.00  0.00    -0.227 NA
ENDBRANCH  31  32
ENDBRANCH  30  31
ENDBRANCH  29  30
ENDBRANCH  18  29
TORSDOF 7
ENDMDL
MODEL 2
REMARK VINA RESULT:     -12.0      1.422      3.608
REMARK  Name = 
REMARK  7 active torsions:
REMARK  status: ('A' for Active; 'I' for Inactive)
REMARK    1  A    between atoms: O_2  and  C_3
REMARK    2  A    between atoms: C_3  and  C_5
REMARK    3  A    between atoms: C_18  and  N_29
REMARK    4  A    between atoms: C_20  and  C_22
REMARK    5  A    between atoms: N_29  and  C_30
REMARK    6  A    between atoms: C_30  and  C_31
REMARK    7  A    between atoms: C_31  and  C_32
REMARK                            x       y       z     vdW  Elec       q    Type
REMARK                         _______ _______ _______ _____ _____    ______ ____
ROOT
ATOM      5  C   UNL     1      -3.509   0.989  24.525  0.00  0.00    +0.162 C 
ATOM      6  C   UNL     1      -3.835   0.232  24.510  0.00  0.00    +0.055 C 
ATOM      7  C   UNL     1      -3.343  -0.429  24.475  0.00  0.00    -0.004 A 
ATOM      8  C   UNL     1      -2.524  -0.333  24.455  0.00  0.00    +0.070 A 
ATOM      9  N   UNL     1      -2.180  -1.082  24.422  0.00  0.00    -0.249 NA
ATOM     10  C   UNL     1      -2.786  -1.642  24.420  0.00  0.00    +0.081 A 
ATOM     11  C   UNL     1      -3.505  -1.237  24.453  0.00  0.00    +0.015 A 
ATOM     12  C   UNL     1      -4.215  -1.658  24.459  0.00  0.00    +0.001 A 
ATOM     13  C   UNL     1      -4.206  -2.484  24.432  0.00  0.00    +0.000 A 
ATOM     14  C   UNL     1      -3.486  -2.887  24.399  0.00  0.00    +0.002 A 
ATOM     15  C   UNL     1      -2.777  -2.466  24.393  0.00  0.00    +0.019 A 
ATOM     16  C   UNL     1      -2.197   0.425  24.471  0.00  0.00    +0.100 C 
ATOM     17  C   UNL     1      -1.378   0.522  24.451  0.00  0.00    +0.040 C 
ATOM     18  C   UNL     1      -1.052   1.278  24.467  0.00  0.00    +0.076 C 
ATOM     19  C   UNL     1      -1.544   1.939  24.502  0.00  0.00    +0.038 C 
ATOM     20  C   UNL     1      -2.363   1.842  24.521  0.00  0.00    +0.082 C 
ATOM     21  N   UNL     1      -2.689   1.086  24.506  0.00  0.00    -0.258 NA
ENDROOT
BRANCH  20  22
ATOM     22  C   UNL     1      -2.855   2.504  24.556  0.00  0.00    -0.007 A 
ATOM     23  C   UNL     1      -3.255   2.757  23.882  0.00  0.00    -0.003 A 
ATOM     24  C   UNL     1      -3.747   3.419  23.918  0.00  0.00    +0.001 A 
ATOM     25  C   UNL     1      -3.838   3.828  24.629  0.00  0.00    +0.011 A 
ATOM     26  C   UNL     1      -3.437   3.575  25.304  0.00  0.00    +0.057 A 
ATOM     27 CL   UNL     1      -3.528   3.983  26.015  0.00  0.00    -0.082 Cl
ATOM     28  C   UNL     1      -2.946   2.913  25.268  0.00  0.00    +0.008 A 
ENDBRANCH  20  22
BRANCH   5   3
ATOM      3  C   UNL     1      -4.001   1.650  24.561  0.00  0.00    +0.332 C 
ATOM      4  O   UNL     1      -4.266   2.405  24.356  0.00  0.00    -0.249 OA
BRANCH   3   2
ATOM      1  C   UNL     1      -5.405   1.528  24.796  0.00  0.00    +0.256 C 
ATOM      2  O   UNL     1      -4.642   1.661  25.080  0.00  0.00    -0.443 OA
ENDBRANCH   3   2
ENDBRANCH   5   3
BRANCH  18  29
ATOM     29  N   UNL     1      -0.232   1.375  24.447  0.00  0.00    -0.219 NA
BRANCH  29  30
ATOM     30  C   UNL     1       0.212   1.010  23.856  0.00  0.00    +0.095 C 
BRANCH  30  31
ATOM     31  C   UNL     1       1.026   1.139  23.812  0.00  0.00    +0.066 C 
BRANCH  31  32
ATOM     32  C   UNL     1       1.486   0.700  23.286  0.00  0.00    +0.081 A 
ATOM     33  C   UNL     1       2.289   0.810  23.136  0.00  0.00    +0.115 A 
ATOM     34  N   UNL     1       2.522   0.252  22.575  0.00  0.00    -0.221 NA
ATOM     35  C   UNL     1       1.863  -0.203  22.379  0.00  0.00    +0.199 A 
ATOM     36  N   UNL     1       1.223   0.074  22.819  0.00  0.00    -0.227 NA
ENDBRANCH  31  32
ENDBRANCH  30  31
ENDBRANCH  29  30
ENDBRANCH  18  29
TORSDOF 7
ENDMDL
MODEL 3
REMARK VINA RESULT:     -11.5      2.535      3.380
REMARK  Name = 
REMARK  7 active torsions:
REMARK  status: ('A' for Active; 'I' for Inactive)
REMARK    1  A    between atoms: O_2  and  C_3
REMARK    2  A    between atoms: C_3  and  C_5
REMARK    3  A    between atoms: C_18  and  N_29
REMARK    4  A    between atoms: C_20  and  C_22
REMARK    5  A    between atoms: N_29  and  C_30
REMARK    6  A    between atoms: C_30  and  C_31
REMARK    7  A    between atoms: C_31  and  C_32
REMARK                            x       y       z     vdW  Elec       q    Type
REMARK                         _______ _______ _______ _____ _____    ______ ____
ROOT
ATOM      5  C   UNL     1      -3.912   3.059  25.160  0.00  0.00    +0.162 C 
ATOM      6  C   UNL     1      -3.425   3.724  25.153  0.00  0.00    +0.055 C 
ATOM      7  C   UNL     1      -2.609   3.637  25.066  0.00  0.00    -0.004 A 
ATOM      8  C   UNL     1      -2.280   2.884  24.986  0.00  0.00    +0.070 A 
ATOM      9  N   UNL     1      -1.464   2.969  24.910  0.00  0.00    -0.249 NA
ATOM     10  C   UNL     1      -1.286   3.774  24.943  0.00  0.00    +0.081 A 
ATOM     11  C   UNL     1      -1.995   4.187  25.039  0.00  0.00    +0.015 A 
ATOM     12  C   UNL     1      -1.989   5.010  25.090  0.00  0.00    +0.001 A 
ATOM     13  C   UNL     1      -1.274   5.421  25.044  0.00  0.00    +0.000 A 
ATOM     14  C   UNL     1      -0.566   5.008  24.948  0.00  0.00    +0.002 A 
ATOM     15  C   UNL     1      -0.572   4.185  24.897  0.00  0.00    +0.019 A 
ATOM     16  C   UNL     1      -2.768   2.218  24.993  0.00  0.00    +0.100 C 
ATOM     17  C   UNL     1      -2.441   1.466  24.914  0.00  0.00    +0.040 C 
ATOM     18  C   UNL     1      -2.928   0.801  24.921  0.00  0.00    +0.076 C 
ATOM     19  C   UNL     1      -3.744   0.888  25.008  0.00  0.00    +0.038 C 
ATOM     20  C   UNL     1      -4.071   1.641  25.087  0.00  0.00    +0.082 C 
ATOM     21  N   UNL     1      -3.584   2.306  25.080  0.00  0.00    -0.258 NA
ENDROOT
BRANCH  20  22
ATOM     22  C   UNL     1      -4.888   1.727  25.174  0.00  0.00    -0.007 A 
ATOM     23  C   UNL     1      -5.352   1.938  24.526  0.00  0.00    -0.003 A 
ATOM     24  C   UNL     1      -6.168   2.024  24.614  0.00  0.00    +0.001 A 
ATOM     25  C   UNL     1      -6.519   1.900  25.350  0.00  0.00    +0.011 A 
ATOM     26  C   UNL     1      -6.055   1.690  25.998  0.00  0.00    +0.057 A 
ATOM     27 CL   UNL     1      -6.406   1.565  26.735  0.00  0.00    -0.082 Cl
ATOM     28  C   UNL     1      -5.239   1.603  25.911  0.00  0.00    +0.008 A 
ENDBRANCH  20  22
BRANCH   5   3
ATOM      3  C   UNL     1      -4.728   3.146  25.247  0.00  0.00    +0.332 C 
ATOM      4  O   UNL     1      -5.523   2.975  25.108  0.00  0.00    -0.249 OA
BRANCH   3   2
ATOM      1  C   UNL     1      -5.330   4.426  25.446  0.00  0.00    +0.256 C 
ATOM      2  O   UNL     1      -5.030   3.723  25.754  0.00  0.00    -0.443 OA
ENDBRANCH   3   2
ENDBRANCH   5   3
BRANCH  18  29
ATOM     29  N   UNL     1      -2.600   0.048  24.841  0.00  0.00    -0.219 NA
BRANCH  29  30
ATOM     30  C   UNL     1      -3.071  -0.584  24.596  0.00  0.00    +0.095 C 
BRANCH  30  31
ATOM     31  C   UNL     1      -2.740  -1.334  24.504  0.00  0.00    +0.066 C 
BRANCH  31  32
ATOM     32  C   UNL     1      -3.227  -1.985  24.359  0.00  0.00    +0.081 A 
ATOM     33  C   UNL     1      -3.137  -2.739  24.680  0.00  0.00    +0.115 A 
ATOM     34  N   UNL     1      -3.743  -3.215  24.387  0.00  0.00    -0.221 NA
ATOM     35  C   UNL     1      -4.207  -2.755  23.883  0.00  0.00    +0.199 A 
ATOM     36  N   UNL     1      -3.888  -1.995  23.866  0.00  0.00    -0.227 NA
ENDBRANCH  31  32
ENDBRANCH  30  31
ENDBRANCH  29  30
ENDBRANCH  18  29
TORSDOF 7
ENDMDL
MODEL 4
REMARK VINA RESULT:     -11.3      2.196      4.607
REMARK  Name = 
REMARK  7 active torsions:
REMARK  status: ('A' for Active; 'I' for Inactive)
REMARK    1  A    between atoms: O_2  and  C_3
REMARK    2  A    between atoms: C_3  and  C_5
REMARK    3  A    between atoms: C_18  and  N_29
REMARK    4  A    between atoms: C_20  and  C_22
REMARK    5  A    between atoms: N_29  and  C_30
REMARK    6  A    between atoms: C_30  and  C_31
REMARK    7  A    between atoms: C_31  and  C_32
REMARK                            x       y       z     vdW  Elec       q    Type
REMARK                         _______ _______ _______ _____ _____    ______ ____
ROOT
ATOM      5  C   UNL     1      -2.056  -0.588  24.665  0.00  0.00    +0.162 C 
ATOM      6  C   UNL     1      -1.336  -0.196  24.585  0.00  0.00    +0.055 C 
ATOM      7  C   UNL     1      -1.320   0.626  24.510  0.00  0.00    -0.004 A 
ATOM      8  C   UNL     1      -2.024   1.055  24.516  0.00  0.00    +0.070 A 
ATOM      9  N   UNL     1      -1.837   1.854  24.433  0.00  0.00    -0.249 NA
ATOM     10  C   UNL     1      -1.017   1.920  24.375  0.00  0.00    +0.081 A 
ATOM     11  C   UNL     1      -0.697   1.160  24.423  0.00  0.00    +0.015 A 
ATOM     12  C   UNL     1       0.120   1.054  24.381  0.00  0.00    +0.001 A 
ATOM     13  C   UNL     1       0.617   1.707  24.291  0.00  0.00    +0.000 A 
ATOM     14  C   UNL     1       0.296   2.466  24.244  0.00  0.00    +0.002 A 
ATOM     15  C   UNL     1      -0.521   2.573  24.285  0.00  0.00    +0.019 A 
ATOM     16  C   UNL     1      -2.746   0.662  24.597  0.00  0.00    +0.100 C 
ATOM     17  C   UNL     1      -3.451   1.089  24.602  0.00  0.00    +0.040 C 
ATOM     18  C   UNL     1      -4.171   0.697  24.683  0.00  0.00    +0.076 C 
ATOM     19  C   UNL     1      -4.187  -0.125  24.758  0.00  0.00    +0.038 C 
ATOM     20  C   UNL     1      -3.482  -0.552  24.752  0.00  0.00    +0.082 C 
ATOM     21  N   UNL     1      -2.761  -0.160  24.671  0.00  0.00    -0.258 NA
ENDROOT
BRANCH  20  22
ATOM     22  C   UNL     1      -3.498  -1.374  24.826  0.00  0.00    -0.007 A 
ATOM     23  C   UNL     1      -3.299  -1.728  25.544  0.00  0.00    -0.003 A 
ATOM     24  C   UNL     1      -3.315  -2.549  25.618  0.00  0.00    +0.001 A 
ATOM     25  C   UNL     1      -3.532  -3.017  24.973  0.00  0.00    +0.011 A 
ATOM     26  C   UNL     1      -3.732  -2.664  24.256  0.00  0.00    +0.057 A 
ATOM     27 CL   UNL     1      -3.949  -3.132  23.611  0.00  0.00    -0.082 Cl
ATOM     28  C   UNL     1      -3.715  -1.842  24.182  0.00  0.00    +0.008 A 
ENDBRANCH  20  22
BRANCH   5   3
ATOM      3  C   UNL     1      -2.072  -1.410  24.740  0.00  0.00    +0.332 C 
ATOM      4  O   UNL     1      -2.348  -2.136  25.017  0.00  0.00    -0.249 OA
BRANCH   3   2
ATOM      1  C   UNL     1      -0.860  -2.165  24.724  0.00  0.00    +0.256 C 
ATOM      2  O   UNL     1      -1.523  -1.872  24.332  0.00  0.00    -0.443 OA
ENDBRANCH   3   2
ENDBRANCH   5   3
BRANCH  18  29
ATOM     29  N   UNL     1      -4.876   1.125  24.689  0.00  0.00    -0.219 NA
BRANCH  29  30
ATOM     30  C   UNL     1      -4.922   1.838  25.102  0.00  0.00    +0.095 C 
BRANCH  30  31
ATOM     31  C   UNL     1      -5.589   2.319  25.022  0.00  0.00    +0.066 C 
BRANCH  31  32
ATOM     32  C   UNL     1      -5.575   3.093  25.307  0.00  0.00    +0.081 A 
ATOM     33  C   UNL     1      -6.124   3.429  25.822  0.00  0.00    +0.115 A 
ATOM     34  N   UNL     1      -5.899   4.210  25.961  0.00  0.00    -0.221 NA
ATOM     35  C   UNL     1      -5.210   4.357  25.530  0.00  0.00    +0.199 A 
ATOM     36  N   UNL     1      -5.011   3.666  25.127  0.00  0.00    -0.227 NA
ENDBRANCH  31  32
ENDBRANCH  30  31
ENDBRANCH  29  30
ENDBRANCH  18  29
TORSDOF 7
ENDMDL
MODEL 5
REMARK VINA RESULT:     -10.8      2.412      5.607
REMARK  Name = 
REMARK  7 active torsions:
REMARK  status: ('A' for Active; 'I' for Inactive)
REMARK    1  A    between atoms: O_2  and  C_3
REMARK    2  A    between atoms: C_3  and  C_5
REMARK    3  A    between atoms: C_18  and  N_29
REMARK    4  A    between atoms: C_20  and  C_22
REMARK    5  A    between atoms: N_29  and  C_30
REMARK    6  A    between atoms: C_30  and  C_31
REMARK    7  A    between atoms: C_31  and  C_32
REMARK                            x       y       z     vdW  Elec       q    Type
REMARK                         _______ _______ _______ _____ _____    ______ ____
ROOT
ATOM      5  C   UNL     1      -1.586  -0.052  24.484  0.00  0.00    +0.162 C 
ATOM      6  C   UNL     1      -1.841  -0.836  24.495  0.00  0.00    +0.055 C 
ATOM      7  C   UNL     1      -2.632  -1.014  24.343  0.00  0.00    -0.004 A 
ATOM      8  C   UNL     1      -3.168  -0.409  24.180  0.00  0.00    +0.070 A 
ATOM      9  N   UNL     1      -3.908  -0.751  24.053  0.00  0.00    -0.249 NA
ATOM     10  C   UNL     1      -3.830  -1.568  24.136  0.00  0.00    +0.081 A 
ATOM     11  C   UNL     1      -3.040  -1.731  24.315  0.00  0.00    +0.015 A 
ATOM     12  C   UNL     1      -2.796  -2.510  24.430  0.00  0.00    +0.001 A 
ATOM     13  C   UNL     1      -3.341  -3.127  24.366  0.00  0.00    +0.000 A 
ATOM     14  C   UNL     1      -4.130  -2.964  24.187  0.00  0.00    +0.002 A 
ATOM     15  C   UNL     1      -4.374  -2.184  24.072  0.00  0.00    +0.019 A 
ATOM     16  C   UNL     1      -2.913   0.376  24.170  0.00  0.00    +0.100 C 
ATOM     17  C   UNL     1      -3.448   0.982  24.008  0.00  0.00    +0.040 C 
ATOM     18  C   UNL     1      -3.194   1.766  23.997  0.00  0.00    +0.076 C 
ATOM     19  C   UNL     1      -2.403   1.944  24.149  0.00  0.00    +0.038 C 
ATOM     20  C   UNL     1      -1.867   1.338  24.311  0.00  0.00    +0.082 C 
ATOM     21  N   UNL     1      -2.122   0.554  24.322  0.00  0.00    -0.258 NA
ENDROOT
BRANCH  20  22
ATOM     22  C   UNL     1      -1.076   1.518  24.463  0.00  0.00    -0.007 A 
ATOM     23  C   UNL     1      -0.508   1.407  23.877  0.00  0.00    -0.003 A 
ATOM     24  C   UNL     1       0.283   1.586  24.029  0.00  0.00    +0.001 A 
ATOM     25  C   UNL     1       0.505   1.878  24.769  0.00  0.00    +0.011 A 
ATOM     26  C   UNL     1      -0.064   1.989  25.356  0.00  0.00    +0.057 A 
ATOM     27 CL   UNL     1       0.158   2.280  26.095  0.00  0.00    -0.082 Cl
ATOM     28  C   UNL     1      -0.854   1.809  25.203  0.00  0.00    +0.008 A 
ENDBRANCH  20  22
BRANCH   5   3
ATOM      3  C   UNL     1      -0.795   0.127  24.636  0.00  0.00    +0.332 C 
ATOM      4  O   UNL     1      -0.168   0.552  24.962  0.00  0.00    -0.249 OA
BRANCH   3   2
ATOM      1  C   UNL     1       0.100  -0.981  24.742  0.00  0.00    +0.256 C 
ATOM      2  O   UNL     1      -0.197  -0.342  24.315  0.00  0.00    -0.443 OA
ENDBRANCH   3   2
ENDBRANCH   5   3
BRANCH  18  29
ATOM     29  N   UNL     1      -3.730   2.372  23.835  0.00  0.00    -0.219 NA
BRANCH  29  30
ATOM     30  C   UNL     1      -4.085   2.786  24.454  0.00  0.00    +0.095 C 
BRANCH  30  31
ATOM     31  C   UNL     1      -4.848   3.086  24.366  0.00  0.00    +0.066 C 
BRANCH  31  32
ATOM     32  C   UNL     1      -5.310   3.242  25.032  0.00  0.00    +0.081 A 
ATOM     33  C   UNL     1      -5.330   3.951  25.453  0.00  0.00    +0.115 A 
ATOM     34  N   UNL     1      -5.865   3.863  26.074  0.00  0.00    -0.221 NA
ATOM     35  C   UNL     1      -6.176   3.099  26.037  0.00  0.00    +0.199 A 
ATOM     36  N   UNL     1      -5.833   2.716  25.393  0.00  0.00    -0.227 NA
ENDBRANCH  31  32
ENDBRANCH  30  31
ENDBRANCH  29  30
ENDBRANCH  18  29
TORSDOF 7
ENDMDL
MODEL 6
REMARK VINA RESULT:     -10.7      2.428      4.212
REMARK  Name = 
REMARK  7 active torsions:
REMARK  status: ('A' for Active; 'I' for Inactive)
REMARK    1  A    between atoms: O_2  and  C_3
REMARK    2  A    between atoms: C_3  and  C_5
REMARK    3  A    between atoms: C_18  and  N_29
REMARK    4  A    between atoms: C_20  and  C_22
REMARK    5  A    between atoms: N_29  and  C_30
REMARK    6  A    between atoms: C_30  and  C_31
REMARK    7  A    between atoms: C_31  and  C_32
REMARK                            x       y       z     vdW  Elec       q    Type
REMARK                         _______ _______ _______ _____ _____    ______ ____
ROOT
ATOM      5  C   UNL     1      -2.603   2.724  25.237  0.00  0.00    +0.162 C 
ATOM      6  C   UNL     1      -3.381   2.977  25.337  0.00  0.00    +0.055 C 
ATOM      7  C   UNL     1      -4.005   2.455  25.204  0.00  0.00    -0.004 A 
ATOM      8  C   UNL     1      -3.851   1.679  24.970  0.00  0.00    +0.070 A 
ATOM      9  N   UNL     1      -4.574   1.292  24.880  0.00  0.00    -0.249 NA
ATOM     10  C   UNL     1      -5.175   1.828  25.058  0.00  0.00    +0.081 A 
ATOM     11  C   UNL     1      -4.823   2.547  25.258  0.00  0.00    +0.015 A 
ATOM     12  C   UNL     1      -5.293   3.193  25.464  0.00  0.00    +0.001 A 
ATOM     13  C   UNL     1      -6.116   3.120  25.469  0.00  0.00    +0.000 A 
ATOM     14  C   UNL     1      -6.467   2.400  25.269  0.00  0.00    +0.002 A 
ATOM     15  C   UNL     1      -5.997   1.754  25.064  0.00  0.00    +0.019 A 
ATOM     16  C   UNL     1      -3.073   1.425  24.870  0.00  0.00    +0.100 C 
ATOM     17  C   UNL     1      -2.918   0.649  24.637  0.00  0.00    +0.040 C 
ATOM     18  C   UNL     1      -2.140   0.396  24.536  0.00  0.00    +0.076 C 
ATOM     19  C   UNL     1      -1.515   0.919  24.669  0.00  0.00    +0.038 C 
ATOM     20  C   UNL     1      -1.670   1.694  24.903  0.00  0.00    +0.082 C 
ATOM     21  N   UNL     1      -2.448   1.948  25.003  0.00  0.00    -0.258 NA
ENDROOT
BRANCH  20  22
ATOM     22  C   UNL     1      -1.045   2.216  25.036  0.00  0.00    -0.007 A 
ATOM     23  C   UNL     1      -0.843   2.773  24.462  0.00  0.00    -0.003 A 
ATOM     24  C   UNL     1      -0.218   3.295  24.596  0.00  0.00    +0.001 A 
ATOM     25  C   UNL     1       0.205   3.259  25.304  0.00  0.00    +0.011 A 
ATOM     26  C   UNL     1       0.003   2.702  25.877  0.00  0.00    +0.057 A 
ATOM     27 CL   UNL     1       0.427   2.666  26.585  0.00  0.00    -0.082 Cl
ATOM     28  C   UNL     1      -0.622   2.181  25.744  0.00  0.00    +0.008 A 
ENDBRANCH  20  22
BRANCH   5   3
ATOM      3  C   UNL     1      -1.978   3.247  25.370  0.00  0.00    +0.332 C 
ATOM      4  O   UNL     1      -1.233   3.579  25.244  0.00  0.00    -0.249 OA
BRANCH   3   2
ATOM      1  C   UNL     1      -2.229   4.595  25.770  0.00  0.00    +0.256 C 
ATOM      2  O   UNL     1      -2.036   3.817  25.963  0.00  0.00    -0.443 OA
ENDBRANCH   3   2
ENDBRANCH   5   3
BRANCH  18  29
ATOM     29  N   UNL     1      -1.985  -0.381  24.303  0.00  0.00    -0.219 NA
BRANCH  29  30
ATOM     30  C   UNL     1      -2.399  -1.005  24.648  0.00  0.00    +0.095 C 
BRANCH  30  31
ATOM     31  C   UNL     1      -2.275  -1.778  24.385  0.00  0.00    +0.066 C 
BRANCH  31  32
ATOM     32  C   UNL     1      -2.869  -2.344  24.473  0.00  0.00    +0.081 A 
ATOM     33  C   UNL     1      -2.995  -2.816  25.137  0.00  0.00    +0.115 A 
ATOM     34  N   UNL     1      -3.645  -3.300  24.986  0.00  0.00    -0.221 NA
ATOM     35  C   UNL     1      -3.921  -3.127  24.228  0.00  0.00    +0.199 A 
ATOM     36  N   UNL     1      -3.441  -2.536  23.911  0.00  0.00    -0.227 NA
ENDBRANCH  31  32
ENDBRANCH  30  31
ENDBRANCH  29  30
ENDBRANCH  18  29
TORSDOF 7
ENDMDL
MODEL 7
REMARK VINA RESULT:     -10.6      1.405      2.080
REMARK  Name = 
REMARK  7 active torsions:
REMARK  status: ('A' for Active; 'I' for Inactive)
REMARK    1  A    between atoms: O_2  and  C_3
REMARK    2  A    between atoms: C_3  and  C_5
REMARK    3  A    between atoms: C_18  and  N_29
REMARK    4  A    between atoms: C_20  and  C_22
REMARK    5  A    between atoms: N_29  and  C_30
REMARK    6  A    between atoms: C_30  and  C_31
REMARK    7  A    between atoms: C_31  and  C_32
REMARK                            x       y       z     vdW  Elec       q    Type
REMARK                         _______ _______ _______ _____ _____    ______ ____
ROOT
ATOM      5  C   UNL     1      -1.258   0.433  25.004  0.00  0.00    +0.162 C 
ATOM      6  C   UNL     1      -1.507   1.179  25.250  0.00  0.00    +0.055 C 
ATOM      7  C   UNL     1      -1.141   1.856  24.950  0.00  0.00    -0.004 A 
ATOM      8  C   UNL     1      -0.526   1.785  24.405  0.00  0.00    +0.070 A 
ATOM      9  N   UNL     1      -0.272   2.544  24.207  0.00  0.00    -0.249 NA
ATOM     10  C   UNL     1      -0.730   3.086  24.630  0.00  0.00    +0.081 A 
ATOM     11  C   UNL     1      -1.268   2.659  25.089  0.00  0.00    +0.015 A 
ATOM     12  C   UNL     1      -1.802   3.058  25.574  0.00  0.00    +0.001 A 
ATOM     13  C   UNL     1      -1.800   3.883  25.601  0.00  0.00    +0.000 A 
ATOM     14  C   UNL     1      -1.262   4.309  25.141  0.00  0.00    +0.002 A 
ATOM     15  C   UNL     1      -0.728   3.910  24.655  0.00  0.00    +0.019 A 
ATOM     16  C   UNL     1      -0.276   1.038  24.160  0.00  0.00    +0.100 C 
ATOM     17  C   UNL     1       0.339   0.966  23.615  0.00  0.00    +0.040 C 
ATOM     18  C   UNL     1       0.588   0.220  23.370  0.00  0.00    +0.076 C 
ATOM     19  C   UNL     1       0.222  -0.456  23.669  0.00  0.00    +0.038 C 
ATOM     20  C   UNL     1      -0.393  -0.385  24.214  0.00  0.00    +0.082 C 
ATOM     21  N   UNL     1      -0.642   0.362  24.459  0.00  0.00    -0.258 NA
ENDROOT
BRANCH  20  22
ATOM     22  C   UNL     1      -0.758  -1.062  24.513  0.00  0.00    -0.007 A 
ATOM     23  C   UNL     1      -0.562  -1.339  25.264  0.00  0.00    -0.003 A 
ATOM     24  C   UNL     1      -0.928  -2.015  25.563  0.00  0.00    +0.001 A 
ATOM     25  C   UNL     1      -1.490  -2.415  25.109  0.00  0.00    +0.011 A 
ATOM     26  C   UNL     1      -1.686  -2.138  24.358  0.00  0.00    +0.057 A 
ATOM     27 CL   UNL     1      -2.248  -2.537  23.904  0.00  0.00    -0.082 Cl
ATOM     28  C   UNL     1      -1.320  -1.461  24.059  0.00  0.00    +0.008 A 
ENDBRANCH  20  22
BRANCH   5   3
ATOM      3  C   UNL     1      -1.623  -0.243  25.304  0.00  0.00    +0.332 C 
ATOM      4  O   UNL     1      -1.656  -0.996  25.641  0.00  0.00    -0.249 OA
BRANCH   3   2
ATOM      1  C   UNL     1      -2.852  -0.205  26.031  0.00  0.00    +0.256 C 
ATOM      2  O   UNL     1      -2.447  -0.295  25.319  0.00  0.00    -0.443 OA
ENDBRANCH   3   2
ENDBRANCH   5   3
BRANCH  18  29
ATOM     29  N   UNL     1       1.204   0.149  22.824  0.00  0.00    -0.219 NA
BRANCH  29  30
ATOM     30  C   UNL     1       1.986   0.239  23.071  0.00  0.00    +0.095 C 
BRANCH  30  31
ATOM     31  C   UNL     1       2.600   0.180  22.523  0.00  0.00    +0.066 C 
BRANCH  31  32
ATOM     32  C   UNL     1       3.380   0.309  22.763  0.00  0.00    +0.081 A 
ATOM     33  C   UNL     1       3.778   1.031  22.751  0.00  0.00    +0.115 A 
ATOM     34  N   UNL     1       4.541   0.906  23.036  0.00  0.00    -0.221 NA
ATOM     35  C   UNL     1       4.615   0.106  23.225  0.00  0.00    +0.199 A 
ATOM     36  N   UNL     1       3.897  -0.263  23.056  0.00  0.00    -0.227 NA
ENDBRANCH  31  32
ENDBRANCH  30  31
ENDBRANCH  29  30
ENDBRANCH  18  29
TORSDOF 7
ENDMDL
MODEL 8
REMARK VINA RESULT:     -10.5      1.764      3.920
REMARK  Name = 
REMARK  7 active torsions:
REMARK  status: ('A' for Active; 'I' for Inactive)
REMARK    1  A    between atoms: O_2  and  C_3
REMARK    2  A    between atoms: C_3  and  C_5
REMARK    3  A    between atoms: C_18  and  N_29
REMARK    4  A    between atoms: C_20  and  C_22
REMARK    5  A    between atoms: N_29  and  C_30
REMARK    6  A    between atoms: C_30  and  C_31
REMARK    7  A    between atoms: C_31  and  C_32
REMARK                            x       y       z     vdW  Elec       q    Type
REMARK                         _______ _______ _______ _____ _____    ______ ____
ROOT
ATOM      5  C   UNL     1      -1.457   0.809  24.975  0.00  0.00    +0.162 C 
ATOM      6  C   UNL     1      -2.047   0.265  25.163  0.00  0.00    +0.055 C 
ATOM      7  C   UNL     1      -2.010  -0.503  24.865  0.00  0.00    -0.004 A 
ATOM      8  C   UNL     1      -1.382  -0.728  24.379  0.00  0.00    +0.070 A 
ATOM      9  N   UNL     1      -1.492  -1.518  24.169  0.00  0.00    -0.249 NA
ATOM     10  C   UNL     1      -2.188  -1.783  24.525  0.00  0.00    +0.081 A 
ATOM     11  C   UNL     1      -2.508  -1.155  24.955  0.00  0.00    +0.015 A 
ATOM     12  C   UNL     1      -3.211  -1.259  25.374  0.00  0.00    +0.001 A 
ATOM     13  C   UNL     1      -3.595  -1.990  25.362  0.00  0.00    +0.000 A 
ATOM     14  C   UNL     1      -3.274  -2.617  24.931  0.00  0.00    +0.002 A 
ATOM     15  C   UNL     1      -2.571  -2.513  24.513  0.00  0.00    +0.019 A 
ATOM     16  C   UNL     1      -0.792  -0.183  24.190  0.00  0.00    +0.100 C 
ATOM     17  C   UNL     1      -0.164  -0.406  23.704  0.00  0.00    +0.040 C 
ATOM     18  C   UNL     1       0.426   0.138  23.516  0.00  0.00    +0.076 C 
ATOM     19  C   UNL     1       0.388   0.906  23.814  0.00  0.00    +0.038 C 
ATOM     20  C   UNL     1      -0.239   1.129  24.300  0.00  0.00    +0.082 C 
ATOM     21  N   UNL     1      -0.829   0.585  24.488  0.00  0.00    -0.258 NA
ENDROOT
BRANCH  20  22
ATOM     22  C   UNL     1      -0.276   1.899  24.597  0.00  0.00    -0.007 A 
ATOM     23  C   UNL     1      -0.076   2.047  25.383  0.00  0.00    -0.003 A 
ATOM     24  C   UNL     1      -0.113   2.816  25.680  0.00  0.00    +0.001 A 
ATOM     25  C   UNL     1      -0.350   3.437  25.190  0.00  0.00    +0.011 A 
ATOM     26  C   UNL     1      -0.550   3.288  24.404  0.00  0.00    +0.057 A 
ATOM     27 CL   UNL     1      -0.787   3.908  23.914  0.00  0.00    -0.082 Cl
ATOM     28  C   UNL     1      -0.513   2.519  24.107  0.00  0.00    +0.008 A 
ENDBRANCH  20  22
BRANCH   5   3
ATOM      3  C   UNL     1      -1.495   1.578  25.273  0.00  0.00    +0.332 C 
ATOM      4  O   UNL     1      -1.213   2.252  25.656  0.00  0.00    -0.249 OA
BRANCH   3   2
ATOM      1  C   UNL     1      -2.722   2.076  25.806  0.00  0.00    +0.256 C 
ATOM      2  O   UNL     1      -2.184   2.022  25.184  0.00  0.00    -0.443 OA
ENDBRANCH   3   2
ENDBRANCH   5   3
BRANCH  18  29
ATOM     29  N   UNL     1       1.054  -0.086  23.030  0.00  0.00    -0.219 NA
BRANCH  29  30
ATOM     30  C   UNL     1       1.806   0.229  23.156  0.00  0.00    +0.095 C 
BRANCH  30  31
ATOM     31  C   UNL     1       2.404   0.105  22.601  0.00  0.00    +0.066 C 
BRANCH  31  32
ATOM     32  C   UNL     1       3.184   0.299  22.785  0.00  0.00    +0.081 A 
ATOM     33  C   UNL     1       3.526   1.047  22.720  0.00  0.00    +0.115 A 
ATOM     34  N   UNL     1       4.313   0.989  22.961  0.00  0.00    -0.221 NA
ATOM     35  C   UNL     1       4.457   0.205  23.174  0.00  0.00    +0.199 A 
ATOM     36  N   UNL     1       3.760  -0.221  23.065  0.00  0.00    -0.227 NA
ENDBRANCH  31  32
ENDBRANCH  30  31
ENDBRANCH  29  30
ENDBRANCH  18  29
TORSDOF 7
ENDMDL
MODEL 9
REMARK VINA RESULT:     -10.5      1.909      4.013
REMARK  Name = 
REMARK  7 active torsions:
REMARK  status: ('A' for Active; 'I' for Inactive)
REMARK    1  A    between atoms: O_2  and  C_3
REMARK    2  A    between atoms: C_3  and  C_5
REMARK    3  A    between atoms: C_18  and  N_29
REMARK    4  A    between atoms: C_20  and  C_22
REMARK    5  A    between atoms: N_29  and  C_30
REMARK    6  A    between atoms: C_30  and  C_31
REMARK    7  A    between atoms: C_31  and  C_32
REMARK                            x       y       z     vdW  Elec       q    Type
REMARK                         _______ _______ _______ _____ _____    ______ ____
ROOT
ATOM      5  C   UNL     1      -2.609   2.666  24.686  0.00  0.00    +0.162 C 
ATOM      6  C   UNL     1      -1.788   2.725  24.649  0.00  0.00    +0.055 C 
ATOM      7  C   UNL     1      -1.339   2.081  24.395  0.00  0.00    -0.004 A 
ATOM      8  C   UNL     1      -1.711   1.378  24.177  0.00  0.00    +0.070 A 
ATOM      9  N   UNL     1      -1.129   0.841  23.951  0.00  0.00    -0.249 NA
ATOM     10  C   UNL     1      -0.395   1.210  24.028  0.00  0.00    +0.081 A 
ATOM     11  C   UNL     1      -0.526   1.978  24.303  0.00  0.00    +0.015 A 
ATOM     12  C   UNL     1       0.114   2.483  24.433  0.00  0.00    +0.001 A 
ATOM     13  C   UNL     1       0.883   2.221  24.289  0.00  0.00    +0.000 A 
ATOM     14  C   UNL     1       1.012   1.453  24.014  0.00  0.00    +0.002 A 
ATOM     15  C   UNL     1       0.373   0.948  23.883  0.00  0.00    +0.019 A 
ATOM     16  C   UNL     1      -2.534   1.319  24.214  0.00  0.00    +0.100 C 
ATOM     17  C   UNL     1      -2.907   0.617  23.997  0.00  0.00    +0.040 C 
ATOM     18  C   UNL     1      -3.729   0.557  24.033  0.00  0.00    +0.076 C 
ATOM     19  C   UNL     1      -4.178   1.201  24.288  0.00  0.00    +0.038 C 
ATOM     20  C   UNL     1      -3.804   1.904  24.505  0.00  0.00    +0.082 C 
ATOM     21  N   UNL     1      -2.983   1.963  24.468  0.00  0.00    -0.258 NA
ENDROOT
BRANCH  20  22
ATOM     22  C   UNL     1      -4.254   2.547  24.759  0.00  0.00    -0.007 A 
ATOM     23  C   UNL     1      -4.349   3.204  24.269  0.00  0.00    -0.003 A 
ATOM     24  C   UNL     1      -4.799   3.847  24.524  0.00  0.00    +0.001 A 
ATOM     25  C   UNL     1      -5.154   3.833  25.269  0.00  0.00    +0.011 A 
ATOM     26  C   UNL     1      -5.059   3.176  25.759  0.00  0.00    +0.057 A 
ATOM     27 CL   UNL     1      -5.414   3.162  26.504  0.00  0.00    -0.082 Cl
ATOM     28  C   UNL     1      -4.609   2.533  25.504  0.00  0.00    +0.008 A 
ENDBRANCH  20  22
BRANCH   5   3
ATOM      3  C   UNL     1      -3.058   3.310  24.940  0.00  0.00    +0.332 C 
ATOM      4  O   UNL     1      -3.690   3.841  24.925  0.00  0.00    -0.249 OA
BRANCH   3   2
ATOM      1  C   UNL     1      -2.396   4.455  25.479  0.00  0.00    +0.256 C 
ATOM      2  O   UNL     1      -2.814   3.753  25.591  0.00  0.00    -0.443 OA
ENDBRANCH   3   2
ENDBRANCH   5   3
BRANCH  18  29
ATOM     29  N   UNL     1      -4.102  -0.146  23.816  0.00  0.00    -0.219 NA
BRANCH  29  30
ATOM     30  C   UNL     1      -3.972  -0.834  24.252  0.00  0.00    +0.095 C 
BRANCH  30  31
ATOM     31  C   UNL     1      -4.256  -1.558  23.975  0.00  0.00    +0.066 C 
BRANCH  31  32
ATOM     32  C   UNL     1      -3.933  -2.263  24.258  0.00  0.00    +0.081 A 
ATOM     33  C   UNL     1      -3.840  -2.960  23.827  0.00  0.00    +0.115 A 
ATOM     34  N   UNL     1      -3.496  -3.522  24.323  0.00  0.00    -0.221 NA
ATOM     35  C   UNL     1      -3.376  -3.171  25.061  0.00  0.00    +0.199 A 
ATOM     36  N   UNL     1      -3.646  -2.393  25.020  0.00  0.00    -0.227 NA
ENDBRANCH  31  32
ENDBRANCH  30  31
ENDBRANCH  29  30
ENDBRANCH  18  29
TORSDOF 7
ENDMDL
