MODEL 1
REMARK VINA RESULT:      -9.8      0.000      0.000
REMARK  Name = 
REMARK  9 active torsions:
REMARK  status: ('A' for Active; 'I' for Inactive)
REMARK    1  A    between atoms: C_2  and  O_3
REMARK    2  A    between atoms: O_3  and  C_4
REMARK    3  A    between atoms: C_4  and  C_6
REMARK    4  A    between atoms: C_10  and  N_11
REMARK    5  A    between atoms: C_17  and  C_18
REMARK    6  A    between atoms: C_18  and  C_19
REMARK    7  A    between atoms: N_21  and  C_22
REMARK    8  A    between atoms: C_22  and  C_23
REMARK    9  A    between atoms: C_30  and  C_31
REMARK                            x       y       z     vdW  Elec       q    Type
REMARK                         _______ _______ _______ _____ _____    ______ ____
ROOT
ATOM     11  N   UNL     1      -1.774   2.123  25.095  0.00  0.00    -0.162 NA
ATOM     12  C   UNL     1      -1.242   2.230  24.474  0.00  0.00    +0.327 C 
ATOM     13  O   UNL     1      -1.179   2.968  24.107  0.00  0.00    -0.250 OA
ATOM     14  N   UNL     1      -0.773   1.602  24.218  0.00  0.00    -0.263 N 
ATOM     15  C   UNL     1      -0.242   1.710  23.597  0.00  0.00    +0.095 C 
ATOM     16  C   UNL     1       0.227   1.081  23.341  0.00  0.00    +0.022 C 
ATOM     17  C   UNL     1       0.165   0.344  23.707  0.00  0.00    +0.012 C 
ATOM     30  C   UNL     1      -0.367   0.236  24.329  0.00  0.00    +0.020 C 
ATOM     33  C   UNL     1      -0.836   0.865  24.584  0.00  0.00    +0.095 C 
ENDROOT
BRANCH  11  10
ATOM      6  C   UNL     1      -3.522   3.379  25.454  0.00  0.00    +0.077 A 
ATOM      7  C   UNL     1      -3.179   4.009  25.863  0.00  0.00    +0.007 A 
ATOM      8  C   UNL     1      -2.369   4.010  26.017  0.00  0.00    +0.002 A 
ATOM      9  C   UNL     1      -1.900   3.381  25.761  0.00  0.00    +0.017 A 
ATOM     10  C   UNL     1      -2.242   2.751  25.351  0.00  0.00    +0.075 A 
ATOM     34  C   UNL     1      -3.053   2.751  25.198  0.00  0.00    +0.023 A 
BRANCH   6   4
ATOM      4  C   UNL     1      -4.333   3.379  25.301  0.00  0.00    +0.341 C 
ATOM      5  O   UNL     1      -4.650   3.919  24.764  0.00  0.00    -0.245 OA
BRANCH   4   3
ATOM      3  O   UNL     1      -4.825   2.840  25.684  0.00  0.00    -0.445 OA
BRANCH   3   2
ATOM      1  C   UNL     1      -6.096   2.199  25.805  0.00  0.00    +0.051 C 
ATOM      2  C   UNL     1      -5.620   2.782  25.469  0.00  0.00    +0.209 C 
ENDBRANCH   3   2
ENDBRANCH   4   3
ENDBRANCH   6   4
ENDBRANCH  11  10
BRANCH  30  31
ATOM     31  C   UNL     1      -0.430  -0.500  24.694  0.00  0.00    +0.002 C 
ATOM     32  C   UNL     1      -0.983  -0.617  25.295  0.00  0.00    +0.000 C 
ENDBRANCH  30  31
BRANCH  17  18
ATOM     18  C   UNL     1       0.634  -0.285  23.451  0.00  0.00    +0.087 C 
BRANCH  18  19
ATOM     19  C   UNL     1       1.227  -0.156  22.893  0.00  0.00    +0.242 C 
ATOM     20  O   UNL     1       1.035  -0.088  22.093  0.00  0.00    -0.273 OA
ATOM     21  N   UNL     1       2.013  -0.095  23.135  0.00  0.00    -0.201 NA
BRANCH  21  22
ATOM     22  C   UNL     1       2.608   0.034  22.576  0.00  0.00    +0.141 C 
BRANCH  22  23
ATOM     23  C   UNL     1       3.390   0.125  22.821  0.00  0.00    -0.000 A 
ATOM     24  C   UNL     1       3.784   0.838  22.689  0.00  0.00    -0.000 A 
ATOM     25  C   UNL     1       4.566   0.929  22.934  0.00  0.00    +0.029 A 
ATOM     26  C   UNL     1       4.955   0.307  23.311  0.00  0.00    +0.140 A 
ATOM     27  F   UNL     1       5.738   0.398  23.556  0.00  0.00    -0.204 F 
ATOM     28  C   UNL     1       4.562  -0.406  23.443  0.00  0.00    +0.029 A 
ATOM     29  C   UNL     1       3.779  -0.497  23.198  0.00  0.00    -0.000 A 
ENDBRANCH  22  23
ENDBRANCH  21  22
ENDBRANCH  18  19
ENDBRANCH  17  18
TORSDOF 9
ENDMDL
MODEL 2
REMARK VINA RESULT:      -9.4      3.598      6.281
REMARK  Name = 
REMARK  9 active torsions:
REMARK  status: ('A' for Active; 'I' for Inactive)
REMARK    1  A    between atoms: C_2  and  O_3
REMARK    2  A    between atoms: O_3  and  C_4
REMARK    3  A    between atoms: C_4  and  C_6
REMARK    4  A    between atoms: C_10  and  N_11
REMARK    5  A    between atoms: C_17  and  C_18
REMARK    6  A    between atoms: C_18  and  C_19
REMARK    7  A    between atoms: N_21  and  C_22
REMARK    8  A    between atoms: C_22  and  C_23
REMARK    9  A    between atoms: C_30  and  C_31
REMARK                            x       y       z     vdW  Elec       q    Type
REMARK                         _______ _______ _______ _____ _____    ______ ____
ROOT
ATOM     11  N   UNL     1      -3.875  -0.393  24.113  0.00  0.00    -0.162 NA
ATOM     12  C   UNL     1      -4.148  -0.004  24.788  0.00  0.00    +0.327 C 
ATOM     13  O   UNL     1      -4.307  -0.433  25.476  0.00  0.00    -0.250 OA
ATOM     14  N   UNL     1      -4.262   0.813  24.776  0.00  0.00    -0.263 N 
ATOM     15  C   UNL     1      -4.534   1.201  25.450  0.00  0.00    +0.095 C 
ATOM     16  C   UNL     1      -4.648   2.018  25.439  0.00  0.00    +0.022 C 
ATOM     17  C   UNL     1      -4.489   2.447  24.752  0.00  0.00    +0.012 C 
ATOM     30  C   UNL     1      -4.216   2.058  24.077  0.00  0.00    +0.020 C 
ATOM     33  C   UNL     1      -4.103   1.241  24.089  0.00  0.00    +0.095 C 
ENDROOT
BRANCH  11  10
ATOM      6  C   UNL     1      -2.899  -2.337  24.289  0.00  0.00    +0.077 A 
ATOM      7  C   UNL     1      -3.535  -2.844  24.149  0.00  0.00    +0.007 A 
ATOM      8  C   UNL     1      -4.284  -2.534  23.998  0.00  0.00    +0.002 A 
ATOM      9  C   UNL     1      -4.398  -1.717  23.986  0.00  0.00    +0.017 A 
ATOM     10  C   UNL     1      -3.762  -1.209  24.125  0.00  0.00    +0.075 A 
ATOM     34  C   UNL     1      -3.012  -1.520  24.277  0.00  0.00    +0.023 A 
BRANCH   6   4
ATOM      4  C   UNL     1      -2.149  -2.647  24.440  0.00  0.00    +0.341 C 
ATOM      5  O   UNL     1      -1.901  -3.332  24.052  0.00  0.00    -0.245 OA
BRANCH   4   3
ATOM      3  O   UNL     1      -1.649  -2.275  24.978  0.00  0.00    -0.445 OA
BRANCH   3   2
ATOM      1  C   UNL     1      -0.317  -1.913  25.349  0.00  0.00    +0.051 C 
ATOM      2  C   UNL     1      -0.836  -2.417  24.954  0.00  0.00    +0.209 C 
ENDBRANCH   3   2
ENDBRANCH   4   3
ENDBRANCH   6   4
ENDBRANCH  11  10
BRANCH  30  31
ATOM     31  C   UNL     1      -4.058   2.486  23.391  0.00  0.00    +0.002 C 
ATOM     32  C   UNL     1      -3.539   2.183  22.826  0.00  0.00    +0.000 C 
ENDBRANCH  30  31
BRANCH  17  18
ATOM     18  C   UNL     1      -4.603   3.264  24.740  0.00  0.00    +0.087 C 
BRANCH  18  19
ATOM     19  C   UNL     1      -4.175   3.747  25.254  0.00  0.00    +0.242 C 
ATOM     20  O   UNL     1      -4.514   3.999  25.962  0.00  0.00    -0.273 OA
ATOM     21  N   UNL     1      -3.408   3.978  25.058  0.00  0.00    -0.201 NA
BRANCH  21  22
ATOM     22  C   UNL     1      -2.979   4.462  25.572  0.00  0.00    +0.141 C 
BRANCH  22  23
ATOM     23  C   UNL     1      -2.211   4.691  25.377  0.00  0.00    -0.000 A 
ATOM     24  C   UNL     1      -1.593   4.146  25.430  0.00  0.00    -0.000 A 
ATOM     25  C   UNL     1      -0.825   4.375  25.235  0.00  0.00    +0.029 A 
ATOM     26  C   UNL     1      -0.674   5.146  24.988  0.00  0.00    +0.140 A 
ATOM     27  F   UNL     1       0.095   5.375  24.793  0.00  0.00    -0.204 F 
ATOM     28  C   UNL     1      -1.291   5.691  24.935  0.00  0.00    +0.029 A 
ATOM     29  C   UNL     1      -2.060   5.462  25.130  0.00  0.00    -0.000 A 
ENDBRANCH  22  23
ENDBRANCH  21  22
ENDBRANCH  18  19
ENDBRANCH  17  18
TORSDOF 9
ENDMDL
MODEL 3
REMARK VINA RESULT:      -9.2      2.681      7.158
REMARK  Name = 
REMARK  9 active torsions:
REMARK  status: ('A' for Active; 'I' for Inactive)
REMARK    1  A    between atoms: C_2  and  O_3
REMARK    2  A    between atoms: O_3  and  C_4
REMARK    3  A    between atoms: C_4  and  C_6
REMARK    4  A    between atoms: C_10  and  N_11
REMARK    5  A    between atoms: C_17  and  C_18
REMARK    6  A    between atoms: C_18  and  C_19
REMARK    7  A    between atoms: N_21  and  C_22
REMARK    8  A    between atoms: C_22  and  C_23
REMARK    9  A    between atoms: C_30  and  C_31
REMARK                            x       y       z     vdW  Elec       q    Type
REMARK                         _______ _______ _______ _____ _____    ______ ____
ROOT
ATOM     11  N   UNL     1       0.847  -0.202  23.305  0.00  0.00    -0.162 NA
ATOM     12  C   UNL     1       0.236   0.350  23.254  0.00  0.00    +0.327 C 
ATOM     13  O   UNL     1       0.293   0.981  22.725  0.00  0.00    -0.250 OA
ATOM     14  N   UNL     1      -0.432   0.272  23.731  0.00  0.00    -0.263 N 
ATOM     15  C   UNL     1      -1.043   0.823  23.680  0.00  0.00    +0.095 C 
ATOM     16  C   UNL     1      -1.711   0.745  24.157  0.00  0.00    +0.022 C 
ATOM     17  C   UNL     1      -1.769   0.114  24.686  0.00  0.00    +0.012 C 
ATOM     30  C   UNL     1      -1.157  -0.438  24.738  0.00  0.00    +0.020 C 
ATOM     33  C   UNL     1      -0.489  -0.359  24.260  0.00  0.00    +0.095 C 
ENDROOT
BRANCH  11  10
ATOM      6  C   UNL     1       2.876   0.279  22.661  0.00  0.00    +0.077 A 
ATOM      7  C   UNL     1       2.852   0.033  21.873  0.00  0.00    +0.007 A 
ATOM      8  C   UNL     1       2.159  -0.290  21.563  0.00  0.00    +0.002 A 
ATOM      9  C   UNL     1       1.491  -0.369  22.040  0.00  0.00    +0.017 A 
ATOM     10  C   UNL     1       1.515  -0.123  22.828  0.00  0.00    +0.075 A 
ATOM     34  C   UNL     1       2.208   0.201  23.138  0.00  0.00    +0.023 A 
BRANCH   6   4
ATOM      4  C   UNL     1       3.569   0.603  22.970  0.00  0.00    +0.341 C 
ATOM      5  O   UNL     1       3.634   1.420  23.067  0.00  0.00    -0.245 OA
BRANCH   4   3
ATOM      3  O   UNL     1       4.196   0.112  23.182  0.00  0.00    -0.445 OA
BRANCH   3   2
ATOM      1  C   UNL     1       5.515  -0.045  23.710  0.00  0.00    +0.051 C 
ATOM      2  C   UNL     1       4.920   0.439  23.407  0.00  0.00    +0.209 C 
ENDBRANCH   3   2
ENDBRANCH   4   3
ENDBRANCH   6   4
ENDBRANCH  11  10
BRANCH  30  31
ATOM     31  C   UNL     1      -1.214  -1.068  25.266  0.00  0.00    +0.002 C 
ATOM     32  C   UNL     1      -0.562  -1.554  25.401  0.00  0.00    +0.000 C 
ENDBRANCH  30  31
BRANCH  17  18
ATOM     18  C   UNL     1      -2.437   0.035  25.164  0.00  0.00    +0.087 C 
BRANCH  18  19
ATOM     19  C   UNL     1      -3.184   0.209  24.859  0.00  0.00    +0.242 C 
ATOM     20  O   UNL     1      -3.527  -0.288  24.297  0.00  0.00    -0.273 OA
ATOM     21  N   UNL     1      -3.587   0.880  25.117  0.00  0.00    -0.201 NA
BRANCH  21  22
ATOM     22  C   UNL     1      -4.335   1.055  24.812  0.00  0.00    +0.141 C 
BRANCH  22  23
ATOM     23  C   UNL     1      -4.728   1.739  25.053  0.00  0.00    -0.000 A 
ATOM     24  C   UNL     1      -4.467   2.477  24.793  0.00  0.00    -0.000 A 
ATOM     25  C   UNL     1      -4.860   3.161  25.034  0.00  0.00    +0.029 A 
ATOM     26  C   UNL     1      -5.514   3.107  25.533  0.00  0.00    +0.140 A 
ATOM     27  F   UNL     1      -5.908   3.792  25.773  0.00  0.00    -0.204 F 
ATOM     28  C   UNL     1      -5.776   2.369  25.792  0.00  0.00    +0.029 A 
ATOM     29  C   UNL     1      -5.382   1.685  25.552  0.00  0.00    -0.000 A 
ENDBRANCH  22  23
ENDBRANCH  21  22
ENDBRANCH  18  19
ENDBRANCH  17  18
TORSDOF 9
ENDMDL
MODEL 4
REMARK VINA RESULT:      -9.1      1.722      2.445
REMARK  Name = 
REMARK  9 active torsions:
REMARK  status: ('A' for Active; 'I' for Inactive)
REMARK    1  A    between atoms: C_2  and  O_3
REMARK    2  A    between atoms: O_3  and  C_4
REMARK    3  A    between atoms: C_4  and  C_6
REMARK    4  A    between atoms: C_10  and  N_11
REMARK    5  A    between atoms: C_17  and  C_18
REMARK    6  A    between atoms: C_18  and  C_19
REMARK    7  A    between atoms: N_21  and  C_22
REMARK    8  A    between atoms: C_22  and  C_23
REMARK    9  A    between atoms: C_30  and  C_31
REMARK                            x       y       z     vdW  Elec       q    Type
REMARK                         _______ _______ _______ _____ _____    ______ ____
ROOT
ATOM     11  N   UNL     1      -1.777   0.211  24.855  0.00  0.00    -0.162 NA
ATOM     12  C   UNL     1      -1.275  -0.232  24.373  0.00  0.00    +0.327 C 
ATOM     13  O   UNL     1      -1.484  -1.002  24.158  0.00  0.00    -0.250 OA
ATOM     14  N   UNL     1      -0.567   0.093  24.105  0.00  0.00    -0.263 N 
ATOM     15  C   UNL     1      -0.066  -0.350  23.623  0.00  0.00    +0.095 C 
ATOM     16  C   UNL     1       0.644  -0.026  23.354  0.00  0.00    +0.022 C 
ATOM     17  C   UNL     1       0.852   0.743  23.569  0.00  0.00    +0.012 C 
ATOM     30  C   UNL     1       0.350   1.187  24.052  0.00  0.00    +0.020 C 
ATOM     33  C   UNL     1      -0.358   0.861  24.319  0.00  0.00    +0.095 C 
ENDROOT
BRANCH  11  10
ATOM      6  C   UNL     1      -3.913  -0.096  25.178  0.00  0.00    +0.077 A 
ATOM      7  C   UNL     1      -3.904  -0.766  25.660  0.00  0.00    +0.007 A 
ATOM      8  C   UNL     1      -3.185  -1.110  25.874  0.00  0.00    +0.002 A 
ATOM      9  C   UNL     1      -2.476  -0.785  25.606  0.00  0.00    +0.017 A 
ATOM     10  C   UNL     1      -2.485  -0.114  25.123  0.00  0.00    +0.075 A 
ATOM     34  C   UNL     1      -3.205   0.229  24.910  0.00  0.00    +0.023 A 
BRANCH   6   4
ATOM      4  C   UNL     1      -4.632   0.248  24.964  0.00  0.00    +0.341 C 
ATOM      5  O   UNL     1      -5.073  -0.070  24.343  0.00  0.00    -0.245 OA
BRANCH   4   3
ATOM      3  O   UNL     1      -4.911   0.909  25.371  0.00  0.00    -0.445 OA
BRANCH   3   2
ATOM      1  C   UNL     1      -5.815   2.012  25.468  0.00  0.00    +0.051 C 
ATOM      2  C   UNL     1      -5.525   1.360  25.054  0.00  0.00    +0.209 C 
ENDBRANCH   3   2
ENDBRANCH   4   3
ENDBRANCH   6   4
ENDBRANCH  11  10
BRANCH  30  31
ATOM     31  C   UNL     1       0.558   1.955  24.266  0.00  0.00    +0.002 C 
ATOM     32  C   UNL     1       0.161   2.334  24.882  0.00  0.00    +0.000 C 
ENDBRANCH  30  31
BRANCH  17  18
ATOM     18  C   UNL     1       1.562   1.069  23.300  0.00  0.00    +0.087 C 
BRANCH  18  19
ATOM     19  C   UNL     1       2.126   0.587  22.941  0.00  0.00    +0.242 C 
ATOM     20  O   UNL     1       1.908   0.088  22.321  0.00  0.00    -0.273 OA
ATOM     21  N   UNL     1       2.908   0.605  23.201  0.00  0.00    -0.201 NA
BRANCH  21  22
ATOM     22  C   UNL     1       3.474   0.123  22.841  0.00  0.00    +0.141 C 
BRANCH  22  23
ATOM     23  C   UNL     1       4.211   0.017  23.196  0.00  0.00    -0.000 A 
ATOM     24  C   UNL     1       4.393  -0.700  23.563  0.00  0.00    -0.000 A 
ATOM     25  C   UNL     1       5.130  -0.805  23.918  0.00  0.00    +0.029 A 
ATOM     26  C   UNL     1       5.684  -0.196  23.906  0.00  0.00    +0.140 A 
ATOM     27  F   UNL     1       6.422  -0.302  24.261  0.00  0.00    -0.204 F 
ATOM     28  C   UNL     1       5.503   0.521  23.540  0.00  0.00    +0.029 A 
ATOM     29  C   UNL     1       4.765   0.627  23.184  0.00  0.00    -0.000 A 
ENDBRANCH  22  23
ENDBRANCH  21  22
ENDBRANCH  18  19
ENDBRANCH  17  18
TORSDOF 9
ENDMDL
MODEL 5
REMARK VINA RESULT:      -8.9      2.511      7.257
REMARK  Name = 
REMARK  9 active torsions:
REMARK  status: ('A' for Active; 'I' for Inactive)
REMARK    1  A    between atoms: C_2  and  O_3
REMARK    2  A    between atoms: O_3  and  C_4
REMARK    3  A    between atoms: C_4  and  C_6
REMARK    4  A    between atoms: C_10  and  N_11
REMARK    5  A    between atoms: C_17  and  C_18
REMARK    6  A    between atoms: C_18  and  C_19
REMARK    7  A    between atoms: N_21  and  C_22
REMARK    8  A    between atoms: C_22  and  C_23
REMARK    9  A    between atoms: C_30  and  C_31
REMARK                            x       y       z     vdW  Elec       q    Type
REMARK                         _______ _______ _______ _____ _____    ______ ____
ROOT
ATOM     11  N   UNL     1       0.794   1.153  23.943  0.00  0.00    -0.162 NA
ATOM     12  C   UNL     1       0.075   1.435  23.653  0.00  0.00    +0.327 C 
ATOM     13  O   UNL     1      -0.164   1.245  22.885  0.00  0.00    -0.250 OA
ATOM     14  N   UNL     1      -0.406   1.907  24.128  0.00  0.00    -0.263 N 
ATOM     15  C   UNL     1      -1.124   2.188  23.838  0.00  0.00    +0.095 C 
ATOM     16  C   UNL     1      -1.606   2.660  24.314  0.00  0.00    +0.022 C 
ATOM     17  C   UNL     1      -1.368   2.850  25.081  0.00  0.00    +0.012 C 
ATOM     30  C   UNL     1      -0.648   2.569  25.372  0.00  0.00    +0.020 C 
ATOM     33  C   UNL     1      -0.168   2.097  24.895  0.00  0.00    +0.095 C 
ENDROOT
BRANCH  11  10
ATOM      6  C   UNL     1       2.550   0.407  22.883  0.00  0.00    +0.077 A 
ATOM      7  C   UNL     1       2.237  -0.263  22.514  0.00  0.00    +0.007 A 
ATOM      8  C   UNL     1       1.443  -0.459  22.622  0.00  0.00    +0.002 A 
ATOM      9  C   UNL     1       0.962   0.013  23.098  0.00  0.00    +0.017 A 
ATOM     10  C   UNL     1       1.275   0.682  23.467  0.00  0.00    +0.075 A 
ATOM     34  C   UNL     1       2.069   0.878  23.359  0.00  0.00    +0.023 A 
BRANCH   6   4
ATOM      4  C   UNL     1       3.344   0.603  22.775  0.00  0.00    +0.341 C 
ATOM      5  O   UNL     1       3.550   1.230  22.281  0.00  0.00    -0.245 OA
BRANCH   4   3
ATOM      3  O   UNL     1       3.932   0.172  23.161  0.00  0.00    -0.445 OA
BRANCH   3   2
ATOM      1  C   UNL     1       5.296   0.024  23.559  0.00  0.00    +0.051 C 
ATOM      2  C   UNL     1       4.717   0.426  23.132  0.00  0.00    +0.209 C 
ENDBRANCH   3   2
ENDBRANCH   4   3
ENDBRANCH   6   4
ENDBRANCH  11  10
BRANCH  30  31
ATOM     31  C   UNL     1      -0.410   2.759  26.137  0.00  0.00    +0.002 C 
ATOM     32  C   UNL     1       0.179   2.316  26.509  0.00  0.00    +0.000 C 
ENDBRANCH  30  31
BRANCH  17  18
ATOM     18  C   UNL     1      -1.849   3.322  25.557  0.00  0.00    +0.087 C 
BRANCH  18  19
ATOM     19  C   UNL     1      -2.569   3.601  25.267  0.00  0.00    +0.242 C 
ATOM     20  O   UNL     1      -2.592   4.285  24.806  0.00  0.00    -0.273 OA
ATOM     21  N   UNL     1      -3.267   3.195  25.439  0.00  0.00    -0.201 NA
BRANCH  21  22
ATOM     22  C   UNL     1      -3.988   3.474  25.149  0.00  0.00    +0.141 C 
BRANCH  22  23
ATOM     23  C   UNL     1      -4.670   3.019  25.236  0.00  0.00    -0.000 A 
ATOM     24  C   UNL     1      -4.887   2.485  24.644  0.00  0.00    -0.000 A 
ATOM     25  C   UNL     1      -5.569   2.030  24.731  0.00  0.00    +0.029 A 
ATOM     26  C   UNL     1      -6.034   2.107  25.407  0.00  0.00    +0.140 A 
ATOM     27  F   UNL     1      -6.717   1.651  25.493  0.00  0.00    -0.204 F 
ATOM     28  C   UNL     1      -5.817   2.639  25.998  0.00  0.00    +0.029 A 
ATOM     29  C   UNL     1      -5.134   3.096  25.912  0.00  0.00    -0.000 A 
ENDBRANCH  22  23
ENDBRANCH  21  22
ENDBRANCH  18  19
ENDBRANCH  17  18
TORSDOF 9
ENDMDL
MODEL 6
REMARK VINA RESULT:      -8.4      2.864      4.526
REMARK  Name = 
REMARK  9 active torsions:
REMARK  status: ('A' for Active; 'I' for Inactive)
REMARK    1  A    between atoms: C_2  and  O_3
REMARK    2  A    between atoms: O_3  and  C_4
REMARK    3  A    between atoms: C_4  and  C_6
REMARK    4  A    between atoms: C_10  and  N_11
REMARK    5  A    between atoms: C_17  and  C_18
REMARK    6  A    between atoms: C_18  and  C_19
REMARK    7  A    between atoms: N_21  and  C_22
REMARK    8  A    between atoms: C_22  and  C_23
REMARK    9  A    between atoms: C_30  and  C_31
REMARK                            x       y       z     vdW  Elec       q    Type
REMARK                         _______ _______ _______ _____ _____    ______ ____
ROOT
ATOM     11  N   UNL     1      -0.949   2.661  24.719  0.00  0.00    -0.162 NA
ATOM     12  C   UNL     1      -1.028   2.082  25.302  0.00  0.00    +0.327 C 
ATOM     13  O   UNL     1      -1.298   2.288  26.055  0.00  0.00    -0.250 OA
ATOM     14  N   UNL     1      -0.838   1.298  25.134  0.00  0.00    -0.263 N 
ATOM     15  C   UNL     1      -0.916   0.720  25.716  0.00  0.00    +0.095 C 
ATOM     16  C   UNL     1      -0.726  -0.065  25.548  0.00  0.00    +0.022 C 
ATOM     17  C   UNL     1      -0.456  -0.272  24.796  0.00  0.00    +0.012 C 
ATOM     30  C   UNL     1      -0.377   0.307  24.212  0.00  0.00    +0.020 C 
ATOM     33  C   UNL     1      -0.568   1.091  24.382  0.00  0.00    +0.095 C 
ENDROOT
BRANCH  11  10
ATOM      6  C   UNL     1      -2.092   4.424  25.307  0.00  0.00    +0.077 A 
ATOM      7  C   UNL     1      -1.521   5.015  25.225  0.00  0.00    +0.007 A 
ATOM      8  C   UNL     1      -0.760   4.820  24.975  0.00  0.00    +0.002 A 
ATOM      9  C   UNL     1      -0.568   4.035  24.806  0.00  0.00    +0.017 A 
ATOM     10  C   UNL     1      -1.140   3.445  24.888  0.00  0.00    +0.075 A 
ATOM     34  C   UNL     1      -1.902   3.640  25.139  0.00  0.00    +0.023 A 
BRANCH   6   4
ATOM      4  C   UNL     1      -2.854   4.620  25.558  0.00  0.00    +0.341 C 
ATOM      5  O   UNL     1      -2.959   5.158  26.175  0.00  0.00    -0.245 OA
BRANCH   4   3
ATOM      3  O   UNL     1      -3.509   4.279  25.193  0.00  0.00    -0.445 OA
BRANCH   3   2
ATOM      1  C   UNL     1      -4.846   3.783  25.287  0.00  0.00    +0.051 C 
ATOM      2  C   UNL     1      -4.230   4.238  25.592  0.00  0.00    +0.209 C 
ENDBRANCH   3   2
ENDBRANCH   4   3
ENDBRANCH   6   4
ENDBRANCH  11  10
BRANCH  30  31
ATOM     31  C   UNL     1      -0.108   0.101  23.461  0.00  0.00    +0.002 C 
ATOM     32  C   UNL     1       0.488   0.543  23.100  0.00  0.00    +0.000 C 
ENDBRANCH  30  31
BRANCH  17  18
ATOM     18  C   UNL     1      -0.265  -1.057  24.627  0.00  0.00    +0.087 C 
BRANCH  18  19
ATOM     19  C   UNL     1      -0.757  -1.666  24.888  0.00  0.00    +0.242 C 
ATOM     20  O   UNL     1      -0.524  -2.142  25.520  0.00  0.00    -0.273 OA
ATOM     21  N   UNL     1      -1.481  -1.798  24.515  0.00  0.00    -0.201 NA
BRANCH  21  22
ATOM     22  C   UNL     1      -1.973  -2.407  24.776  0.00  0.00    +0.141 C 
BRANCH  22  23
ATOM     23  C   UNL     1      -2.746  -2.461  24.493  0.00  0.00    -0.000 A 
ATOM     24  C   UNL     1      -3.246  -1.805  24.531  0.00  0.00    -0.000 A 
ATOM     25  C   UNL     1      -4.019  -1.860  24.248  0.00  0.00    +0.029 A 
ATOM     26  C   UNL     1      -4.292  -2.568  23.927  0.00  0.00    +0.140 A 
ATOM     27  F   UNL     1      -5.066  -2.622  23.643  0.00  0.00    -0.204 F 
ATOM     28  C   UNL     1      -3.793  -3.223  23.888  0.00  0.00    +0.029 A 
ATOM     29  C   UNL     1      -3.019  -3.169  24.172  0.00  0.00    -0.000 A 
ENDBRANCH  22  23
ENDBRANCH  21  22
ENDBRANCH  18  19
ENDBRANCH  17  18
TORSDOF 9
ENDMDL
