MODEL 1
REMARK VINA RESULT:      -8.6      0.000      0.000
REMARK  Name = 
REMARK  7 active torsions:
REMARK  status: ('A' for Active; 'I' for Inactive)
REMARK    1  A    between atoms: N_2  and  C_4
REMARK    2  A    between atoms: C_7  and  C_10
REMARK    3  A    between atoms: N_15  and  C_16
REMARK    4  A    between atoms: C_20  and  O_24
REMARK    5  A    between atoms: O_24  and  C_25
REMARK    6  A    between atoms: N_27  and  C_28
REMARK    7  A    between atoms: C_30  and  C_34
REMARK                            x       y       z     vdW  Elec       q    Type
REMARK                         _______ _______ _______ _____ _____    ______ ____
ROOT
ATOM     16  C   UNL     1      -0.399   0.751  23.709  0.00  0.00    +0.155 C 
ATOM     17  C   UNL     1      -0.779   1.102  23.067  0.00  0.00    +0.166 C 
ATOM     18  O   UNL     1      -1.589   0.967  23.145  0.00  0.00    -0.348 OA
ATOM     19  C   UNL     1      -1.710   0.533  23.835  0.00  0.00    +0.186 C 
ATOM     20  C   UNL     1      -2.284   0.180  24.311  0.00  0.00    +0.229 C 
ATOM     21  C   UNL     1      -1.905  -0.171  24.954  0.00  0.00    +0.188 C 
ATOM     22  O   UNL     1      -1.095  -0.036  24.875  0.00  0.00    -0.348 OA
ATOM     23  C   UNL     1      -0.974   0.399  24.184  0.00  0.00    +0.168 C 
ENDROOT
BRANCH  16  15
ATOM     10  C   UNL     1       2.261   0.116  22.877  0.00  0.00    +0.086 A 
ATOM     11  C   UNL     1       1.965  -0.203  22.176  0.00  0.00    +0.040 A 
ATOM     12  C   UNL     1       1.152  -0.204  22.033  0.00  0.00    +0.103 A 
ATOM     13  N   UNL     1       0.635   0.114  22.592  0.00  0.00    -0.211 NA
ATOM     14  C   UNL     1       0.931   0.433  23.293  0.00  0.00    +0.237 A 
ATOM     15  N   UNL     1       0.414   0.751  23.852  0.00  0.00    -0.200 NA
ATOM     37  N   UNL     1       1.743   0.434  23.436  0.00  0.00    -0.212 NA
BRANCH  10   7
ATOM      4  C   UNL     1       4.699   0.117  23.304  0.00  0.00    +0.048 A 
ATOM      5  C   UNL     1       4.337   0.781  22.972  0.00  0.00    +0.015 A 
ATOM      6  C   UNL     1       3.525   0.780  22.830  0.00  0.00    +0.003 A 
ATOM      7  C   UNL     1       3.073   0.116  23.019  0.00  0.00    +0.018 A 
ATOM      8  C   UNL     1       3.434  -0.547  23.351  0.00  0.00    +0.003 A 
ATOM      9  C   UNL     1       4.247  -0.547  23.493  0.00  0.00    +0.015 A 
BRANCH   4   2
ATOM      1  C   UNL     1       5.809   0.462  24.134  0.00  0.00    +0.112 C 
ATOM      2  N   UNL     1       5.511   0.118  23.446  0.00  0.00    -0.304 N 
ATOM      3  C   UNL     1       6.026  -0.226  22.901  0.00  0.00    +0.112 C 
ENDBRANCH   4   2
ENDBRANCH  10   7
ENDBRANCH  16  15
BRANCH  20  24
ATOM     24  O   UNL     1      -3.097   0.180  24.169  0.00  0.00    -0.432 OA
BRANCH  24  25
ATOM     25  C   UNL     1      -3.602   0.619  24.652  0.00  0.00    +0.425 C 
ATOM     26  O   UNL     1      -3.596   0.502  25.468  0.00  0.00    -0.224 OA
ATOM     27  N   UNL     1      -4.111   1.175  24.319  0.00  0.00    -0.142 NA
BRANCH  27  28
ATOM     28  C   UNL     1      -4.615   1.615  24.801  0.00  0.00    +0.077 A 
ATOM     29  C   UNL     1      -4.468   2.416  24.932  0.00  0.00    +0.020 A 
ATOM     30  C   UNL     1      -4.972   2.855  25.414  0.00  0.00    +0.036 A 
ATOM     31  C   UNL     1      -5.624   2.494  25.767  0.00  0.00    +0.003 A 
ATOM     32  C   UNL     1      -5.772   1.692  25.637  0.00  0.00    +0.001 A 
ATOM     33  C   UNL     1      -5.267   1.253  25.154  0.00  0.00    +0.017 A 
BRANCH  30  34
ATOM     34  C   UNL     1      -4.824   3.657  25.544  0.00  0.00    +0.174 C 
ATOM     35  C   UNL     1      -4.082   3.902  25.809  0.00  0.00    +0.077 C 
ATOM     36  O   UNL     1      -5.419   4.212  25.409  0.00  0.00    -0.291 OA
ENDBRANCH  30  34
ENDBRANCH  27  28
ENDBRANCH  24  25
ENDBRANCH  20  24
TORSDOF 7
ENDMDL
MODEL 2
REMARK VINA RESULT:      -8.1      1.726      7.963
REMARK  Name = 
REMARK  7 active torsions:
REMARK  status: ('A' for Active; 'I' for Inactive)
REMARK    1  A    between atoms: N_2  and  C_4
REMARK    2  A    between atoms: C_7  and  C_10
REMARK    3  A    between atoms: N_15  and  C_16
REMARK    4  A    between atoms: C_20  and  O_24
REMARK    5  A    between atoms: O_24  and  C_25
REMARK    6  A    between atoms: N_27  and  C_28
REMARK    7  A    between atoms: C_30  and  C_34
REMARK                            x       y       z     vdW  Elec       q    Type
REMARK                         _______ _______ _______ _____ _____    ______ ____
ROOT
ATOM     16  C   UNL     1      -0.948   0.209  24.374  0.00  0.00    +0.155 C 
ATOM     17  C   UNL     1      -0.866  -0.611  24.340  0.00  0.00    +0.166 C 
ATOM     18  O   UNL     1      -0.180  -0.780  23.916  0.00  0.00    -0.348 OA
ATOM     19  C   UNL     1       0.163  -0.066  23.688  0.00  0.00    +0.186 C 
ATOM     20  C   UNL     1       0.798   0.272  23.284  0.00  0.00    +0.229 C 
ATOM     21  C   UNL     1       0.716   1.092  23.318  0.00  0.00    +0.188 C 
ATOM     22  O   UNL     1       0.030   1.261  23.743  0.00  0.00    -0.348 OA
ATOM     23  C   UNL     1      -0.312   0.546  23.971  0.00  0.00    +0.168 C 
ENDROOT
BRANCH  16  15
ATOM     10  C   UNL     1      -3.707   0.942  24.525  0.00  0.00    +0.086 A 
ATOM     11  C   UNL     1      -3.864   0.487  23.856  0.00  0.00    +0.040 A 
ATOM     12  C   UNL     1      -3.253   0.075  23.484  0.00  0.00    +0.103 A 
ATOM     13  N   UNL     1      -2.485   0.120  23.780  0.00  0.00    -0.211 NA
ATOM     14  C   UNL     1      -2.328   0.576  24.450  0.00  0.00    +0.237 A 
ATOM     15  N   UNL     1      -1.559   0.620  24.747  0.00  0.00    -0.200 NA
ATOM     37  N   UNL     1      -2.938   0.987  24.822  0.00  0.00    -0.212 NA
BRANCH  10   7
ATOM      4  C   UNL     1      -5.539   2.176  25.642  0.00  0.00    +0.048 A 
ATOM      5  C   UNL     1      -5.560   1.351  25.603  0.00  0.00    +0.015 A 
ATOM      6  C   UNL     1      -4.949   0.941  25.231  0.00  0.00    +0.003 A 
ATOM      7  C   UNL     1      -4.317   1.353  24.897  0.00  0.00    +0.018 A 
ATOM      8  C   UNL     1      -4.296   2.177  24.937  0.00  0.00    +0.003 A 
ATOM      9  C   UNL     1      -4.907   2.588  25.309  0.00  0.00    +0.015 A 
BRANCH   4   2
ATOM      1  C   UNL     1      -6.270   3.386  25.848  0.00  0.00    +0.112 C 
ATOM      2  N   UNL     1      -6.150   2.586  26.014  0.00  0.00    -0.304 N 
ATOM      3  C   UNL     1      -6.641   2.199  26.552  0.00  0.00    +0.112 C 
ENDBRANCH   4   2
ENDBRANCH  10   7
ENDBRANCH  16  15
BRANCH  20  24
ATOM     24  O   UNL     1       1.409  -0.140  22.912  0.00  0.00    -0.432 OA
BRANCH  24  25
ATOM     25  C   UNL     1       2.187   0.126  22.980  0.00  0.00    +0.425 C 
ATOM     26  O   UNL     1       2.339   0.902  23.216  0.00  0.00    -0.224 OA
ATOM     27  N   UNL     1       2.814  -0.383  22.811  0.00  0.00    -0.142 NA
BRANCH  27  28
ATOM     28  C   UNL     1       3.592  -0.117  22.879  0.00  0.00    +0.077 A 
ATOM     29  C   UNL     1       4.089  -0.438  23.453  0.00  0.00    +0.020 A 
ATOM     30  C   UNL     1       4.866  -0.173  23.521  0.00  0.00    +0.036 A 
ATOM     31  C   UNL     1       5.148   0.415  23.015  0.00  0.00    +0.003 A 
ATOM     32  C   UNL     1       4.650   0.737  22.440  0.00  0.00    +0.001 A 
ATOM     33  C   UNL     1       3.872   0.470  22.373  0.00  0.00    +0.017 A 
BRANCH  30  34
ATOM     34  C   UNL     1       5.364  -0.494  24.096  0.00  0.00    +0.174 C 
ATOM     35  C   UNL     1       5.763   0.002  24.621  0.00  0.00    +0.077 C 
ATOM     36  O   UNL     1       5.462  -1.312  24.145  0.00  0.00    -0.291 OA
ENDBRANCH  30  34
ENDBRANCH  27  28
ENDBRANCH  24  25
ENDBRANCH  20  24
TORSDOF 7
ENDMDL
MODEL 3
REMARK VINA RESULT:      -5.2     16.367     18.678
REMARK  Name = 
REMARK  7 active torsions:
REMARK  status: ('A' for Active; 'I' for Inactive)
REMARK    1  A    between atoms: N_2  and  C_4
REMARK    2  A    between atoms: C_7  and  C_10
REMARK    3  A    between atoms: N_15  and  C_16
REMARK    4  A    between atoms: C_20  and  O_24
REMARK    5  A    between atoms: O_24  and  C_25
REMARK    6  A    between atoms: N_27  and  C_28
REMARK    7  A    between atoms: C_30  and  C_34
REMARK                            x       y       z     vdW  Elec       q    Type
REMARK                         _______ _______ _______ _____ _____    ______ ____
ROOT
ATOM     16  C   UNL     1      -5.002  -8.398   9.283  0.00  0.00    +0.155 C 
ATOM     17  C   UNL     1      -4.788  -8.894   8.660  0.00  0.00    +0.166 C 
ATOM     18  O   UNL     1      -4.167  -9.372   8.918  0.00  0.00    -0.348 OA
ATOM     19  C   UNL     1      -3.997  -9.171   9.699  0.00  0.00    +0.186 C 
ATOM     20  C   UNL     1      -3.509  -9.342  10.342  0.00  0.00    +0.229 C 
ATOM     21  C   UNL     1      -3.723  -8.845  10.965  0.00  0.00    +0.188 C 
ATOM     22  O   UNL     1      -4.344  -8.367  10.707  0.00  0.00    -0.348 OA
ATOM     23  C   UNL     1      -4.513  -8.569   9.925  0.00  0.00    +0.168 C 
ENDROOT
BRANCH  16  15
ATOM     10  C   UNL     1      -7.713  -7.672   8.740  0.00  0.00    +0.086 A 
ATOM     11  C   UNL     1      -7.872  -8.446   8.501  0.00  0.00    +0.040 A 
ATOM     12  C   UNL     1      -7.273  -9.014   8.518  0.00  0.00    +0.103 A 
ATOM     13  N   UNL     1      -6.516  -8.809   8.773  0.00  0.00    -0.211 NA
ATOM     14  C   UNL     1      -6.357  -8.035   9.011  0.00  0.00    +0.237 A 
ATOM     15  N   UNL     1      -5.600  -7.830   9.267  0.00  0.00    -0.200 NA
ATOM     37  N   UNL     1      -6.955  -7.467   8.995  0.00  0.00    -0.212 NA
BRANCH  10   7
ATOM      4  C   UNL     1      -9.508  -5.969   8.690  0.00  0.00    +0.048 A 
ATOM      5  C   UNL     1      -8.783  -5.817   8.325  0.00  0.00    +0.015 A 
ATOM      6  C   UNL     1      -8.185  -6.384   8.341  0.00  0.00    +0.003 A 
ATOM      7  C   UNL     1      -8.310  -7.105   8.723  0.00  0.00    +0.018 A 
ATOM      8  C   UNL     1      -9.034  -7.258   9.088  0.00  0.00    +0.003 A 
ATOM      9  C   UNL     1      -9.633  -6.690   9.072  0.00  0.00    +0.015 A 
BRANCH   4   2
ATOM      1  C   UNL     1     -10.090  -4.771   9.205  0.00  0.00    +0.112 C 
ATOM      2  N   UNL     1     -10.106  -5.402   8.673  0.00  0.00    -0.304 N 
ATOM      3  C   UNL     1     -10.720  -5.464   8.125  0.00  0.00    +0.112 C 
ENDBRANCH   4   2
ENDBRANCH  10   7
ENDBRANCH  16  15
BRANCH  20  24
ATOM     24  O   UNL     1      -2.910  -9.910  10.359  0.00  0.00    -0.432 OA
BRANCH  24  25
ATOM     25  C   UNL     1      -2.440  -9.995  11.031  0.00  0.00    +0.425 C 
ATOM     26  O   UNL     1      -1.696  -9.641  11.061  0.00  0.00    -0.224 OA
ATOM     27  N   UNL     1      -2.714 -10.433  11.674  0.00  0.00    -0.142 NA
BRANCH  27  28
ATOM     28  C   UNL     1      -2.243 -10.518  12.346  0.00  0.00    +0.077 A 
ATOM     29  C   UNL     1      -2.574 -10.426  13.096  0.00  0.00    +0.020 A 
ATOM     30  C   UNL     1      -2.105 -10.511  13.768  0.00  0.00    +0.036 A 
ATOM     31  C   UNL     1      -1.302 -10.688  13.691  0.00  0.00    +0.003 A 
ATOM     32  C   UNL     1      -0.970 -10.780  12.941  0.00  0.00    +0.001 A 
ATOM     33  C   UNL     1      -1.441 -10.695  12.269  0.00  0.00    +0.017 A 
BRANCH  30  34
ATOM     34  C   UNL     1      -2.436 -10.419  14.518  0.00  0.00    +0.174 C 
ATOM     35  C   UNL     1      -1.954 -10.433  15.187  0.00  0.00    +0.077 C 
ATOM     36  O   UNL     1      -3.250 -10.312  14.598  0.00  0.00    -0.291 OA
ENDBRANCH  30  34
ENDBRANCH  27  28
ENDBRANCH  24  25
ENDBRANCH  20  24
TORSDOF 7
ENDMDL
MODEL 4
REMARK VINA RESULT:      -4.6     16.157     18.697
REMARK  Name = 
REMARK  7 active torsions:
REMARK  status: ('A' for Active; 'I' for Inactive)
REMARK    1  A    between atoms: N_2  and  C_4
REMARK    2  A    between atoms: C_7  and  C_10
REMARK    3  A    between atoms: N_15  and  C_16
REMARK    4  A    between atoms: C_20  and  O_24
REMARK    5  A    between atoms: O_24  and  C_25
REMARK    6  A    between atoms: N_27  and  C_28
REMARK    7  A    between atoms: C_30  and  C_34
REMARK                            x       y       z     vdW  Elec       q    Type
REMARK                         _______ _______ _______ _____ _____    ______ ____
ROOT
ATOM     16  C   UNL     1      -4.915 -10.001  10.622  0.00  0.00    +0.155 C 
ATOM     17  C   UNL     1      -4.865 -10.417  11.332  0.00  0.00    +0.166 C 
ATOM     18  O   UNL     1      -4.080 -10.398  11.583  0.00  0.00    -0.348 OA
ATOM     19  C   UNL     1      -3.645  -9.971  11.029  0.00  0.00    +0.186 C 
ATOM     20  C   UNL     1      -2.891  -9.694  10.840  0.00  0.00    +0.229 C 
ATOM     21  C   UNL     1      -2.941  -9.278  10.129  0.00  0.00    +0.188 C 
ATOM     22  O   UNL     1      -3.726  -9.298   9.878  0.00  0.00    -0.348 OA
ATOM     23  C   UNL     1      -4.161  -9.725  10.434  0.00  0.00    +0.168 C 
ENDROOT
BRANCH  16  15
ATOM     10  C   UNL     1      -7.638  -9.147  10.448  0.00  0.00    +0.086 A 
ATOM     11  C   UNL     1      -7.629  -8.958  11.251  0.00  0.00    +0.040 A 
ATOM     12  C   UNL     1      -6.944  -9.077  11.696  0.00  0.00    +0.103 A 
ATOM     13  N   UNL     1      -6.268  -9.385  11.338  0.00  0.00    -0.211 NA
ATOM     14  C   UNL     1      -6.277  -9.574  10.535  0.00  0.00    +0.237 A 
ATOM     15  N   UNL     1      -5.600  -9.883  10.177  0.00  0.00    -0.200 NA
ATOM     37  N   UNL     1      -6.961  -9.456  10.090  0.00  0.00    -0.212 NA
BRANCH  10   7
ATOM      4  C   UNL     1      -9.692  -8.791   9.115  0.00  0.00    +0.048 A 
ATOM      5  C   UNL     1      -9.058  -8.268   9.044  0.00  0.00    +0.015 A 
ATOM      6  C   UNL     1      -8.373  -8.386   9.488  0.00  0.00    +0.003 A 
ATOM      7  C   UNL     1      -8.322  -9.028  10.004  0.00  0.00    +0.018 A 
ATOM      8  C   UNL     1      -8.956  -9.552  10.075  0.00  0.00    +0.003 A 
ATOM      9  C   UNL     1      -9.641  -9.433   9.630  0.00  0.00    +0.015 A 
BRANCH   4   2
ATOM      1  C   UNL     1     -10.719  -7.923   8.633  0.00  0.00    +0.112 C 
ATOM      2  N   UNL     1     -10.377  -8.672   8.671  0.00  0.00    -0.304 N 
ATOM      3  C   UNL     1     -10.719  -9.303   8.263  0.00  0.00    +0.112 C 
ENDBRANCH   4   2
ENDBRANCH  10   7
ENDBRANCH  16  15
BRANCH  20  24
ATOM     24  O   UNL     1      -2.206  -9.813  11.285  0.00  0.00    -0.432 OA
BRANCH  24  25
ATOM     25  C   UNL     1      -1.542  -9.340  11.156  0.00  0.00    +0.425 C 
ATOM     26  O   UNL     1      -1.544  -8.785  10.545  0.00  0.00    -0.224 OA
ATOM     27  N   UNL     1      -0.877  -9.421  11.636  0.00  0.00    -0.142 NA
BRANCH  27  28
ATOM     28  C   UNL     1      -0.214  -8.948  11.507  0.00  0.00    +0.077 A 
ATOM     29  C   UNL     1      -0.046  -8.324  12.019  0.00  0.00    +0.020 A 
ATOM     30  C   UNL     1       0.617  -7.851  11.890  0.00  0.00    +0.036 A 
ATOM     31  C   UNL     1       1.114  -8.002  11.248  0.00  0.00    +0.003 A 
ATOM     32  C   UNL     1       0.946  -8.627  10.735  0.00  0.00    +0.001 A 
ATOM     33  C   UNL     1       0.282  -9.100  10.865  0.00  0.00    +0.017 A 
BRANCH  30  34
ATOM     34  C   UNL     1       0.785  -7.226  12.402  0.00  0.00    +0.174 C 
ATOM     35  C   UNL     1       1.479  -6.790  12.308  0.00  0.00    +0.077 C 
ATOM     36  O   UNL     1       0.259  -7.038  13.009  0.00  0.00    -0.291 OA
ENDBRANCH  30  34
ENDBRANCH  27  28
ENDBRANCH  24  25
ENDBRANCH  20  24
TORSDOF 7
ENDMDL
MODEL 5
REMARK VINA RESULT:      -4.6     14.811     17.418
REMARK  Name = 
REMARK  7 active torsions:
REMARK  status: ('A' for Active; 'I' for Inactive)
REMARK    1  A    between atoms: N_2  and  C_4
REMARK    2  A    between atoms: C_7  and  C_10
REMARK    3  A    between atoms: N_15  and  C_16
REMARK    4  A    between atoms: C_20  and  O_24
REMARK    5  A    between atoms: O_24  and  C_25
REMARK    6  A    between atoms: N_27  and  C_28
REMARK    7  A    between atoms: C_30  and  C_34
REMARK                            x       y       z     vdW  Elec       q    Type
REMARK                         _______ _______ _______ _____ _____    ______ ____
ROOT
ATOM     16  C   UNL     1      -4.657 -10.600  12.336  0.00  0.00    +0.155 C 
ATOM     17  C   UNL     1      -4.834 -10.569  11.531  0.00  0.00    +0.166 C 
ATOM     18  O   UNL     1      -4.134 -10.415  11.122  0.00  0.00    -0.348 OA
ATOM     19  C   UNL     1      -3.525 -10.350  11.674  0.00  0.00    +0.186 C 
ATOM     20  C   UNL     1      -2.717 -10.214  11.764  0.00  0.00    +0.229 C 
ATOM     21  C   UNL     1      -2.540 -10.245  12.569  0.00  0.00    +0.188 C 
ATOM     22  O   UNL     1      -3.240 -10.399  12.977  0.00  0.00    -0.348 OA
ATOM     23  C   UNL     1      -3.849 -10.464  12.424  0.00  0.00    +0.168 C 
ENDROOT
BRANCH  16  15
ATOM     10  C   UNL     1      -7.074  -9.932  13.709  0.00  0.00    +0.086 A 
ATOM     11  C   UNL     1      -7.206  -9.316  13.177  0.00  0.00    +0.040 A 
ATOM     12  C   UNL     1      -6.667  -9.174  12.568  0.00  0.00    +0.103 A 
ATOM     13  N   UNL     1      -5.997  -9.649  12.490  0.00  0.00    -0.211 NA
ATOM     14  C   UNL     1      -5.866 -10.266  13.023  0.00  0.00    +0.237 A 
ATOM     15  N   UNL     1      -5.195 -10.741  12.945  0.00  0.00    -0.200 NA
ATOM     37  N   UNL     1      -6.403 -10.407  13.632  0.00  0.00    -0.212 NA
BRANCH  10   7
ATOM      4  C   UNL     1      -8.688 -10.356  15.537  0.00  0.00    +0.048 A 
ATOM      5  C   UNL     1      -8.937 -10.385  14.751  0.00  0.00    +0.015 A 
ATOM      6  C   UNL     1      -8.399 -10.244  14.142  0.00  0.00    +0.003 A 
ATOM      7  C   UNL     1      -7.611 -10.073  14.318  0.00  0.00    +0.018 A 
ATOM      8  C   UNL     1      -7.362 -10.043  15.104  0.00  0.00    +0.003 A 
ATOM      9  C   UNL     1      -7.900 -10.184  15.713  0.00  0.00    +0.015 A 
BRANCH   4   2
ATOM      1  C   UNL     1      -9.981 -10.779  15.972  0.00  0.00    +0.112 C 
ATOM      2  N   UNL     1      -9.225 -10.497  16.146  0.00  0.00    -0.304 N 
ATOM      3  C   UNL     1      -9.009 -10.356  16.930  0.00  0.00    +0.112 C 
ENDBRANCH   4   2
ENDBRANCH  10   7
ENDBRANCH  16  15
BRANCH  20  24
ATOM     24  O   UNL     1      -2.178 -10.073  11.155  0.00  0.00    -0.432 OA
BRANCH  24  25
ATOM     25  C   UNL     1      -1.425  -9.784  11.328  0.00  0.00    +0.425 C 
ATOM     26  O   UNL     1      -0.923 -10.213  11.823  0.00  0.00    -0.224 OA
ATOM     27  N   UNL     1      -1.173  -9.068  11.006  0.00  0.00    -0.142 NA
BRANCH  27  28
ATOM     28  C   UNL     1      -0.419  -8.780  11.179  0.00  0.00    +0.077 A 
ATOM     29  C   UNL     1      -0.319  -8.219  11.775  0.00  0.00    +0.020 A 
ATOM     30  C   UNL     1       0.434  -7.931  11.948  0.00  0.00    +0.036 A 
ATOM     31  C   UNL     1       1.088  -8.204  11.525  0.00  0.00    +0.003 A 
ATOM     32  C   UNL     1       0.987  -8.765  10.928  0.00  0.00    +0.001 A 
ATOM     33  C   UNL     1       0.234  -9.053  10.756  0.00  0.00    +0.017 A 
BRANCH  30  34
ATOM     34  C   UNL     1       0.534  -7.370  12.545  0.00  0.00    +0.174 C 
ATOM     35  C   UNL     1       1.000  -6.702  12.409  0.00  0.00    +0.077 C 
ATOM     36  O   UNL     1       0.169  -7.477  13.277  0.00  0.00    -0.291 OA
ENDBRANCH  30  34
ENDBRANCH  27  28
ENDBRANCH  24  25
ENDBRANCH  20  24
TORSDOF 7
ENDMDL
