MODEL 1
REMARK VINA RESULT:     -12.8      0.000      0.000
REMARK  Name = 
REMARK  6 active torsions:
REMARK  status: ('A' for Active; 'I' for Inactive)
REMARK    1  A    between atoms: C_2  and  C_3
REMARK    2  A    between atoms: C_2  and  C_25
REMARK    3  A    between atoms: C_10  and  N_11
REMARK    4  A    between atoms: C_12  and  C_14
REMARK    5  A    between atoms: N_27  and  C_28
REMARK    6  A    between atoms: C_28  and  C_29
REMARK                            x       y       z     vdW  Elec       q    Type
REMARK                         _______ _______ _______ _____ _____    ______ ____
ROOT
ATOM      3  C   UNL     1      -4.156   3.030  24.513  0.00  0.00    +0.039 C 
ATOM      4  C   UNL     1      -4.784   3.103  25.045  0.00  0.00    +0.003 C 
ATOM      5  C   UNL     1      -5.173   2.430  25.319  0.00  0.00    +0.000 C 
ATOM      6  C   UNL     1      -4.936   1.684  25.062  0.00  0.00    +0.002 C 
ATOM      7  C   UNL     1      -5.562   1.757  25.592  0.00  0.00    +0.000 C 
ATOM      8  C   UNL     1      -5.325   1.009  25.336  0.00  0.00    +0.002 C 
ATOM      9  C   UNL     1      -5.088   0.263  25.079  0.00  0.00    +0.022 C 
ATOM     10  C   UNL     1      -4.460   0.189  24.548  0.00  0.00    +0.096 C 
ATOM     20  C   UNL     1      -4.070   0.862  24.274  0.00  0.00    +0.022 C 
ATOM     21  C   UNL     1      -3.443   0.789  23.743  0.00  0.00    +0.002 C 
ATOM     22  C   UNL     1      -4.308   1.610  24.531  0.00  0.00    +0.032 C 
ATOM     23  C   UNL     1      -3.918   2.283  24.257  0.00  0.00    +0.152 C 
ATOM     24  O   UNL     1      -3.291   2.210  23.726  0.00  0.00    -0.223 OA
ENDROOT
BRANCH  10  11
ATOM     11  N   UNL     1      -4.222  -0.558  24.291  0.00  0.00    -0.203 NA
ATOM     12  C   UNL     1      -3.983  -1.126  24.839  0.00  0.00    +0.268 C 
ATOM     13  O   UNL     1      -3.981  -0.947  25.645  0.00  0.00    -0.268 OA
BRANCH  12  14
ATOM     14  C   UNL     1      -3.746  -1.874  24.583  0.00  0.00    +0.093 A 
ATOM     15  C   UNL     1      -4.226  -2.306  24.071  0.00  0.00    +0.107 A 
ATOM     16  N   UNL     1      -3.989  -3.054  23.814  0.00  0.00    -0.222 NA
ATOM     17  C   UNL     1      -3.270  -3.369  24.070  0.00  0.00    +0.199 A 
ATOM     18  N   UNL     1      -2.789  -2.936  24.583  0.00  0.00    -0.222 NA
ATOM     19  C   UNL     1      -3.028  -2.189  24.839  0.00  0.00    +0.107 A 
ENDBRANCH  12  14
ENDBRANCH  10  11
BRANCH   3   2
ATOM      1  C   UNL     1      -3.950   4.015  23.498  0.00  0.00    +0.010 C 
ATOM      2  C   UNL     1      -3.766   3.704  24.240  0.00  0.00    +0.081 C 
BRANCH   2  25
ATOM     25  C   UNL     1      -3.193   4.067  24.709  0.00  0.00    +0.241 C 
ATOM     26  O   UNL     1      -3.379   4.751  25.133  0.00  0.00    -0.273 OA
ATOM     27  N   UNL     1      -2.433   3.748  24.754  0.00  0.00    -0.201 NA
BRANCH  27  28
ATOM     28  C   UNL     1      -1.860   4.111  25.222  0.00  0.00    +0.141 C 
BRANCH  28  29
ATOM     29  C   UNL     1      -1.196   3.686  25.465  0.00  0.00    -0.000 A 
ATOM     30  C   UNL     1      -1.213   3.263  26.173  0.00  0.00    -0.000 A 
ATOM     31  C   UNL     1      -0.548   2.839  26.415  0.00  0.00    +0.029 A 
ATOM     32  C   UNL     1       0.133   2.838  25.950  0.00  0.00    +0.140 A 
ATOM     33  F   UNL     1       0.798   2.414  26.192  0.00  0.00    -0.204 F 
ATOM     34  C   UNL     1       0.150   3.262  25.242  0.00  0.00    +0.029 A 
ATOM     35  C   UNL     1      -0.515   3.686  24.999  0.00  0.00    -0.000 A 
ENDBRANCH  28  29
ENDBRANCH  27  28
ENDBRANCH   2  25
ENDBRANCH   3   2
TORSDOF 6
ENDMDL
MODEL 2
REMARK VINA RESULT:     -11.5      3.390      5.137
REMARK  Name = 
REMARK  6 active torsions:
REMARK  status: ('A' for Active; 'I' for Inactive)
REMARK    1  A    between atoms: C_2  and  C_3
REMARK    2  A    between atoms: C_2  and  C_25
REMARK    3  A    between atoms: C_10  and  N_11
REMARK    4  A    between atoms: C_12  and  C_14
REMARK    5  A    between atoms: N_27  and  C_28
REMARK    6  A    between atoms: C_28  and  C_29
REMARK                            x       y       z     vdW  Elec       q    Type
REMARK                         _______ _______ _______ _____ _____    ______ ____
ROOT
ATOM      3  C   UNL     1      -0.039   0.694  23.993  0.00  0.00    +0.039 C 
ATOM      4  C   UNL     1       0.381   1.402  24.057  0.00  0.00    +0.003 C 
ATOM      5  C   UNL     1      -0.000   2.085  24.318  0.00  0.00    +0.000 C 
ATOM      6  C   UNL     1      -0.801   2.061  24.514  0.00  0.00    +0.002 C 
ATOM      7  C   UNL     1      -0.381   2.768  24.579  0.00  0.00    +0.000 C 
ATOM      8  C   UNL     1      -1.182   2.745  24.775  0.00  0.00    +0.002 C 
ATOM      9  C   UNL     1      -1.983   2.721  24.971  0.00  0.00    +0.022 C 
ATOM     10  C   UNL     1      -2.403   2.013  24.907  0.00  0.00    +0.096 C 
ATOM     20  C   UNL     1      -2.022   1.330  24.646  0.00  0.00    +0.022 C 
ATOM     21  C   UNL     1      -2.442   0.623  24.581  0.00  0.00    +0.002 C 
ATOM     22  C   UNL     1      -1.221   1.353  24.449  0.00  0.00    +0.032 C 
ATOM     23  C   UNL     1      -0.840   0.670  24.189  0.00  0.00    +0.152 C 
ATOM     24  O   UNL     1      -1.260  -0.037  24.124  0.00  0.00    -0.223 OA
ENDROOT
BRANCH  10  11
ATOM     11  N   UNL     1      -3.204   1.990  25.103  0.00  0.00    -0.203 NA
ATOM     12  C   UNL     1      -3.695   2.624  24.911  0.00  0.00    +0.268 C 
ATOM     13  O   UNL     1      -3.385   3.282  24.520  0.00  0.00    -0.268 OA
BRANCH  12  14
ATOM     14  C   UNL     1      -4.496   2.601  25.107  0.00  0.00    +0.093 A 
ATOM     15  C   UNL     1      -5.021   2.158  24.651  0.00  0.00    +0.107 A 
ATOM     16  N   UNL     1      -5.822   2.135  24.847  0.00  0.00    -0.222 NA
ATOM     17  C   UNL     1      -6.098   2.555  25.501  0.00  0.00    +0.199 A 
ATOM     18  N   UNL     1      -5.573   2.999  25.959  0.00  0.00    -0.222 NA
ATOM     19  C   UNL     1      -4.772   3.021  25.761  0.00  0.00    +0.107 A 
ENDBRANCH  12  14
ENDBRANCH  10  11
BRANCH   3   2
ATOM      1  C   UNL     1       0.192  -0.713  24.098  0.00  0.00    +0.010 C 
ATOM      2  C   UNL     1       0.342   0.010  23.732  0.00  0.00    +0.081 C 
BRANCH   2  25
ATOM     25  C   UNL     1       0.876   0.051  23.103  0.00  0.00    +0.241 C 
ATOM     26  O   UNL     1       0.597   0.088  22.327  0.00  0.00    -0.273 OA
ATOM     27  N   UNL     1       1.688   0.055  23.251  0.00  0.00    -0.201 NA
BRANCH  27  28
ATOM     28  C   UNL     1       2.221   0.095  22.624  0.00  0.00    +0.141 C 
BRANCH  28  29
ATOM     29  C   UNL     1       3.027   0.192  22.772  0.00  0.00    -0.000 A 
ATOM     30  C   UNL     1       3.393   0.912  22.604  0.00  0.00    -0.000 A 
ATOM     31  C   UNL     1       4.199   1.008  22.752  0.00  0.00    +0.029 A 
ATOM     32  C   UNL     1       4.638   0.386  23.068  0.00  0.00    +0.140 A 
ATOM     33  F   UNL     1       5.443   0.482  23.216  0.00  0.00    -0.204 F 
ATOM     34  C   UNL     1       4.271  -0.334  23.236  0.00  0.00    +0.029 A 
ATOM     35  C   UNL     1       3.465  -0.431  23.087  0.00  0.00    -0.000 A 
ENDBRANCH  28  29
ENDBRANCH  27  28
ENDBRANCH   2  25
ENDBRANCH   3   2
TORSDOF 6
ENDMDL
MODEL 3
REMARK VINA RESULT:     -11.3      1.529      5.017
REMARK  Name = 
REMARK  6 active torsions:
REMARK  status: ('A' for Active; 'I' for Inactive)
REMARK    1  A    between atoms: C_2  and  C_3
REMARK    2  A    between atoms: C_2  and  C_25
REMARK    3  A    between atoms: C_10  and  N_11
REMARK    4  A    between atoms: C_12  and  C_14
REMARK    5  A    between atoms: N_27  and  C_28
REMARK    6  A    between atoms: C_28  and  C_29
REMARK                            x       y       z     vdW  Elec       q    Type
REMARK                         _______ _______ _______ _____ _____    ______ ____
ROOT
ATOM      3  C   UNL     1      -4.260   0.291  24.394  0.00  0.00    +0.039 C 
ATOM      4  C   UNL     1      -4.931   0.447  24.850  0.00  0.00    +0.003 C 
ATOM      5  C   UNL     1      -5.045   1.198  25.171  0.00  0.00    +0.000 C 
ATOM      6  C   UNL     1      -4.490   1.793  25.036  0.00  0.00    +0.002 C 
ATOM      7  C   UNL     1      -5.159   1.949  25.491  0.00  0.00    +0.000 C 
ATOM      8  C   UNL     1      -4.604   2.544  25.357  0.00  0.00    +0.002 C 
ATOM      9  C   UNL     1      -4.049   3.139  25.223  0.00  0.00    +0.022 C 
ATOM     10  C   UNL     1      -3.378   2.983  24.767  0.00  0.00    +0.096 C 
ATOM     20  C   UNL     1      -3.264   2.232  24.446  0.00  0.00    +0.022 C 
ATOM     21  C   UNL     1      -2.594   2.075  23.990  0.00  0.00    +0.002 C 
ATOM     22  C   UNL     1      -3.819   1.636  24.580  0.00  0.00    +0.032 C 
ATOM     23  C   UNL     1      -3.705   0.885  24.259  0.00  0.00    +0.152 C 
ATOM     24  O   UNL     1      -3.036   0.729  23.804  0.00  0.00    -0.223 OA
ENDROOT
BRANCH  10  11
ATOM     11  N   UNL     1      -2.823   3.578  24.633  0.00  0.00    -0.203 NA
ATOM     12  C   UNL     1      -2.440   3.936  25.269  0.00  0.00    +0.268 C 
ATOM     13  O   UNL     1      -2.611   3.699  26.041  0.00  0.00    -0.268 OA
BRANCH  12  14
ATOM     14  C   UNL     1      -1.884   4.532  25.135  0.00  0.00    +0.093 A 
ATOM     15  C   UNL     1      -2.113   5.323  25.161  0.00  0.00    +0.107 A 
ATOM     16  N   UNL     1      -1.558   5.919  25.027  0.00  0.00    -0.222 NA
ATOM     17  C   UNL     1      -0.773   5.722  24.866  0.00  0.00    +0.199 A 
ATOM     18  N   UNL     1      -0.544   4.929  24.840  0.00  0.00    -0.222 NA
ATOM     19  C   UNL     1      -1.100   4.335  24.974  0.00  0.00    +0.107 A 
ENDBRANCH  12  14
ENDBRANCH  10  11
BRANCH   3   2
ATOM      1  C   UNL     1      -4.340  -0.608  23.284  0.00  0.00    +0.010 C 
ATOM      2  C   UNL     1      -4.147  -0.461  24.073  0.00  0.00    +0.081 C 
BRANCH   2  25
ATOM     25  C   UNL     1      -3.839  -1.066  24.541  0.00  0.00    +0.241 C 
ATOM     26  O   UNL     1      -4.336  -1.493  25.043  0.00  0.00    -0.273 OA
ATOM     27  N   UNL     1      -3.034  -1.246  24.507  0.00  0.00    -0.201 NA
BRANCH  27  28
ATOM     28  C   UNL     1      -2.727  -1.851  24.975  0.00  0.00    +0.141 C 
BRANCH  28  29
ATOM     29  C   UNL     1      -1.912  -1.916  25.084  0.00  0.00    -0.000 A 
ATOM     30  C   UNL     1      -1.474  -2.440  24.621  0.00  0.00    -0.000 A 
ATOM     31  C   UNL     1      -0.659  -2.505  24.730  0.00  0.00    +0.029 A 
ATOM     32  C   UNL     1      -0.281  -2.045  25.301  0.00  0.00    +0.140 A 
ATOM     33  F   UNL     1       0.534  -2.109  25.410  0.00  0.00    -0.204 F 
ATOM     34  C   UNL     1      -0.719  -1.520  25.764  0.00  0.00    +0.029 A 
ATOM     35  C   UNL     1      -1.535  -1.455  25.655  0.00  0.00    -0.000 A 
ENDBRANCH  28  29
ENDBRANCH  27  28
ENDBRANCH   2  25
ENDBRANCH   3   2
TORSDOF 6
ENDMDL
MODEL 4
REMARK VINA RESULT:     -11.2      2.797      4.865
REMARK  Name = 
REMARK  6 active torsions:
REMARK  status: ('A' for Active; 'I' for Inactive)
REMARK    1  A    between atoms: C_2  and  C_3
REMARK    2  A    between atoms: C_2  and  C_25
REMARK    3  A    between atoms: C_10  and  N_11
REMARK    4  A    between atoms: C_12  and  C_14
REMARK    5  A    between atoms: N_27  and  C_28
REMARK    6  A    between atoms: C_28  and  C_29
REMARK                            x       y       z     vdW  Elec       q    Type
REMARK                         _______ _______ _______ _____ _____    ______ ____
ROOT
ATOM      3  C   UNL     1      -2.837   2.423  24.634  0.00  0.00    +0.039 C 
ATOM      4  C   UNL     1      -2.647   2.779  25.354  0.00  0.00    +0.003 C 
ATOM      5  C   UNL     1      -1.858   2.853  25.581  0.00  0.00    +0.000 C 
ATOM      6  C   UNL     1      -1.259   2.572  25.090  0.00  0.00    +0.002 C 
ATOM      7  C   UNL     1      -1.069   2.927  25.808  0.00  0.00    +0.000 C 
ATOM      8  C   UNL     1      -0.469   2.646  25.317  0.00  0.00    +0.002 C 
ATOM      9  C   UNL     1       0.130   2.365  24.825  0.00  0.00    +0.022 C 
ATOM     10  C   UNL     1      -0.061   2.008  24.104  0.00  0.00    +0.096 C 
ATOM     20  C   UNL     1      -0.850   1.934  23.877  0.00  0.00    +0.022 C 
ATOM     21  C   UNL     1      -1.040   1.578  23.158  0.00  0.00    +0.002 C 
ATOM     22  C   UNL     1      -1.449   2.216  24.369  0.00  0.00    +0.032 C 
ATOM     23  C   UNL     1      -2.238   2.141  24.142  0.00  0.00    +0.152 C 
ATOM     24  O   UNL     1      -2.429   1.786  23.423  0.00  0.00    -0.223 OA
ENDROOT
BRANCH  10  11
ATOM     11  N   UNL     1       0.539   1.727  23.613  0.00  0.00    -0.203 NA
ATOM     12  C   UNL     1       1.002   1.088  23.850  0.00  0.00    +0.268 C 
ATOM     13  O   UNL     1       0.866   0.728  24.581  0.00  0.00    -0.268 OA
BRANCH  12  14
ATOM     14  C   UNL     1       1.602   0.806  23.358  0.00  0.00    +0.093 A 
ATOM     15  C   UNL     1       1.465   0.156  22.871  0.00  0.00    +0.107 A 
ATOM     16  N   UNL     1       2.065  -0.126  22.379  0.00  0.00    -0.222 NA
ATOM     17  C   UNL     1       2.802   0.245  22.375  0.00  0.00    +0.199 A 
ATOM     18  N   UNL     1       2.940   0.896  22.863  0.00  0.00    -0.222 NA
ATOM     19  C   UNL     1       2.339   1.177  23.354  0.00  0.00    +0.107 A 
ENDBRANCH  12  14
ENDBRANCH  10  11
BRANCH   3   2
ATOM      1  C   UNL     1      -3.945   2.858  23.841  0.00  0.00    +0.010 C 
ATOM      2  C   UNL     1      -3.627   2.349  24.407  0.00  0.00    +0.081 C 
BRANCH   2  25
ATOM     25  C   UNL     1      -4.100   1.765  24.747  0.00  0.00    +0.241 C 
ATOM     26  O   UNL     1      -4.680   1.971  25.298  0.00  0.00    -0.273 OA
ATOM     27  N   UNL     1      -3.995   0.973  24.537  0.00  0.00    -0.201 NA
BRANCH  27  28
ATOM     28  C   UNL     1      -4.467   0.390  24.877  0.00  0.00    +0.141 C 
BRANCH  28  29
ATOM     29  C   UNL     1      -4.259  -0.405  24.804  0.00  0.00    -0.000 A 
ATOM     30  C   UNL     1      -4.459  -0.823  24.122  0.00  0.00    -0.000 A 
ATOM     31  C   UNL     1      -4.251  -1.618  24.049  0.00  0.00    +0.029 A 
ATOM     32  C   UNL     1      -3.841  -1.995  24.659  0.00  0.00    +0.140 A 
ATOM     33  F   UNL     1      -3.633  -2.789  24.586  0.00  0.00    -0.204 F 
ATOM     34  C   UNL     1      -3.641  -1.576  25.341  0.00  0.00    +0.029 A 
ATOM     35  C   UNL     1      -3.850  -0.780  25.413  0.00  0.00    -0.000 A 
ENDBRANCH  28  29
ENDBRANCH  27  28
ENDBRANCH   2  25
ENDBRANCH   3   2
TORSDOF 6
ENDMDL
MODEL 5
REMARK VINA RESULT:     -11.2      2.926      4.644
REMARK  Name = 
REMARK  6 active torsions:
REMARK  status: ('A' for Active; 'I' for Inactive)
REMARK    1  A    between atoms: C_2  and  C_3
REMARK    2  A    between atoms: C_2  and  C_25
REMARK    3  A    between atoms: C_10  and  N_11
REMARK    4  A    between atoms: C_12  and  C_14
REMARK    5  A    between atoms: N_27  and  C_28
REMARK    6  A    between atoms: C_28  and  C_29
REMARK                            x       y       z     vdW  Elec       q    Type
REMARK                         _______ _______ _______ _____ _____    ______ ____
ROOT
ATOM      3  C   UNL     1      -1.688   3.734  25.523  0.00  0.00    +0.039 C 
ATOM      4  C   UNL     1      -1.479   3.523  26.294  0.00  0.00    +0.003 C 
ATOM      5  C   UNL     1      -0.896   2.954  26.421  0.00  0.00    +0.000 C 
ATOM      6  C   UNL     1      -0.521   2.596  25.780  0.00  0.00    +0.002 C 
ATOM      7  C   UNL     1      -0.313   2.386  26.549  0.00  0.00    +0.000 C 
ATOM      8  C   UNL     1       0.062   2.027  25.907  0.00  0.00    +0.002 C 
ATOM      9  C   UNL     1       0.437   1.669  25.266  0.00  0.00    +0.022 C 
ATOM     10  C   UNL     1       0.228   1.881  24.495  0.00  0.00    +0.096 C 
ATOM     20  C   UNL     1      -0.355   2.449  24.368  0.00  0.00    +0.022 C 
ATOM     21  C   UNL     1      -0.564   2.660  23.598  0.00  0.00    +0.002 C 
ATOM     22  C   UNL     1      -0.731   2.808  25.009  0.00  0.00    +0.032 C 
ATOM     23  C   UNL     1      -1.314   3.376  24.882  0.00  0.00    +0.152 C 
ATOM     24  O   UNL     1      -1.523   3.587  24.112  0.00  0.00    -0.223 OA
ENDROOT
BRANCH  10  11
ATOM     11  N   UNL     1       0.603   1.522  23.853  0.00  0.00    -0.203 NA
ATOM     12  C   UNL     1       0.653   0.700  23.811  0.00  0.00    +0.268 C 
ATOM     13  O   UNL     1       0.328   0.235  24.411  0.00  0.00    -0.268 OA
BRANCH  12  14
ATOM     14  C   UNL     1       1.028   0.342  23.169  0.00  0.00    +0.093 A 
ATOM     15  C   UNL     1       1.840   0.438  23.059  0.00  0.00    +0.107 A 
ATOM     16  N   UNL     1       2.215   0.079  22.417  0.00  0.00    -0.222 NA
ATOM     17  C   UNL     1       1.777  -0.375  21.886  0.00  0.00    +0.199 A 
ATOM     18  N   UNL     1       0.965  -0.471  21.996  0.00  0.00    -0.222 NA
ATOM     19  C   UNL     1       0.591  -0.112  22.637  0.00  0.00    +0.107 A 
ENDBRANCH  12  14
ENDBRANCH  10  11
BRANCH   3   2
ATOM      1  C   UNL     1      -2.112   4.962  24.926  0.00  0.00    +0.010 C 
ATOM      2  C   UNL     1      -2.272   4.303  25.396  0.00  0.00    +0.081 C 
BRANCH   2  25
ATOM     25  C   UNL     1      -3.017   4.213  25.739  0.00  0.00    +0.241 C 
ATOM     26  O   UNL     1      -3.181   4.565  26.468  0.00  0.00    -0.273 OA
ATOM     27  N   UNL     1      -3.598   3.770  25.354  0.00  0.00    -0.201 NA
BRANCH  27  28
ATOM     28  C   UNL     1      -4.342   3.680  25.697  0.00  0.00    +0.141 C 
BRANCH  28  29
ATOM     29  C   UNL     1      -4.838   3.069  25.452  0.00  0.00    -0.000 A 
ATOM     30  C   UNL     1      -4.796   2.787  24.678  0.00  0.00    -0.000 A 
ATOM     31  C   UNL     1      -5.292   2.176  24.434  0.00  0.00    +0.029 A 
ATOM     32  C   UNL     1      -5.832   1.845  24.963  0.00  0.00    +0.140 A 
ATOM     33  F   UNL     1      -6.328   1.234  24.719  0.00  0.00    -0.204 F 
ATOM     34  C   UNL     1      -5.874   2.127  25.738  0.00  0.00    +0.029 A 
ATOM     35  C   UNL     1      -5.377   2.739  25.982  0.00  0.00    -0.000 A 
ENDBRANCH  28  29
ENDBRANCH  27  28
ENDBRANCH   2  25
ENDBRANCH   3   2
TORSDOF 6
ENDMDL
MODEL 6
REMARK VINA RESULT:     -11.1      2.932      5.150
REMARK  Name = 
REMARK  6 active torsions:
REMARK  status: ('A' for Active; 'I' for Inactive)
REMARK    1  A    between atoms: C_2  and  C_3
REMARK    2  A    between atoms: C_2  and  C_25
REMARK    3  A    between atoms: C_10  and  N_11
REMARK    4  A    between atoms: C_12  and  C_14
REMARK    5  A    between atoms: N_27  and  C_28
REMARK    6  A    between atoms: C_28  and  C_29
REMARK                            x       y       z     vdW  Elec       q    Type
REMARK                         _______ _______ _______ _____ _____    ______ ____
ROOT
ATOM      3  C   UNL     1      -2.970  -1.020  25.205  0.00  0.00    +0.039 C 
ATOM      4  C   UNL     1      -3.029  -1.796  24.928  0.00  0.00    +0.003 C 
ATOM      5  C   UNL     1      -2.393  -2.143  24.536  0.00  0.00    +0.000 C 
ATOM      6  C   UNL     1      -1.698  -1.716  24.419  0.00  0.00    +0.002 C 
ATOM      7  C   UNL     1      -1.757  -2.490  24.143  0.00  0.00    +0.000 C 
ATOM      8  C   UNL     1      -1.061  -2.064  24.025  0.00  0.00    +0.002 C 
ATOM      9  C   UNL     1      -0.365  -1.637  23.908  0.00  0.00    +0.022 C 
ATOM     10  C   UNL     1      -0.306  -0.861  24.185  0.00  0.00    +0.096 C 
ATOM     20  C   UNL     1      -0.942  -0.513  24.578  0.00  0.00    +0.022 C 
ATOM     21  C   UNL     1      -0.882   0.262  24.854  0.00  0.00    +0.002 C 
ATOM     22  C   UNL     1      -1.638  -0.940  24.695  0.00  0.00    +0.032 C 
ATOM     23  C   UNL     1      -2.274  -0.593  25.088  0.00  0.00    +0.152 C 
ATOM     24  O   UNL     1      -2.214   0.182  25.364  0.00  0.00    -0.223 OA
ENDROOT
BRANCH  10  11
ATOM     11  N   UNL     1       0.391  -0.434  24.068  0.00  0.00    -0.203 NA
ATOM     12  C   UNL     1       0.677  -0.312  23.304  0.00  0.00    +0.268 C 
ATOM     13  O   UNL     1       0.266  -0.617  22.656  0.00  0.00    -0.268 OA
BRANCH  12  14
ATOM     14  C   UNL     1       1.373   0.115  23.187  0.00  0.00    +0.093 A 
ATOM     15  C   UNL     1       1.459   0.864  23.519  0.00  0.00    +0.107 A 
ATOM     16  N   UNL     1       2.156   1.291  23.401  0.00  0.00    -0.222 NA
ATOM     17  C   UNL     1       2.766   0.967  22.952  0.00  0.00    +0.199 A 
ATOM     18  N   UNL     1       2.681   0.216  22.619  0.00  0.00    -0.222 NA
ATOM     19  C   UNL     1       1.984  -0.210  22.737  0.00  0.00    +0.107 A 
ENDBRANCH  12  14
ENDBRANCH  10  11
BRANCH   3   2
ATOM      1  C   UNL     1      -3.668  -0.731  26.419  0.00  0.00    +0.010 C 
ATOM      2  C   UNL     1      -3.606  -0.672  25.598  0.00  0.00    +0.081 C 
BRANCH   2  25
ATOM     25  C   UNL     1      -4.183  -0.265  25.170  0.00  0.00    +0.241 C 
ATOM     26  O   UNL     1      -4.592  -0.647  24.563  0.00  0.00    -0.273 OA
ATOM     27  N   UNL     1      -4.350   0.523  25.348  0.00  0.00    -0.201 NA
BRANCH  27  28
ATOM     28  C   UNL     1      -4.925   0.930  24.921  0.00  0.00    +0.141 C 
BRANCH  28  29
ATOM     29  C   UNL     1      -5.065   1.728  25.072  0.00  0.00    -0.000 A 
ATOM     30  C   UNL     1      -4.605   2.305  24.703  0.00  0.00    -0.000 A 
ATOM     31  C   UNL     1      -4.745   3.103  24.854  0.00  0.00    +0.029 A 
ATOM     32  C   UNL     1      -5.345   3.326  25.375  0.00  0.00    +0.140 A 
ATOM     33  F   UNL     1      -5.486   4.124  25.527  0.00  0.00    -0.204 F 
ATOM     34  C   UNL     1      -5.805   2.749  25.744  0.00  0.00    +0.029 A 
ATOM     35  C   UNL     1      -5.665   1.949  25.593  0.00  0.00    -0.000 A 
ENDBRANCH  28  29
ENDBRANCH  27  28
ENDBRANCH   2  25
ENDBRANCH   3   2
TORSDOF 6
ENDMDL
MODEL 7
REMARK VINA RESULT:     -11.0      2.340      5.352
REMARK  Name = 
REMARK  6 active torsions:
REMARK  status: ('A' for Active; 'I' for Inactive)
REMARK    1  A    between atoms: C_2  and  C_3
REMARK    2  A    between atoms: C_2  and  C_25
REMARK    3  A    between atoms: C_10  and  N_11
REMARK    4  A    between atoms: C_12  and  C_14
REMARK    5  A    between atoms: N_27  and  C_28
REMARK    6  A    between atoms: C_28  and  C_29
REMARK                            x       y       z     vdW  Elec       q    Type
REMARK                         _______ _______ _______ _____ _____    ______ ____
ROOT
ATOM      3  C   UNL     1      -0.615   1.077  24.422  0.00  0.00    +0.039 C 
ATOM      4  C   UNL     1      -0.086   1.436  24.944  0.00  0.00    +0.003 C 
ATOM      5  C   UNL     1      -0.320   2.095  25.381  0.00  0.00    +0.000 C 
ATOM      6  C   UNL     1      -1.084   2.395  25.297  0.00  0.00    +0.002 C 
ATOM      7  C   UNL     1      -0.555   2.753  25.818  0.00  0.00    +0.000 C 
ATOM      8  C   UNL     1      -1.319   3.054  25.734  0.00  0.00    +0.002 C 
ATOM      9  C   UNL     1      -2.082   3.354  25.650  0.00  0.00    +0.022 C 
ATOM     10  C   UNL     1      -2.612   2.995  25.128  0.00  0.00    +0.096 C 
ATOM     20  C   UNL     1      -2.377   2.336  24.691  0.00  0.00    +0.022 C 
ATOM     21  C   UNL     1      -2.906   1.977  24.170  0.00  0.00    +0.002 C 
ATOM     22  C   UNL     1      -1.613   2.035  24.775  0.00  0.00    +0.032 C 
ATOM     23  C   UNL     1      -1.378   1.377  24.338  0.00  0.00    +0.152 C 
ATOM     24  O   UNL     1      -1.907   1.018  23.817  0.00  0.00    -0.223 OA
ENDROOT
BRANCH  10  11
ATOM     11  N   UNL     1      -3.376   3.295  25.044  0.00  0.00    -0.203 NA
ATOM     12  C   UNL     1      -3.833   3.452  25.712  0.00  0.00    +0.268 C 
ATOM     13  O   UNL     1      -3.527   3.308  26.465  0.00  0.00    -0.268 OA
BRANCH  12  14
ATOM     14  C   UNL     1      -4.597   3.753  25.628  0.00  0.00    +0.093 A 
ATOM     15  C   UNL     1      -4.710   4.527  25.367  0.00  0.00    +0.107 A 
ATOM     16  N   UNL     1      -5.474   4.827  25.283  0.00  0.00    -0.222 NA
ATOM     17  C   UNL     1      -6.125   4.353  25.461  0.00  0.00    +0.199 A 
ATOM     18  N   UNL     1      -6.012   3.578  25.722  0.00  0.00    -0.222 NA
ATOM     19  C   UNL     1      -5.248   3.279  25.806  0.00  0.00    +0.107 A 
ENDBRANCH  12  14
ENDBRANCH  10  11
BRANCH   3   2
ATOM      1  C   UNL     1      -0.125   0.508  23.205  0.00  0.00    +0.010 C 
ATOM      2  C   UNL     1      -0.380   0.418  23.985  0.00  0.00    +0.081 C 
BRANCH   2  25
ATOM     25  C   UNL     1      -0.399  -0.332  24.328  0.00  0.00    +0.241 C 
ATOM     26  O   UNL     1       0.284  -0.647  24.671  0.00  0.00    -0.273 OA
ATOM     27  N   UNL     1      -1.100  -0.768  24.329  0.00  0.00    -0.201 NA
BRANCH  27  28
ATOM     28  C   UNL     1      -1.119  -1.518  24.672  0.00  0.00    +0.141 C 
BRANCH  28  29
ATOM     29  C   UNL     1      -1.832  -1.928  24.728  0.00  0.00    -0.000 A 
ATOM     30  C   UNL     1      -2.372  -1.738  25.322  0.00  0.00    -0.000 A 
ATOM     31  C   UNL     1      -3.085  -2.149  25.378  0.00  0.00    +0.029 A 
ATOM     32  C   UNL     1      -3.258  -2.750  24.840  0.00  0.00    +0.140 A 
ATOM     33  F   UNL     1      -3.971  -3.161  24.896  0.00  0.00    -0.204 F 
ATOM     34  C   UNL     1      -2.718  -2.940  24.246  0.00  0.00    +0.029 A 
ATOM     35  C   UNL     1      -2.004  -2.529  24.190  0.00  0.00    -0.000 A 
ENDBRANCH  28  29
ENDBRANCH  27  28
ENDBRANCH   2  25
ENDBRANCH   3   2
TORSDOF 6
ENDMDL
MODEL 8
REMARK VINA RESULT:     -11.0      2.151      3.654
REMARK  Name = 
REMARK  6 active torsions:
REMARK  status: ('A' for Active; 'I' for Inactive)
REMARK    1  A    between atoms: C_2  and  C_3
REMARK    2  A    between atoms: C_2  and  C_25
REMARK    3  A    between atoms: C_10  and  N_11
REMARK    4  A    between atoms: C_12  and  C_14
REMARK    5  A    between atoms: N_27  and  C_28
REMARK    6  A    between atoms: C_28  and  C_29
REMARK                            x       y       z     vdW  Elec       q    Type
REMARK                         _______ _______ _______ _____ _____    ______ ____
ROOT
ATOM      3  C   UNL     1      -0.199   2.107  25.260  0.00  0.00    +0.039 C 
ATOM      4  C   UNL     1       0.285   2.128  24.591  0.00  0.00    +0.003 C 
ATOM      5  C   UNL     1       0.316   1.479  24.084  0.00  0.00    +0.000 C 
ATOM      6  C   UNL     1      -0.135   0.808  24.245  0.00  0.00    +0.002 C 
ATOM      7  C   UNL     1       0.347   0.829  23.578  0.00  0.00    +0.000 C 
ATOM      8  C   UNL     1      -0.104   0.157  23.739  0.00  0.00    +0.002 C 
ATOM      9  C   UNL     1      -0.555  -0.514  23.900  0.00  0.00    +0.022 C 
ATOM     10  C   UNL     1      -1.039  -0.535  24.569  0.00  0.00    +0.096 C 
ATOM     20  C   UNL     1      -1.070   0.115  25.075  0.00  0.00    +0.022 C 
ATOM     21  C   UNL     1      -1.553   0.093  25.744  0.00  0.00    +0.002 C 
ATOM     22  C   UNL     1      -0.619   0.786  24.915  0.00  0.00    +0.032 C 
ATOM     23  C   UNL     1      -0.650   1.436  25.421  0.00  0.00    +0.152 C 
ATOM     24  O   UNL     1      -1.133   1.415  26.090  0.00  0.00    -0.223 OA
ENDROOT
BRANCH  10  11
ATOM     11  N   UNL     1      -1.490  -1.207  24.730  0.00  0.00    -0.203 NA
ATOM     12  C   UNL     1      -2.135  -1.395  24.252  0.00  0.00    +0.268 C 
ATOM     13  O   UNL     1      -2.330  -0.911  23.612  0.00  0.00    -0.268 OA
BRANCH  12  14
ATOM     14  C   UNL     1      -2.587  -2.067  24.413  0.00  0.00    +0.093 A 
ATOM     15  C   UNL     1      -2.226  -2.807  24.449  0.00  0.00    +0.107 A 
ATOM     16  N   UNL     1      -2.678  -3.479  24.610  0.00  0.00    -0.222 NA
ATOM     17  C   UNL     1      -3.490  -3.409  24.734  0.00  0.00    +0.199 A 
ATOM     18  N   UNL     1      -3.852  -2.668  24.698  0.00  0.00    -0.222 NA
ATOM     19  C   UNL     1      -3.399  -1.997  24.537  0.00  0.00    +0.107 A 
ENDBRANCH  12  14
ENDBRANCH  10  11
BRANCH   3   2
ATOM      1  C   UNL     1       0.183   2.746  26.481  0.00  0.00    +0.010 C 
ATOM      2  C   UNL     1      -0.230   2.757  25.767  0.00  0.00    +0.081 C 
BRANCH   2  25
ATOM     25  C   UNL     1      -0.675   3.420  25.560  0.00  0.00    +0.241 C 
ATOM     26  O   UNL     1      -0.308   4.070  25.207  0.00  0.00    -0.273 OA
ATOM     27  N   UNL     1      -1.488   3.434  25.705  0.00  0.00    -0.201 NA
BRANCH  27  28
ATOM     28  C   UNL     1      -1.933   4.096  25.498  0.00  0.00    +0.141 C 
BRANCH  28  29
ATOM     29  C   UNL     1      -2.754   4.043  25.449  0.00  0.00    -0.000 A 
ATOM     30  C   UNL     1      -3.119   3.945  24.716  0.00  0.00    -0.000 A 
ATOM     31  C   UNL     1      -3.941   3.893  24.669  0.00  0.00    +0.029 A 
ATOM     32  C   UNL     1      -4.398   3.937  25.354  0.00  0.00    +0.140 A 
ATOM     33  F   UNL     1      -5.219   3.884  25.306  0.00  0.00    -0.204 F 
ATOM     34  C   UNL     1      -4.033   4.035  26.087  0.00  0.00    +0.029 A 
ATOM     35  C   UNL     1      -3.210   4.088  26.135  0.00  0.00    -0.000 A 
ENDBRANCH  28  29
ENDBRANCH  27  28
ENDBRANCH   2  25
ENDBRANCH   3   2
TORSDOF 6
ENDMDL
MODEL 9
REMARK VINA RESULT:     -10.8      2.662      4.711
REMARK  Name = 
REMARK  6 active torsions:
REMARK  status: ('A' for Active; 'I' for Inactive)
REMARK    1  A    between atoms: C_2  and  C_3
REMARK    2  A    between atoms: C_2  and  C_25
REMARK    3  A    between atoms: C_10  and  N_11
REMARK    4  A    between atoms: C_12  and  C_14
REMARK    5  A    between atoms: N_27  and  C_28
REMARK    6  A    between atoms: C_28  and  C_29
REMARK                            x       y       z     vdW  Elec       q    Type
REMARK                         _______ _______ _______ _____ _____    ______ ____
ROOT
ATOM      3  C   UNL     1      -1.718  -1.054  24.677  0.00  0.00    +0.039 C 
ATOM      4  C   UNL     1      -2.245  -1.642  24.434  0.00  0.00    +0.003 C 
ATOM      5  C   UNL     1      -3.056  -1.492  24.429  0.00  0.00    +0.000 C 
ATOM      6  C   UNL     1      -3.341  -0.755  24.664  0.00  0.00    +0.002 C 
ATOM      7  C   UNL     1      -3.866  -1.342  24.423  0.00  0.00    +0.000 C 
ATOM      8  C   UNL     1      -4.152  -0.604  24.658  0.00  0.00    +0.002 C 
ATOM      9  C   UNL     1      -4.437   0.132  24.894  0.00  0.00    +0.022 C 
ATOM     10  C   UNL     1      -3.910   0.720  25.137  0.00  0.00    +0.096 C 
ATOM     20  C   UNL     1      -3.099   0.570  25.143  0.00  0.00    +0.022 C 
ATOM     21  C   UNL     1      -2.573   1.157  25.385  0.00  0.00    +0.002 C 
ATOM     22  C   UNL     1      -2.814  -0.167  24.907  0.00  0.00    +0.032 C 
ATOM     23  C   UNL     1      -2.003  -0.318  24.913  0.00  0.00    +0.152 C 
ATOM     24  O   UNL     1      -1.477   0.270  25.155  0.00  0.00    -0.223 OA
ENDROOT
BRANCH  10  11
ATOM     11  N   UNL     1      -4.195   1.458  25.373  0.00  0.00    -0.203 NA
ATOM     12  C   UNL     1      -4.792   1.827  24.940  0.00  0.00    +0.268 C 
ATOM     13  O   UNL     1      -5.105   1.459  24.270  0.00  0.00    -0.268 OA
BRANCH  12  14
ATOM     14  C   UNL     1      -5.078   2.564  25.176  0.00  0.00    +0.093 A 
ATOM     15  C   UNL     1      -5.717   2.613  25.695  0.00  0.00    +0.107 A 
ATOM     16  N   UNL     1      -6.002   3.351  25.931  0.00  0.00    -0.222 NA
ATOM     17  C   UNL     1      -5.648   4.040  25.647  0.00  0.00    +0.199 A 
ATOM     18  N   UNL     1      -5.007   3.991  25.128  0.00  0.00    -0.222 NA
ATOM     19  C   UNL     1      -4.723   3.253  24.893  0.00  0.00    +0.107 A 
ENDBRANCH  12  14
ENDBRANCH  10  11
BRANCH   3   2
ATOM      1  C   UNL     1      -0.524  -1.382  25.392  0.00  0.00    +0.010 C 
ATOM      2  C   UNL     1      -0.907  -1.205  24.683  0.00  0.00    +0.081 C 
BRANCH   2  25
ATOM     25  C   UNL     1      -0.478  -1.179  23.978  0.00  0.00    +0.241 C 
ATOM     26  O   UNL     1      -0.630  -1.731  23.382  0.00  0.00    -0.273 OA
ATOM     27  N   UNL     1       0.102  -0.603  23.869  0.00  0.00    -0.201 NA
BRANCH  27  28
ATOM     28  C   UNL     1       0.531  -0.577  23.166  0.00  0.00    +0.141 C 
BRANCH  28  29
ATOM     29  C   UNL     1       1.196  -0.094  23.105  0.00  0.00    -0.000 A 
ATOM     30  C   UNL     1       1.191   0.661  23.438  0.00  0.00    -0.000 A 
ATOM     31  C   UNL     1       1.856   1.143  23.377  0.00  0.00    +0.029 A 
ATOM     32  C   UNL     1       2.529   0.872  22.982  0.00  0.00    +0.140 A 
ATOM     33  F   UNL     1       3.194   1.354  22.921  0.00  0.00    -0.204 F 
ATOM     34  C   UNL     1       2.534   0.117  22.649  0.00  0.00    +0.029 A 
ATOM     35  C   UNL     1       1.868  -0.366  22.710  0.00  0.00    -0.000 A 
ENDBRANCH  28  29
ENDBRANCH  27  28
ENDBRANCH   2  25
ENDBRANCH   3   2
TORSDOF 6
ENDMDL
