MODEL 1
REMARK VINA RESULT:     -11.2      0.000      0.000
REMARK  Name = 
REMARK  7 active torsions:
REMARK  status: ('A' for Active; 'I' for Inactive)
REMARK    1  A    between atoms: C_2  and  C_4
REMARK    2  A    between atoms: C_4  and  C_5
REMARK    3  A    between atoms: C_10  and  C_11
REMARK    4  A    between atoms: C_11  and  C_12
REMARK    5  A    between atoms: C_12  and  N_13
REMARK    6  A    between atoms: N_16  and  C_19
REMARK    7  A    between atoms: C_26  and  C_28
REMARK                            x       y       z     vdW  Elec       q    Type
REMARK                         _______ _______ _______ _____ _____    ______ ____
ROOT
ATOM      5  C   UNL     1      -4.009   3.491  25.236  0.00  0.00    +0.015 C 
ATOM      6  C   UNL     1      -3.905   4.261  25.511  0.00  0.00    +0.022 C 
ATOM      7  C   UNL     1      -3.150   4.595  25.531  0.00  0.00    +0.093 C 
ATOM      8  N   UNL     1      -2.499   4.156  25.274  0.00  0.00    -0.280 N 
ATOM      9  C   UNL     1      -2.603   3.386  24.998  0.00  0.00    +0.093 C 
ATOM     10  C   UNL     1      -3.357   3.053  24.979  0.00  0.00    +0.022 C 
ATOM     26  C   UNL     1      -1.745   4.489  25.293  0.00  0.00    +0.225 C 
ATOM     27  O   UNL     1      -1.640   5.260  25.569  0.00  0.00    -0.275 OA
ENDROOT
BRANCH  26  28
ATOM     28  C   UNL     1      -1.094   4.052  25.037  0.00  0.00    +0.077 C 
ATOM     29  C   UNL     1      -0.570   3.834  24.437  0.00  0.00    +0.010 C 
ATOM     30  C   UNL     1      -0.490   3.511  25.192  0.00  0.00    +0.010 C 
ENDBRANCH  26  28
BRANCH   5   4
ATOM      4  C   UNL     1      -4.763   3.157  25.216  0.00  0.00    +0.114 C 
BRANCH   4   2
ATOM      1  O   UNL     1      -5.811   4.108  25.421  0.00  0.00    -0.246 OA
ATOM      2  C   UNL     1      -5.363   3.468  25.689  0.00  0.00    +0.365 C 
ATOM      3  O   UNL     1      -5.517   3.140  26.430  0.00  0.00    -0.246 OA
ENDBRANCH   4   2
ENDBRANCH   5   4
BRANCH  10  11
ATOM     11  C   UNL     1      -3.462   2.282  24.704  0.00  0.00    +0.019 C 
BRANCH  11  12
ATOM     12  C   UNL     1      -2.863   1.724  24.800  0.00  0.00    +0.072 C 
BRANCH  12  13
ATOM     13  N   UNL     1      -3.023   0.922  24.692  0.00  0.00    -0.270 NA
ATOM     14  C   UNL     1      -2.989   0.405  25.334  0.00  0.00    +0.094 C 
ATOM     15  C   UNL     1      -3.150  -0.397  25.227  0.00  0.00    +0.108 C 
ATOM     16  N   UNL     1      -3.345  -0.682  24.477  0.00  0.00    -0.305 N 
ATOM     17  C   UNL     1      -3.379  -0.165  23.835  0.00  0.00    +0.108 C 
ATOM     18  C   UNL     1      -3.218   0.637  23.944  0.00  0.00    +0.094 C 
BRANCH  16  19
ATOM     19  C   UNL     1      -3.505  -1.484  24.370  0.00  0.00    +0.048 A 
ATOM     20  C   UNL     1      -4.167  -1.719  23.939  0.00  0.00    +0.017 A 
ATOM     21  C   UNL     1      -4.327  -2.522  23.832  0.00  0.00    +0.031 A 
ATOM     22  C   UNL     1      -3.824  -3.089  24.158  0.00  0.00    +0.140 A 
ATOM     23  F   UNL     1      -3.985  -3.892  24.051  0.00  0.00    -0.204 F 
ATOM     24  C   UNL     1      -3.163  -2.854  24.589  0.00  0.00    +0.031 A 
ATOM     25  C   UNL     1      -3.002  -2.052  24.696  0.00  0.00    +0.017 A 
ENDBRANCH  16  19
ENDBRANCH  12  13
ENDBRANCH  11  12
ENDBRANCH  10  11
TORSDOF 7
ENDMDL
MODEL 2
REMARK VINA RESULT:      -9.9      1.333      2.863
REMARK  Name = 
REMARK  7 active torsions:
REMARK  status: ('A' for Active; 'I' for Inactive)
REMARK    1  A    between atoms: C_2  and  C_4
REMARK    2  A    between atoms: C_4  and  C_5
REMARK    3  A    between atoms: C_10  and  C_11
REMARK    4  A    between atoms: C_11  and  C_12
REMARK    5  A    between atoms: C_12  and  N_13
REMARK    6  A    between atoms: N_16  and  C_19
REMARK    7  A    between atoms: C_26  and  C_28
REMARK                            x       y       z     vdW  Elec       q    Type
REMARK                         _______ _______ _______ _____ _____    ______ ____
ROOT
ATOM      5  C   UNL     1      -0.669   2.648  24.666  0.00  0.00    +0.015 C 
ATOM      6  C   UNL     1      -0.374   3.417  24.625  0.00  0.00    +0.022 C 
ATOM      7  C   UNL     1      -0.829   4.050  24.896  0.00  0.00    +0.093 C 
ATOM      8  N   UNL     1      -1.582   3.913  25.207  0.00  0.00    -0.280 N 
ATOM      9  C   UNL     1      -1.877   3.143  25.248  0.00  0.00    +0.093 C 
ATOM     10  C   UNL     1      -1.422   2.511  24.978  0.00  0.00    +0.022 C 
ATOM     26  C   UNL     1      -2.037   4.545  25.478  0.00  0.00    +0.225 C 
ATOM     27  O   UNL     1      -1.742   5.314  25.437  0.00  0.00    -0.275 OA
ENDROOT
BRANCH  26  28
ATOM     28  C   UNL     1      -2.789   4.408  25.789  0.00  0.00    +0.077 C 
ATOM     29  C   UNL     1      -3.604   4.331  25.682  0.00  0.00    +0.010 C 
ATOM     30  C   UNL     1      -3.277   4.247  26.435  0.00  0.00    +0.010 C 
ENDBRANCH  26  28
BRANCH   5   4
ATOM      4  C   UNL     1      -0.214   2.015  24.396  0.00  0.00    +0.114 C 
BRANCH   4   2
ATOM      1  O   UNL     1       0.909   1.970  25.279  0.00  0.00    -0.246 OA
ATOM      2  C   UNL     1       0.603   2.015  24.515  0.00  0.00    +0.365 C 
ATOM      3  O   UNL     1       1.114   2.059  23.868  0.00  0.00    -0.246 OA
ENDBRANCH   4   2
ENDBRANCH   5   4
BRANCH  10  11
ATOM     11  C   UNL     1      -1.717   1.742  25.019  0.00  0.00    +0.019 C 
BRANCH  11  12
ATOM     12  C   UNL     1      -2.503   1.590  24.820  0.00  0.00    +0.072 C 
BRANCH  12  13
ATOM     13  N   UNL     1      -2.757   0.813  24.705  0.00  0.00    -0.270 NA
ATOM     14  C   UNL     1      -3.050   0.580  23.969  0.00  0.00    +0.094 C 
ATOM     15  C   UNL     1      -3.305  -0.196  23.853  0.00  0.00    +0.108 C 
ATOM     16  N   UNL     1      -3.266  -0.739  24.474  0.00  0.00    -0.305 N 
ATOM     17  C   UNL     1      -2.974  -0.506  25.209  0.00  0.00    +0.108 C 
ATOM     18  C   UNL     1      -2.719   0.270  25.324  0.00  0.00    +0.094 C 
BRANCH  16  19
ATOM     19  C   UNL     1      -3.521  -1.515  24.358  0.00  0.00    +0.048 A 
ATOM     20  C   UNL     1      -3.104  -2.141  24.694  0.00  0.00    +0.017 A 
ATOM     21  C   UNL     1      -3.360  -2.917  24.578  0.00  0.00    +0.031 A 
ATOM     22  C   UNL     1      -4.032  -3.066  24.124  0.00  0.00    +0.140 A 
ATOM     23  F   UNL     1      -4.288  -3.842  24.008  0.00  0.00    -0.204 F 
ATOM     24  C   UNL     1      -4.449  -2.440  23.788  0.00  0.00    +0.031 A 
ATOM     25  C   UNL     1      -4.195  -1.664  23.904  0.00  0.00    +0.017 A 
ENDBRANCH  16  19
ENDBRANCH  12  13
ENDBRANCH  11  12
ENDBRANCH  10  11
TORSDOF 7
ENDMDL
MODEL 3
REMARK VINA RESULT:      -9.8      0.680      2.575
REMARK  Name = 
REMARK  7 active torsions:
REMARK  status: ('A' for Active; 'I' for Inactive)
REMARK    1  A    between atoms: C_2  and  C_4
REMARK    2  A    between atoms: C_4  and  C_5
REMARK    3  A    between atoms: C_10  and  C_11
REMARK    4  A    between atoms: C_11  and  C_12
REMARK    5  A    between atoms: C_12  and  N_13
REMARK    6  A    between atoms: N_16  and  C_19
REMARK    7  A    between atoms: C_26  and  C_28
REMARK                            x       y       z     vdW  Elec       q    Type
REMARK                         _______ _______ _______ _____ _____    ______ ____
ROOT
ATOM      5  C   UNL     1      -2.631   3.579  25.133  0.00  0.00    +0.015 C 
ATOM      6  C   UNL     1      -2.980   4.311  25.283  0.00  0.00    +0.022 C 
ATOM      7  C   UNL     1      -3.787   4.358  25.448  0.00  0.00    +0.093 C 
ATOM      8  N   UNL     1      -4.246   3.672  25.462  0.00  0.00    -0.280 N 
ATOM      9  C   UNL     1      -3.897   2.939  25.312  0.00  0.00    +0.093 C 
ATOM     10  C   UNL     1      -3.091   2.892  25.147  0.00  0.00    +0.022 C 
ATOM     26  C   UNL     1      -5.053   3.719  25.627  0.00  0.00    +0.225 C 
ATOM     27  O   UNL     1      -5.402   4.451  25.777  0.00  0.00    -0.275 OA
ENDROOT
BRANCH  26  28
ATOM     28  C   UNL     1      -5.511   3.033  25.641  0.00  0.00    +0.077 C 
ATOM     29  C   UNL     1      -5.993   2.487  25.252  0.00  0.00    +0.010 C 
ATOM     30  C   UNL     1      -5.824   2.391  26.054  0.00  0.00    +0.010 C 
ENDBRANCH  26  28
BRANCH   5   4
ATOM      4  C   UNL     1      -1.824   3.531  24.968  0.00  0.00    +0.114 C 
BRANCH   4   2
ATOM      1  O   UNL     1      -1.199   4.815  24.905  0.00  0.00    -0.246 OA
ATOM      2  C   UNL     1      -1.306   4.090  25.284  0.00  0.00    +0.365 C 
ATOM      3  O   UNL     1      -0.893   3.924  25.980  0.00  0.00    -0.246 OA
ENDBRANCH   4   2
ENDBRANCH   5   4
BRANCH  10  11
ATOM     11  C   UNL     1      -2.741   2.160  24.997  0.00  0.00    +0.019 C 
BRANCH  11  12
ATOM     12  C   UNL     1      -2.900   1.764  24.292  0.00  0.00    +0.072 C 
BRANCH  12  13
ATOM     13  N   UNL     1      -3.024   0.948  24.295  0.00  0.00    -0.270 NA
ATOM     14  C   UNL     1      -2.643   0.476  24.854  0.00  0.00    +0.094 C 
ATOM     15  C   UNL     1      -2.766  -0.340  24.858  0.00  0.00    +0.108 C 
ATOM     16  N   UNL     1      -3.270  -0.684  24.302  0.00  0.00    -0.305 N 
ATOM     17  C   UNL     1      -3.650  -0.212  23.742  0.00  0.00    +0.108 C 
ATOM     18  C   UNL     1      -3.526   0.604  23.739  0.00  0.00    +0.094 C 
BRANCH  16  19
ATOM     19  C   UNL     1      -3.392  -1.500  24.306  0.00  0.00    +0.048 A 
ATOM     20  C   UNL     1      -2.836  -1.998  24.654  0.00  0.00    +0.017 A 
ATOM     21  C   UNL     1      -2.960  -2.815  24.658  0.00  0.00    +0.031 A 
ATOM     22  C   UNL     1      -3.639  -3.130  24.313  0.00  0.00    +0.140 A 
ATOM     23  F   UNL     1      -3.762  -3.947  24.316  0.00  0.00    -0.204 F 
ATOM     24  C   UNL     1      -4.194  -2.632  23.964  0.00  0.00    +0.031 A 
ATOM     25  C   UNL     1      -4.072  -1.816  23.960  0.00  0.00    +0.017 A 
ENDBRANCH  16  19
ENDBRANCH  12  13
ENDBRANCH  11  12
ENDBRANCH  10  11
TORSDOF 7
ENDMDL
MODEL 4
REMARK VINA RESULT:      -9.6      3.227      6.275
REMARK  Name = 
REMARK  7 active torsions:
REMARK  status: ('A' for Active; 'I' for Inactive)
REMARK    1  A    between atoms: C_2  and  C_4
REMARK    2  A    between atoms: C_4  and  C_5
REMARK    3  A    between atoms: C_10  and  C_11
REMARK    4  A    between atoms: C_11  and  C_12
REMARK    5  A    between atoms: C_12  and  N_13
REMARK    6  A    between atoms: N_16  and  C_19
REMARK    7  A    between atoms: C_26  and  C_28
REMARK                            x       y       z     vdW  Elec       q    Type
REMARK                         _______ _______ _______ _____ _____    ______ ____
ROOT
ATOM      5  C   UNL     1      -1.288  -1.401  24.905  0.00  0.00    +0.015 C 
ATOM      6  C   UNL     1      -1.455  -2.207  24.887  0.00  0.00    +0.022 C 
ATOM      7  C   UNL     1      -2.213  -2.468  24.688  0.00  0.00    +0.093 C 
ATOM      8  N   UNL     1      -2.803  -1.919  24.506  0.00  0.00    -0.280 N 
ATOM      9  C   UNL     1      -2.634  -1.112  24.523  0.00  0.00    +0.093 C 
ATOM     10  C   UNL     1      -1.878  -0.852  24.722  0.00  0.00    +0.022 C 
ATOM     26  C   UNL     1      -3.559  -2.179  24.307  0.00  0.00    +0.225 C 
ATOM     27  O   UNL     1      -3.728  -2.987  24.290  0.00  0.00    -0.275 OA
ENDROOT
BRANCH  26  28
ATOM     28  C   UNL     1      -4.149  -1.631  24.125  0.00  0.00    +0.077 C 
ATOM     29  C   UNL     1      -4.550  -1.171  23.569  0.00  0.00    +0.010 C 
ATOM     30  C   UNL     1      -4.769  -1.143  24.364  0.00  0.00    +0.010 C 
ENDBRANCH  26  28
BRANCH   5   4
ATOM      4  C   UNL     1      -0.530  -1.140  25.104  0.00  0.00    +0.114 C 
BRANCH   4   2
ATOM      1  O   UNL     1       0.550  -1.466  24.227  0.00  0.00    -0.246 OA
ATOM      2  C   UNL     1       0.127  -1.605  24.921  0.00  0.00    +0.365 C 
ATOM      3  O   UNL     1       0.360  -2.209  25.433  0.00  0.00    -0.246 OA
ENDBRANCH   4   2
ENDBRANCH   5   4
BRANCH  10  11
ATOM     11  C   UNL     1      -1.709  -0.044  24.740  0.00  0.00    +0.019 C 
BRANCH  11  12
ATOM     12  C   UNL     1      -2.240   0.481  25.089  0.00  0.00    +0.072 C 
BRANCH  12  13
ATOM     13  N   UNL     1      -2.083   1.291  25.086  0.00  0.00    -0.270 NA
ATOM     14  C   UNL     1      -2.459   1.782  24.540  0.00  0.00    +0.094 C 
ATOM     15  C   UNL     1      -2.303   2.592  24.536  0.00  0.00    +0.108 C 
ATOM     16  N   UNL     1      -1.768   2.911  25.079  0.00  0.00    -0.305 N 
ATOM     17  C   UNL     1      -1.392   2.420  25.625  0.00  0.00    +0.108 C 
ATOM     18  C   UNL     1      -1.549   1.610  25.628  0.00  0.00    +0.094 C 
BRANCH  16  19
ATOM     19  C   UNL     1      -1.612   3.720  25.075  0.00  0.00    +0.048 A 
ATOM     20  C   UNL     1      -0.916   4.005  24.737  0.00  0.00    +0.017 A 
ATOM     21  C   UNL     1      -0.760   4.815  24.733  0.00  0.00    +0.031 A 
ATOM     22  C   UNL     1      -1.301   5.340  25.068  0.00  0.00    +0.140 A 
ATOM     23  F   UNL     1      -1.144   6.151  25.064  0.00  0.00    -0.204 F 
ATOM     24  C   UNL     1      -1.996   5.056  25.406  0.00  0.00    +0.031 A 
ATOM     25  C   UNL     1      -2.153   4.247  25.410  0.00  0.00    +0.017 A 
ENDBRANCH  16  19
ENDBRANCH  12  13
ENDBRANCH  11  12
ENDBRANCH  10  11
TORSDOF 7
ENDMDL
MODEL 5
REMARK VINA RESULT:      -9.6      3.375      4.774
REMARK  Name = 
REMARK  7 active torsions:
REMARK  status: ('A' for Active; 'I' for Inactive)
REMARK    1  A    between atoms: C_2  and  C_4
REMARK    2  A    between atoms: C_4  and  C_5
REMARK    3  A    between atoms: C_10  and  C_11
REMARK    4  A    between atoms: C_11  and  C_12
REMARK    5  A    between atoms: C_12  and  N_13
REMARK    6  A    between atoms: N_16  and  C_19
REMARK    7  A    between atoms: C_26  and  C_28
REMARK                            x       y       z     vdW  Elec       q    Type
REMARK                         _______ _______ _______ _____ _____    ______ ____
ROOT
ATOM      5  C   UNL     1      -3.730  -0.386  24.497  0.00  0.00    +0.015 C 
ATOM      6  C   UNL     1      -4.494  -0.306  24.796  0.00  0.00    +0.022 C 
ATOM      7  C   UNL     1      -4.798   0.444  24.958  0.00  0.00    +0.093 C 
ATOM      8  N   UNL     1      -4.336   1.115  24.822  0.00  0.00    -0.280 N 
ATOM      9  C   UNL     1      -3.571   1.034  24.524  0.00  0.00    +0.093 C 
ATOM     10  C   UNL     1      -3.268   0.285  24.361  0.00  0.00    +0.022 C 
ATOM     26  C   UNL     1      -4.639   1.864  24.985  0.00  0.00    +0.225 C 
ATOM     27  O   UNL     1      -5.404   1.945  25.283  0.00  0.00    -0.275 OA
ENDROOT
BRANCH  26  28
ATOM     28  C   UNL     1      -4.177   2.534  24.849  0.00  0.00    +0.077 C 
ATOM     29  C   UNL     1      -3.652   3.109  25.125  0.00  0.00    +0.010 C 
ATOM     30  C   UNL     1      -3.901   3.120  24.338  0.00  0.00    +0.010 C 
ENDBRANCH  26  28
BRANCH   5   4
ATOM      4  C   UNL     1      -3.426  -1.136  24.334  0.00  0.00    +0.114 C 
BRANCH   4   2
ATOM      1  O   UNL     1      -4.428  -2.015  23.818  0.00  0.00    -0.246 OA
ATOM      2  C   UNL     1      -3.906  -1.802  24.420  0.00  0.00    +0.365 C 
ATOM      3  O   UNL     1      -3.863  -2.256  25.109  0.00  0.00    -0.246 OA
ENDBRANCH   4   2
ENDBRANCH   5   4
BRANCH  10  11
ATOM     11  C   UNL     1      -2.503   0.204  24.062  0.00  0.00    +0.019 C 
BRANCH  11  12
ATOM     12  C   UNL     1      -1.859   0.487  24.493  0.00  0.00    +0.072 C 
BRANCH  12  13
ATOM     13  N   UNL     1      -1.101   0.462  24.168  0.00  0.00    -0.270 NA
ATOM     14  C   UNL     1      -0.642  -0.219  24.243  0.00  0.00    +0.094 C 
ATOM     15  C   UNL     1       0.115  -0.245  23.919  0.00  0.00    +0.108 C 
ATOM     16  N   UNL     1       0.415   0.412  23.518  0.00  0.00    -0.305 N 
ATOM     17  C   UNL     1      -0.044   1.094  23.443  0.00  0.00    +0.108 C 
ATOM     18  C   UNL     1      -0.802   1.118  23.768  0.00  0.00    +0.094 C 
BRANCH  16  19
ATOM     19  C   UNL     1       1.173   0.386  23.193  0.00  0.00    +0.048 A 
ATOM     20  C   UNL     1       1.753   0.908  23.458  0.00  0.00    +0.017 A 
ATOM     21  C   UNL     1       2.511   0.882  23.133  0.00  0.00    +0.031 A 
ATOM     22  C   UNL     1       2.687   0.333  22.543  0.00  0.00    +0.140 A 
ATOM     23  F   UNL     1       3.446   0.307  22.218  0.00  0.00    -0.204 F 
ATOM     24  C   UNL     1       2.107  -0.189  22.279  0.00  0.00    +0.031 A 
ATOM     25  C   UNL     1       1.350  -0.163  22.603  0.00  0.00    +0.017 A 
ENDBRANCH  16  19
ENDBRANCH  12  13
ENDBRANCH  11  12
ENDBRANCH  10  11
TORSDOF 7
ENDMDL
MODEL 6
REMARK VINA RESULT:      -9.5      3.231      5.347
REMARK  Name = 
REMARK  7 active torsions:
REMARK  status: ('A' for Active; 'I' for Inactive)
REMARK    1  A    between atoms: C_2  and  C_4
REMARK    2  A    between atoms: C_4  and  C_5
REMARK    3  A    between atoms: C_10  and  C_11
REMARK    4  A    between atoms: C_11  and  C_12
REMARK    5  A    between atoms: C_12  and  N_13
REMARK    6  A    between atoms: N_16  and  C_19
REMARK    7  A    between atoms: C_26  and  C_28
REMARK                            x       y       z     vdW  Elec       q    Type
REMARK                         _______ _______ _______ _____ _____    ______ ____
ROOT
ATOM      5  C   UNL     1      -2.730  -1.775  24.621  0.00  0.00    +0.015 C 
ATOM      6  C   UNL     1      -2.081  -2.267  24.495  0.00  0.00    +0.022 C 
ATOM      7  C   UNL     1      -1.326  -1.944  24.422  0.00  0.00    +0.093 C 
ATOM      8  N   UNL     1      -1.220  -1.127  24.475  0.00  0.00    -0.280 N 
ATOM      9  C   UNL     1      -1.870  -0.634  24.601  0.00  0.00    +0.093 C 
ATOM     10  C   UNL     1      -2.625  -0.958  24.674  0.00  0.00    +0.022 C 
ATOM     26  C   UNL     1      -0.465  -0.803  24.402  0.00  0.00    +0.225 C 
ATOM     27  O   UNL     1       0.185  -1.296  24.276  0.00  0.00    -0.275 OA
ENDROOT
BRANCH  26  28
ATOM     28  C   UNL     1      -0.359   0.013  24.455  0.00  0.00    +0.077 C 
ATOM     29  C   UNL     1      -0.273   0.695  24.913  0.00  0.00    +0.010 C 
ATOM     30  C   UNL     1      -0.261   0.746  24.089  0.00  0.00    +0.010 C 
ENDBRANCH  26  28
BRANCH   5   4
ATOM      4  C   UNL     1      -3.486  -2.098  24.694  0.00  0.00    +0.114 C 
BRANCH   4   2
ATOM      1  O   UNL     1      -3.532  -3.358  25.368  0.00  0.00    -0.246 OA
ATOM      2  C   UNL     1      -3.588  -2.917  24.673  0.00  0.00    +0.365 C 
ATOM      3  O   UNL     1      -3.747  -3.295  23.957  0.00  0.00    -0.246 OA
ENDBRANCH   4   2
ENDBRANCH   5   4
BRANCH  10  11
ATOM     11  C   UNL     1      -3.275  -0.465  24.800  0.00  0.00    +0.019 C 
BRANCH  11  12
ATOM     12  C   UNL     1      -3.491   0.087  24.227  0.00  0.00    +0.072 C 
BRANCH  12  13
ATOM     13  N   UNL     1      -3.882   0.780  24.448  0.00  0.00    -0.270 NA
ATOM     14  C   UNL     1      -3.709   1.490  24.065  0.00  0.00    +0.094 C 
ATOM     15  C   UNL     1      -4.099   2.183  24.284  0.00  0.00    +0.108 C 
ATOM     16  N   UNL     1      -4.661   2.166  24.889  0.00  0.00    -0.305 N 
ATOM     17  C   UNL     1      -4.833   1.456  25.272  0.00  0.00    +0.108 C 
ATOM     18  C   UNL     1      -4.443   0.763  25.052  0.00  0.00    +0.094 C 
BRANCH  16  19
ATOM     19  C   UNL     1      -5.050   2.859  25.109  0.00  0.00    +0.048 A 
ATOM     20  C   UNL     1      -5.817   2.824  25.410  0.00  0.00    +0.017 A 
ATOM     21  C   UNL     1      -6.206   3.518  25.630  0.00  0.00    +0.031 A 
ATOM     22  C   UNL     1      -5.827   4.247  25.548  0.00  0.00    +0.140 A 
ATOM     23  F   UNL     1      -6.216   4.941  25.768  0.00  0.00    -0.204 F 
ATOM     24  C   UNL     1      -5.061   4.281  25.247  0.00  0.00    +0.031 A 
ATOM     25  C   UNL     1      -4.672   3.588  25.027  0.00  0.00    +0.017 A 
ENDBRANCH  16  19
ENDBRANCH  12  13
ENDBRANCH  11  12
ENDBRANCH  10  11
TORSDOF 7
ENDMDL
