MODEL 1
REMARK VINA RESULT:      -9.0      0.000      0.000
REMARK  Name = 
REMARK  8 active torsions:
REMARK  status: ('A' for Active; 'I' for Inactive)
REMARK    1  A    between atoms: C_2  and  C_3
REMARK    2  A    between atoms: C_3  and  C_4
REMARK    3  A    between atoms: C_3  and  C_6
REMARK    4  A    between atoms: C_8  and  C_31
REMARK    5  A    between atoms: C_10  and  C_12
REMARK    6  A    between atoms: C_19  and  C_20
REMARK    7  A    between atoms: C_20  and  N_21
REMARK    8  A    between atoms: N_21  and  C_22
REMARK                            x       y       z     vdW  Elec       q    Type
REMARK                         _______ _______ _______ _____ _____    ______ ____
ROOT
ATOM     12  C   UNL     1      -0.904   0.792  24.191  0.00  0.00    +0.056 C 
ATOM     13  C   UNL     1      -0.372   0.732  24.756  0.00  0.00    +0.078 C 
ATOM     14  N   UNL     1      -0.222   0.756  23.944  0.00  0.00    -0.272 NA
ATOM     15  C   UNL     1      -1.148   0.840  23.460  0.00  0.00    +0.072 C 
ATOM     16  C   UNL     1      -1.500   0.887  22.912  0.00  0.00    +0.018 C 
ATOM     17  C   UNL     1      -0.749   0.815  23.397  0.00  0.00    +0.010 C 
ATOM     18  C   UNL     1       0.002   0.782  22.943  0.00  0.00    +0.018 C 
ATOM     19  C   UNL     1       0.555   0.722  23.466  0.00  0.00    +0.075 C 
ENDROOT
BRANCH  12  10
ATOM      6  C   UNL     1      -2.913   0.192  24.799  0.00  0.00    +0.061 A 
ATOM      7  N   UNL     1      -3.278   0.927  24.882  0.00  0.00    -0.231 NA
ATOM      8  C   UNL     1      -2.851   1.618  24.735  0.00  0.00    +0.162 A 
ATOM      9  N   UNL     1      -2.061   1.573  24.505  0.00  0.00    -0.231 NA
ATOM     10  C   UNL     1      -1.696   0.837  24.422  0.00  0.00    +0.063 A 
ATOM     11  C   UNL     1      -2.122   0.147  24.569  0.00  0.00    +0.030 A 
BRANCH   8  31
ATOM     31  C   UNL     1      -3.216   2.354  24.818  0.00  0.00    +0.039 A 
ATOM     32  C   UNL     1      -3.768   2.606  24.260  0.00  0.00    +0.024 A 
ATOM     33  C   UNL     1      -4.132   3.342  24.343  0.00  0.00    +0.099 A 
ATOM     34  N   UNL     1      -3.943   3.825  24.984  0.00  0.00    -0.242 NA
ATOM     35  C   UNL     1      -3.391   3.573  25.542  0.00  0.00    +0.099 A 
ATOM     36  C   UNL     1      -3.027   2.837  25.459  0.00  0.00    +0.024 A 
ENDBRANCH   8  31
BRANCH   6   3
ATOM      3  C   UNL     1      -3.340  -0.498  24.947  0.00  0.00    +0.040 C 
BRANCH   3   2
ATOM      1  C   UNL     1      -3.675  -1.369  26.029  0.00  0.00    +0.000 C 
ATOM      2  C   UNL     1      -3.107  -1.006  25.554  0.00  0.00    +0.006 C 
ENDBRANCH   3   2
BRANCH   3   4
ATOM      4  C   UNL     1      -4.000  -0.681  24.488  0.00  0.00    +0.006 C 
ATOM      5  C   UNL     1      -4.070  -1.428  24.144  0.00  0.00    +0.000 C 
ENDBRANCH   3   4
ENDBRANCH   6   3
ENDBRANCH  12  10
BRANCH  19  20
ATOM     20  C   UNL     1       1.373   0.663  23.549  0.00  0.00    +0.104 C 
BRANCH  20  21
ATOM     21  N   UNL     1       1.835   0.408  22.915  0.00  0.00    -0.218 NA
BRANCH  21  22
ATOM     22  C   UNL     1       2.647   0.305  23.012  0.00  0.00    +0.076 C 
ATOM     23  C   UNL     1       3.166   0.920  22.830  0.00  0.00    +0.039 C 
ATOM     24  C   UNL     1       3.979   0.817  22.928  0.00  0.00    +0.095 C 
ATOM     25  N   UNL     1       4.273   0.099  23.208  0.00  0.00    -0.279 N 
ATOM     26  C   UNL     1       3.754  -0.516  23.390  0.00  0.00    +0.095 C 
ATOM     27  C   UNL     1       2.942  -0.413  23.292  0.00  0.00    +0.039 C 
ATOM     28  C   UNL     1       5.086  -0.004  23.306  0.00  0.00    +0.226 C 
ATOM     29  C   UNL     1       5.379  -0.723  23.586  0.00  0.00    +0.095 C 
ATOM     30  O   UNL     1       5.605   0.611  23.123  0.00  0.00    -0.275 OA
ENDBRANCH  21  22
ENDBRANCH  20  21
ENDBRANCH  19  20
TORSDOF 8
ENDMDL
MODEL 2
REMARK VINA RESULT:      -8.4      0.583      2.435
REMARK  Name = 
REMARK  8 active torsions:
REMARK  status: ('A' for Active; 'I' for Inactive)
REMARK    1  A    between atoms: C_2  and  C_3
REMARK    2  A    between atoms: C_3  and  C_4
REMARK    3  A    between atoms: C_3  and  C_6
REMARK    4  A    between atoms: C_8  and  C_31
REMARK    5  A    between atoms: C_10  and  C_12
REMARK    6  A    between atoms: C_19  and  C_20
REMARK    7  A    between atoms: C_20  and  N_21
REMARK    8  A    between atoms: N_21  and  C_22
REMARK                            x       y       z     vdW  Elec       q    Type
REMARK                         _______ _______ _______ _____ _____    ______ ____
ROOT
ATOM     12  C   UNL     1      -0.721   0.936  24.172  0.00  0.00    +0.056 C 
ATOM     13  C   UNL     1      -0.184   0.944  24.735  0.00  0.00    +0.078 C 
ATOM     14  N   UNL     1      -0.039   0.885  23.924  0.00  0.00    -0.272 NA
ATOM     15  C   UNL     1      -0.970   0.903  23.441  0.00  0.00    +0.072 C 
ATOM     16  C   UNL     1      -1.326   0.888  22.894  0.00  0.00    +0.018 C 
ATOM     17  C   UNL     1      -0.571   0.879  23.378  0.00  0.00    +0.010 C 
ATOM     18  C   UNL     1       0.178   0.811  22.924  0.00  0.00    +0.018 C 
ATOM     19  C   UNL     1       0.735   0.815  23.446  0.00  0.00    +0.075 C 
ENDROOT
BRANCH  12  10
ATOM      6  C   UNL     1      -2.649   1.788  24.738  0.00  0.00    +0.061 A 
ATOM      7  N   UNL     1      -3.092   1.103  24.864  0.00  0.00    -0.231 NA
ATOM      8  C   UNL     1      -2.744   0.362  24.759  0.00  0.00    +0.162 A 
ATOM      9  N   UNL     1      -1.954   0.307  24.529  0.00  0.00    -0.231 NA
ATOM     10  C   UNL     1      -1.512   0.992  24.403  0.00  0.00    +0.063 A 
ATOM     11  C   UNL     1      -1.859   1.732  24.507  0.00  0.00    +0.030 A 
BRANCH   8  31
ATOM     31  C   UNL     1      -3.186  -0.323  24.885  0.00  0.00    +0.039 A 
ATOM     32  C   UNL     1      -3.682  -0.608  24.291  0.00  0.00    +0.024 A 
ATOM     33  C   UNL     1      -4.124  -1.294  24.417  0.00  0.00    +0.099 A 
ATOM     34  N   UNL     1      -4.070  -1.693  25.137  0.00  0.00    -0.242 NA
ATOM     35  C   UNL     1      -3.574  -1.407  25.731  0.00  0.00    +0.099 A 
ATOM     36  C   UNL     1      -3.132  -0.722  25.605  0.00  0.00    +0.024 A 
ENDBRANCH   8  31
BRANCH   6   3
ATOM      3  C   UNL     1      -2.998   2.528  24.843  0.00  0.00    +0.040 C 
BRANCH   3   2
ATOM      1  C   UNL     1      -3.715   3.462  24.033  0.00  0.00    +0.000 C 
ATOM      2  C   UNL     1      -3.673   2.731  24.413  0.00  0.00    +0.006 C 
ENDBRANCH   3   2
BRANCH   3   4
ATOM      4  C   UNL     1      -2.672   3.066  25.377  0.00  0.00    +0.006 C 
ATOM      5  C   UNL     1      -3.166   3.538  25.840  0.00  0.00    +0.000 C 
ENDBRANCH   3   4
ENDBRANCH   6   3
ENDBRANCH  12  10
BRANCH  19  20
ATOM     20  C   UNL     1       1.554   0.777  23.529  0.00  0.00    +0.104 C 
BRANCH  20  21
ATOM     21  N   UNL     1       2.019   0.496  22.908  0.00  0.00    -0.218 NA
BRANCH  21  22
ATOM     22  C   UNL     1       2.825   0.365  23.024  0.00  0.00    +0.076 C 
ATOM     23  C   UNL     1       3.370   0.959  22.848  0.00  0.00    +0.039 C 
ATOM     24  C   UNL     1       4.176   0.826  22.964  0.00  0.00    +0.095 C 
ATOM     25  N   UNL     1       4.438   0.100  23.256  0.00  0.00    -0.279 N 
ATOM     26  C   UNL     1       3.893  -0.493  23.432  0.00  0.00    +0.095 C 
ATOM     27  C   UNL     1       3.086  -0.361  23.316  0.00  0.00    +0.039 C 
ATOM     28  C   UNL     1       5.244  -0.032  23.373  0.00  0.00    +0.226 C 
ATOM     29  C   UNL     1       5.504  -0.758  23.665  0.00  0.00    +0.095 C 
ATOM     30  O   UNL     1       5.789   0.562  23.197  0.00  0.00    -0.275 OA
ENDBRANCH  21  22
ENDBRANCH  20  21
ENDBRANCH  19  20
TORSDOF 8
ENDMDL
