MODEL 1
REMARK VINA RESULT:     -12.6      0.000      0.000
REMARK  Name = 
REMARK  4 active torsions:
REMARK  status: ('A' for Active; 'I' for Inactive)
REMARK    1  A    between atoms: C_4  and  C_20
REMARK    2  A    between atoms: C_6  and  C_7
REMARK    3  A    between atoms: C_14  and  C_15
REMARK    4  A    between atoms: C_15  and  N_16
REMARK                            x       y       z     vdW  Elec       q    Type
REMARK                         _______ _______ _______ _____ _____    ______ ____
ROOT
ATOM      1  C   UNL     1      -5.273   1.492  24.977  0.00  0.00    +0.153 C 
ATOM      2  N   UNL     1      -4.697   0.914  24.855  0.00  0.00    -0.253 N 
ATOM      3  N   UNL     1      -4.830   0.101  24.800  0.00  0.00    -0.170 NA
ATOM      4  C   UNL     1      -4.103  -0.269  24.678  0.00  0.00    +0.102 A 
ATOM      5  C   UNL     1      -3.521   0.315  24.658  0.00  0.00    +0.035 A 
ATOM      6  C   UNL     1      -3.888   1.045  24.767  0.00  0.00    +0.058 A 
ENDROOT
BRANCH   6   7
ATOM      7  C   UNL     1      -3.511   1.780  24.785  0.00  0.00    +0.056 C 
ATOM      8  C   UNL     1      -3.528   2.173  25.456  0.00  0.00    +0.078 C 
ATOM      9  N   UNL     1      -3.168   2.420  24.756  0.00  0.00    -0.272 NA
ATOM     10  C   UNL     1      -3.325   1.667  24.044  0.00  0.00    +0.072 C 
ATOM     11  C   UNL     1      -3.248   1.432  23.439  0.00  0.00    +0.018 C 
ATOM     12  C   UNL     1      -3.155   2.029  24.101  0.00  0.00    +0.010 C 
ATOM     13  C   UNL     1      -2.709   2.759  23.903  0.00  0.00    +0.018 C 
ATOM     14  C   UNL     1      -2.703   3.176  24.542  0.00  0.00    +0.079 C 
BRANCH  14  15
ATOM     15  C   UNL     1      -2.435   3.890  24.855  0.00  0.00    +0.131 C 
BRANCH  15  16
ATOM     16  N   UNL     1      -1.653   4.125  24.736  0.00  0.00    -0.204 NA
ATOM     17  C   UNL     1      -1.387   4.842  25.044  0.00  0.00    +0.242 C 
ATOM     18  C   UNL     1      -0.605   5.077  24.925  0.00  0.00    +0.096 C 
ATOM     19  O   UNL     1      -1.902   5.325  25.471  0.00  0.00    -0.273 OA
ENDBRANCH  15  16
ENDBRANCH  14  15
ENDBRANCH   6   7
BRANCH   4  20
ATOM     20  C   UNL     1      -3.980  -1.080  24.592  0.00  0.00    +0.020 A 
ATOM     21  C   UNL     1      -4.281  -1.475  23.934  0.00  0.00    +0.004 A 
ATOM     22  C   UNL     1      -4.158  -2.286  23.848  0.00  0.00    +0.030 A 
ATOM     23  C   UNL     1      -3.735  -2.702  24.421  0.00  0.00    +0.140 A 
ATOM     24  F   UNL     1      -3.612  -3.513  24.336  0.00  0.00    -0.204 F 
ATOM     25  C   UNL     1      -3.434  -2.307  25.080  0.00  0.00    +0.030 A 
ATOM     26  C   UNL     1      -3.557  -1.496  25.166  0.00  0.00    +0.004 A 
ENDBRANCH   4  20
TORSDOF 4
ENDMDL
MODEL 2
REMARK VINA RESULT:     -11.3      2.631      5.169
REMARK  Name = 
REMARK  4 active torsions:
REMARK  status: ('A' for Active; 'I' for Inactive)
REMARK    1  A    between atoms: C_4  and  C_20
REMARK    2  A    between atoms: C_6  and  C_7
REMARK    3  A    between atoms: C_14  and  C_15
REMARK    4  A    between atoms: C_15  and  N_16
REMARK                            x       y       z     vdW  Elec       q    Type
REMARK                         _______ _______ _______ _____ _____    ______ ____
ROOT
ATOM      1  C   UNL     1      -4.804   2.477  25.268  0.00  0.00    +0.153 C 
ATOM      2  N   UNL     1      -4.002   2.608  25.124  0.00  0.00    -0.253 N 
ATOM      3  N   UNL     1      -3.599   3.319  25.238  0.00  0.00    -0.170 NA
ATOM      4  C   UNL     1      -2.811   3.202  25.025  0.00  0.00    +0.102 A 
ATOM      5  C   UNL     1      -2.726   2.419  24.780  0.00  0.00    +0.035 A 
ATOM      6  C   UNL     1      -3.463   2.052  24.842  0.00  0.00    +0.058 A 
ENDROOT
BRANCH   6   7
ATOM      7  C   UNL     1      -3.630   1.265  24.653  0.00  0.00    +0.056 C 
ATOM      8  C   UNL     1      -3.914   0.815  25.221  0.00  0.00    +0.078 C 
ATOM      9  N   UNL     1      -3.763   0.582  24.444  0.00  0.00    -0.272 NA
ATOM     10  C   UNL     1      -3.388   1.419  23.936  0.00  0.00    +0.072 C 
ATOM     11  C   UNL     1      -3.159   1.697  23.391  0.00  0.00    +0.018 C 
ATOM     12  C   UNL     1      -3.485   1.029  23.892  0.00  0.00    +0.010 C 
ATOM     13  C   UNL     1      -3.588   0.257  23.486  0.00  0.00    +0.018 C 
ATOM     14  C   UNL     1      -3.867  -0.217  24.015  0.00  0.00    +0.079 C 
BRANCH  14  15
ATOM     15  C   UNL     1      -4.116  -0.994  24.131  0.00  0.00    +0.131 C 
BRANCH  15  16
ATOM     16  N   UNL     1      -3.578  -1.569  24.377  0.00  0.00    -0.204 NA
ATOM     17  C   UNL     1      -3.764  -2.368  24.298  0.00  0.00    +0.242 C 
ATOM     18  C   UNL     1      -3.225  -2.943  24.544  0.00  0.00    +0.096 C 
ATOM     19  O   UNL     1      -4.488  -2.594  23.974  0.00  0.00    -0.273 OA
ENDBRANCH  15  16
ENDBRANCH  14  15
ENDBRANCH   6   7
BRANCH   4  20
ATOM     20  C   UNL     1      -2.212   3.769  25.053  0.00  0.00    +0.020 A 
ATOM     21  C   UNL     1      -2.404   4.571  25.072  0.00  0.00    +0.004 A 
ATOM     22  C   UNL     1      -1.805   5.137  25.099  0.00  0.00    +0.030 A 
ATOM     23  C   UNL     1      -1.014   4.902  25.108  0.00  0.00    +0.140 A 
ATOM     24  F   UNL     1      -0.415   5.468  25.135  0.00  0.00    -0.204 F 
ATOM     25  C   UNL     1      -0.822   4.100  25.089  0.00  0.00    +0.030 A 
ATOM     26  C   UNL     1      -1.421   3.533  25.061  0.00  0.00    +0.004 A 
ENDBRANCH   4  20
TORSDOF 4
ENDMDL
MODEL 3
REMARK VINA RESULT:     -11.1      2.906      5.530
REMARK  Name = 
REMARK  4 active torsions:
REMARK  status: ('A' for Active; 'I' for Inactive)
REMARK    1  A    between atoms: C_4  and  C_20
REMARK    2  A    between atoms: C_6  and  C_7
REMARK    3  A    between atoms: C_14  and  C_15
REMARK    4  A    between atoms: C_15  and  N_16
REMARK                            x       y       z     vdW  Elec       q    Type
REMARK                         _______ _______ _______ _____ _____    ______ ____
ROOT
ATOM      1  C   UNL     1      -0.246   0.928  24.568  0.00  0.00    +0.153 C 
ATOM      2  N   UNL     1      -0.767   1.551  24.713  0.00  0.00    -0.253 N 
ATOM      3  N   UNL     1      -0.566   2.350  24.759  0.00  0.00    -0.170 NA
ATOM      4  C   UNL     1      -1.254   2.778  24.912  0.00  0.00    +0.102 A 
ATOM      5  C   UNL     1      -1.881   2.243  24.962  0.00  0.00    +0.035 A 
ATOM      6  C   UNL     1      -1.579   1.485  24.839  0.00  0.00    +0.058 A 
ENDROOT
BRANCH   6   7
ATOM      7  C   UNL     1      -2.015   0.784  24.841  0.00  0.00    +0.056 C 
ATOM      8  C   UNL     1      -1.838   0.256  25.386  0.00  0.00    +0.078 C 
ATOM      9  N   UNL     1      -2.423   0.183  24.807  0.00  0.00    -0.272 NA
ATOM     10  C   UNL     1      -2.405   1.061  24.236  0.00  0.00    +0.072 C 
ATOM     11  C   UNL     1      -2.637   1.424  23.744  0.00  0.00    +0.018 C 
ATOM     12  C   UNL     1      -2.590   0.704  24.277  0.00  0.00    +0.010 C 
ATOM     13  C   UNL     1      -3.157   0.057  24.102  0.00  0.00    +0.018 C 
ATOM     14  C   UNL     1      -3.015  -0.486  24.619  0.00  0.00    +0.079 C 
BRANCH  14  15
ATOM     15  C   UNL     1      -3.255  -1.235  24.864  0.00  0.00    +0.131 C 
BRANCH  15  16
ATOM     16  N   UNL     1      -3.525  -1.784  24.310  0.00  0.00    -0.204 NA
ATOM     17  C   UNL     1      -3.672  -2.563  24.539  0.00  0.00    +0.242 C 
ATOM     18  C   UNL     1      -3.941  -3.111  23.985  0.00  0.00    +0.096 C 
ATOM     19  O   UNL     1      -3.549  -2.793  25.322  0.00  0.00    -0.273 OA
ENDBRANCH  15  16
ENDBRANCH  14  15
ENDBRANCH   6   7
BRANCH   4  20
ATOM     20  C   UNL     1      -1.307   3.596  25.001  0.00  0.00    +0.020 A 
ATOM     21  C   UNL     1      -0.744   4.086  24.648  0.00  0.00    +0.004 A 
ATOM     22  C   UNL     1      -0.797   4.904  24.737  0.00  0.00    +0.030 A 
ATOM     23  C   UNL     1      -1.412   5.233  25.178  0.00  0.00    +0.140 A 
ATOM     24  F   UNL     1      -1.465   6.051  25.267  0.00  0.00    -0.204 F 
ATOM     25  C   UNL     1      -1.974   4.743  25.531  0.00  0.00    +0.030 A 
ATOM     26  C   UNL     1      -1.922   3.925  25.443  0.00  0.00    +0.004 A 
ENDBRANCH   4  20
TORSDOF 4
ENDMDL
MODEL 4
REMARK VINA RESULT:     -10.7      2.137      2.533
REMARK  Name = 
REMARK  4 active torsions:
REMARK  status: ('A' for Active; 'I' for Inactive)
REMARK    1  A    between atoms: C_4  and  C_20
REMARK    2  A    between atoms: C_6  and  C_7
REMARK    3  A    between atoms: C_14  and  C_15
REMARK    4  A    between atoms: C_15  and  N_16
REMARK                            x       y       z     vdW  Elec       q    Type
REMARK                         _______ _______ _______ _____ _____    ______ ____
ROOT
ATOM      1  C   UNL     1       0.130  -0.014  23.882  0.00  0.00    +0.153 C 
ATOM      2  N   UNL     1      -0.632  -0.193  24.143  0.00  0.00    -0.253 N 
ATOM      3  N   UNL     1      -0.997  -0.931  24.104  0.00  0.00    -0.170 NA
ATOM      4  C   UNL     1      -1.753  -0.860  24.426  0.00  0.00    +0.102 A 
ATOM      5  C   UNL     1      -1.855  -0.076  24.664  0.00  0.00    +0.035 A 
ATOM      6  C   UNL     1      -1.162   0.335  24.489  0.00  0.00    +0.058 A 
ENDROOT
BRANCH   6   7
ATOM      7  C   UNL     1      -1.024   1.137  24.635  0.00  0.00    +0.056 C 
ATOM      8  C   UNL     1      -1.007   1.613  24.020  0.00  0.00    +0.078 C 
ATOM      9  N   UNL     1      -0.900   1.832  24.809  0.00  0.00    -0.272 NA
ATOM     10  C   UNL     1      -0.982   0.960  25.386  0.00  0.00    +0.072 C 
ATOM     11  C   UNL     1      -0.976   0.660  25.966  0.00  0.00    +0.018 C 
ATOM     12  C   UNL     1      -0.918   1.359  25.407  0.00  0.00    +0.010 C 
ATOM     13  C   UNL     1      -0.763   2.139  25.778  0.00  0.00    +0.018 C 
ATOM     14  C   UNL     1      -0.738   2.639  25.202  0.00  0.00    +0.079 C 
BRANCH  14  15
ATOM     15  C   UNL     1      -0.629   3.439  25.034  0.00  0.00    +0.131 C 
BRANCH  15  16
ATOM     16  N   UNL     1      -1.217   3.985  25.226  0.00  0.00    -0.204 NA
ATOM     17  C   UNL     1      -1.112   4.783  25.047  0.00  0.00    +0.242 C 
ATOM     18  C   UNL     1      -1.700   5.329  25.239  0.00  0.00    +0.096 C 
ATOM     19  O   UNL     1      -0.420   5.036  24.675  0.00  0.00    -0.273 OA
ENDBRANCH  15  16
ENDBRANCH  14  15
ENDBRANCH   6   7
BRANCH   4  20
ATOM     20  C   UNL     1      -2.309  -1.465  24.497  0.00  0.00    +0.020 A 
ATOM     21  C   UNL     1      -2.062  -2.236  24.649  0.00  0.00    +0.004 A 
ATOM     22  C   UNL     1      -2.619  -2.841  24.720  0.00  0.00    +0.030 A 
ATOM     23  C   UNL     1      -3.422  -2.674  24.638  0.00  0.00    +0.140 A 
ATOM     24  F   UNL     1      -3.979  -3.279  24.709  0.00  0.00    -0.204 F 
ATOM     25  C   UNL     1      -3.670  -1.902  24.486  0.00  0.00    +0.030 A 
ATOM     26  C   UNL     1      -3.114  -1.297  24.415  0.00  0.00    +0.004 A 
ENDBRANCH   4  20
TORSDOF 4
ENDMDL
