MODEL 1
REMARK VINA RESULT:     -13.2      0.000      0.000
REMARK  Name = 
REMARK  5 active torsions:
REMARK  status: ('A' for Active; 'I' for Inactive)
REMARK    1  A    between atoms: N_4  and  C_5
REMARK    2  A    between atoms: C_8  and  C_9
REMARK    3  A    between atoms: C_9  and  N_10
REMARK    4  A    between atoms: C_15  and  C_16
REMARK    5  A    between atoms: C_18  and  C_21
REMARK                            x       y       z     vdW  Elec       q    Type
REMARK                         _______ _______ _______ _____ _____    ______ ____
ROOT
ATOM     10  N   UNL     1      -4.612   1.670  25.020  0.00  0.00    -0.260 NA
ATOM     11  C   UNL     1      -5.357   1.390  24.805  0.00  0.00    +0.106 C 
ATOM     12  C   UNL     1      -5.900   2.002  24.913  0.00  0.00    +0.170 C 
ATOM     13  O   UNL     1      -6.710   1.963  24.765  0.00  0.00    -0.222 OA
ATOM     14  C   UNL     1      -5.489   2.659  25.196  0.00  0.00    +0.060 C 
ATOM     15  C   UNL     1      -4.693   2.454  25.262  0.00  0.00    +0.140 C 
ENDROOT
BRANCH  15  16
ATOM     16  C   UNL     1      -4.085   2.946  25.524  0.00  0.00    +0.251 A 
ATOM     17  N   UNL     1      -3.438   3.198  25.077  0.00  0.00    -0.190 NA
ATOM     18  C   UNL     1      -2.971   3.681  25.555  0.00  0.00    +0.203 A 
ATOM     19  N   UNL     1      -3.328   3.727  26.297  0.00  0.00    -0.056 NA
ATOM     20  O   UNL     1      -4.016   3.274  26.277  0.00  0.00    -0.336 OA
BRANCH  18  21
ATOM     21  C   UNL     1      -2.269   4.052  25.331  0.00  0.00    +0.041 A 
ATOM     22  C   UNL     1      -2.221   4.875  25.327  0.00  0.00    +0.032 A 
ATOM     23  C   UNL     1      -1.518   5.246  25.103  0.00  0.00    +0.136 A 
ATOM     24  F   UNL     1      -1.469   6.070  25.099  0.00  0.00    -0.205 F 
ATOM     25  C   UNL     1      -0.865   4.794  24.882  0.00  0.00    +0.006 A 
ATOM     26  C   UNL     1      -0.163   5.165  24.657  0.00  0.00    +0.033 C 
ATOM     27  C   UNL     1      -0.913   3.970  24.885  0.00  0.00    -0.002 A 
ATOM     28  C   UNL     1      -1.616   3.599  25.109  0.00  0.00    +0.003 A 
ENDBRANCH  18  21
ENDBRANCH  15  16
BRANCH  10   9
ATOM      9  C   UNL     1      -3.908   1.241  24.998  0.00  0.00    +0.100 C 
BRANCH   9   8
ATOM      5  C   UNL     1      -3.955  -1.191  24.534  0.00  0.00    +0.073 A 
ATOM      6  C   UNL     1      -3.877  -0.654  23.913  0.00  0.00    +0.016 A 
ATOM      7  C   UNL     1      -3.862   0.156  24.067  0.00  0.00    -0.002 A 
ATOM      8  C   UNL     1      -3.923   0.430  24.843  0.00  0.00    -0.006 A 
ATOM     29  C   UNL     1      -4.001  -0.107  25.465  0.00  0.00    -0.002 A 
ATOM     30  C   UNL     1      -4.016  -0.918  25.310  0.00  0.00    +0.016 A 
BRANCH   5   4
ATOM      1  C   UNL     1      -3.301  -3.262  24.317  0.00  0.00    +0.097 C 
ATOM      2  C   UNL     1      -3.285  -2.452  24.472  0.00  0.00    +0.246 C 
ATOM      3  O   UNL     1      -2.585  -2.092  24.718  0.00  0.00    -0.273 OA
ATOM      4  N   UNL     1      -3.971  -2.000  24.380  0.00  0.00    -0.179 NA
ENDBRANCH   5   4
ENDBRANCH   9   8
ENDBRANCH  10   9
TORSDOF 5
ENDMDL
MODEL 2
REMARK VINA RESULT:     -12.4      2.165      5.494
REMARK  Name = 
REMARK  5 active torsions:
REMARK  status: ('A' for Active; 'I' for Inactive)
REMARK    1  A    between atoms: N_4  and  C_5
REMARK    2  A    between atoms: C_8  and  C_9
REMARK    3  A    between atoms: C_9  and  N_10
REMARK    4  A    between atoms: C_15  and  C_16
REMARK    5  A    between atoms: C_18  and  C_21
REMARK                            x       y       z     vdW  Elec       q    Type
REMARK                         _______ _______ _______ _____ _____    ______ ____
ROOT
ATOM     10  N   UNL     1      -4.200   2.326  25.377  0.00  0.00    -0.260 NA
ATOM     11  C   UNL     1      -4.665   2.911  25.726  0.00  0.00    +0.106 C 
ATOM     12  C   UNL     1      -5.456   2.689  25.646  0.00  0.00    +0.170 C 
ATOM     13  O   UNL     1      -6.108   3.115  25.917  0.00  0.00    -0.222 OA
ATOM     14  C   UNL     1      -5.479   1.968  25.246  0.00  0.00    +0.060 C 
ATOM     15  C   UNL     1      -4.702   1.743  25.080  0.00  0.00    +0.140 C 
ENDROOT
BRANCH  15  16
ATOM     16  C   UNL     1      -4.470   1.057  24.687  0.00  0.00    +0.251 A 
ATOM     17  N   UNL     1      -4.343   0.319  25.033  0.00  0.00    -0.190 NA
ATOM     18  C   UNL     1      -4.118  -0.206  24.438  0.00  0.00    +0.203 A 
ATOM     19  N   UNL     1      -4.106   0.207  23.725  0.00  0.00    -0.056 NA
ATOM     20  O   UNL     1      -4.323   0.987  23.878  0.00  0.00    -0.336 OA
BRANCH  18  21
ATOM     21  C   UNL     1      -3.937  -1.005  24.540  0.00  0.00    +0.041 A 
ATOM     22  C   UNL     1      -4.237  -1.566  24.014  0.00  0.00    +0.032 A 
ATOM     23  C   UNL     1      -4.056  -2.364  24.115  0.00  0.00    +0.136 A 
ATOM     24  F   UNL     1      -4.356  -2.926  23.590  0.00  0.00    -0.205 F 
ATOM     25  C   UNL     1      -3.575  -2.602  24.742  0.00  0.00    +0.006 A 
ATOM     26  C   UNL     1      -3.394  -3.401  24.843  0.00  0.00    +0.033 C 
ATOM     27  C   UNL     1      -3.275  -2.042  25.267  0.00  0.00    -0.002 A 
ATOM     28  C   UNL     1      -3.456  -1.243  25.166  0.00  0.00    +0.003 A 
ENDBRANCH  18  21
ENDBRANCH  15  16
BRANCH  10   9
ATOM      9  C   UNL     1      -3.377   2.324  25.332  0.00  0.00    +0.100 C 
BRANCH   9   8
ATOM      5  C   UNL     1      -2.138   4.465  25.235  0.00  0.00    +0.073 A 
ATOM      6  C   UNL     1      -2.501   4.168  24.556  0.00  0.00    +0.016 A 
ATOM      7  C   UNL     1      -2.914   3.454  24.588  0.00  0.00    -0.002 A 
ATOM      8  C   UNL     1      -2.963   3.038  25.300  0.00  0.00    -0.006 A 
ATOM     29  C   UNL     1      -2.600   3.336  25.978  0.00  0.00    -0.002 A 
ATOM     30  C   UNL     1      -2.187   4.050  25.945  0.00  0.00    +0.016 A 
BRANCH   5   4
ATOM      1  C   UNL     1      -0.544   5.911  24.867  0.00  0.00    +0.097 C 
ATOM      2  C   UNL     1      -0.957   5.197  24.899  0.00  0.00    +0.246 C 
ATOM      3  O   UNL     1      -0.603   4.503  24.629  0.00  0.00    -0.273 OA
ATOM      4  N   UNL     1      -1.725   5.178  25.202  0.00  0.00    -0.179 NA
ENDBRANCH   5   4
ENDBRANCH   9   8
ENDBRANCH  10   9
TORSDOF 5
ENDMDL
MODEL 3
REMARK VINA RESULT:     -12.2      2.271      3.100
REMARK  Name = 
REMARK  5 active torsions:
REMARK  status: ('A' for Active; 'I' for Inactive)
REMARK    1  A    between atoms: N_4  and  C_5
REMARK    2  A    between atoms: C_8  and  C_9
REMARK    3  A    between atoms: C_9  and  N_10
REMARK    4  A    between atoms: C_15  and  C_16
REMARK    5  A    between atoms: C_18  and  C_21
REMARK                            x       y       z     vdW  Elec       q    Type
REMARK                         _______ _______ _______ _____ _____    ______ ____
ROOT
ATOM     10  N   UNL     1      -0.960   0.243  24.800  0.00  0.00    -0.260 NA
ATOM     11  C   UNL     1      -0.680  -0.368  24.322  0.00  0.00    +0.106 C 
ATOM     12  C   UNL     1       0.021  -0.113  23.968  0.00  0.00    +0.170 C 
ATOM     13  O   UNL     1       0.487  -0.549  23.446  0.00  0.00    -0.222 OA
ATOM     14  C   UNL     1       0.173   0.655  24.228  0.00  0.00    +0.060 C 
ATOM     15  C   UNL     1      -0.434   0.875  24.743  0.00  0.00    +0.140 C 
ENDROOT
BRANCH  15  16
ATOM     16  C   UNL     1      -0.502   1.599  25.131  0.00  0.00    +0.251 A 
ATOM     17  N   UNL     1      -0.867   2.277  24.833  0.00  0.00    -0.190 NA
ATOM     18  C   UNL     1      -0.807   2.870  25.403  0.00  0.00    +0.203 A 
ATOM     19  N   UNL     1      -0.406   2.559  26.053  0.00  0.00    -0.056 NA
ATOM     20  O   UNL     1      -0.218   1.775  25.885  0.00  0.00    -0.336 OA
BRANCH  18  21
ATOM     21  C   UNL     1      -1.099   3.639  25.335  0.00  0.00    +0.041 A 
ATOM     22  C   UNL     1      -0.621   4.234  25.021  0.00  0.00    +0.032 A 
ATOM     23  C   UNL     1      -0.912   5.003  24.953  0.00  0.00    +0.136 A 
ATOM     24  F   UNL     1      -0.435   5.599  24.639  0.00  0.00    -0.205 F 
ATOM     25  C   UNL     1      -1.680   5.177  25.198  0.00  0.00    +0.006 A 
ATOM     26  C   UNL     1      -1.972   5.946  25.130  0.00  0.00    +0.033 C 
ATOM     27  C   UNL     1      -2.158   4.582  25.512  0.00  0.00    -0.002 A 
ATOM     28  C   UNL     1      -1.867   3.813  25.580  0.00  0.00    +0.003 A 
ENDBRANCH  18  21
ENDBRANCH  15  16
BRANCH  10   9
ATOM      9  C   UNL     1      -1.647   0.225  25.256  0.00  0.00    +0.100 C 
BRANCH   9   8
ATOM      5  C   UNL     1      -3.421  -1.428  24.756  0.00  0.00    +0.073 A 
ATOM      6  C   UNL     1      -3.382  -0.723  24.329  0.00  0.00    +0.016 A 
ATOM      7  C   UNL     1      -2.791  -0.172  24.495  0.00  0.00    -0.002 A 
ATOM      8  C   UNL     1      -2.239  -0.327  25.090  0.00  0.00    -0.006 A 
ATOM     29  C   UNL     1      -2.278  -1.031  25.517  0.00  0.00    -0.002 A 
ATOM     30  C   UNL     1      -2.870  -1.582  25.350  0.00  0.00    +0.016 A 
BRANCH   5   4
ATOM      1  C   UNL     1      -4.429  -3.200  23.975  0.00  0.00    +0.097 C 
ATOM      2  C   UNL     1      -3.837  -2.650  24.142  0.00  0.00    +0.246 C 
ATOM      3  O   UNL     1      -3.071  -2.770  23.862  0.00  0.00    -0.273 OA
ATOM      4  N   UNL     1      -4.012  -1.978  24.589  0.00  0.00    -0.179 NA
ENDBRANCH   5   4
ENDBRANCH   9   8
ENDBRANCH  10   9
TORSDOF 5
ENDMDL
MODEL 4
REMARK VINA RESULT:     -12.1      2.781      6.165
REMARK  Name = 
REMARK  5 active torsions:
REMARK  status: ('A' for Active; 'I' for Inactive)
REMARK    1  A    between atoms: N_4  and  C_5
REMARK    2  A    between atoms: C_8  and  C_9
REMARK    3  A    between atoms: C_9  and  N_10
REMARK    4  A    between atoms: C_15  and  C_16
REMARK    5  A    between atoms: C_18  and  C_21
REMARK                            x       y       z     vdW  Elec       q    Type
REMARK                         _______ _______ _______ _____ _____    ______ ____
ROOT
ATOM     10  N   UNL     1      -0.535   1.092  24.866  0.00  0.00    -0.260 NA
ATOM     11  C   UNL     1       0.071   1.527  24.513  0.00  0.00    +0.106 C 
ATOM     12  C   UNL     1       0.486   1.022  24.009  0.00  0.00    +0.170 C 
ATOM     13  O   UNL     1       1.136   1.227  23.545  0.00  0.00    -0.222 OA
ATOM     14  C   UNL     1       0.135   0.276  24.050  0.00  0.00    +0.060 C 
ATOM     15  C   UNL     1      -0.496   0.320  24.580  0.00  0.00    +0.140 C 
ENDROOT
BRANCH  15  16
ATOM     16  C   UNL     1      -0.999  -0.299  24.787  0.00  0.00    +0.251 A 
ATOM     17  N   UNL     1      -1.659  -0.551  24.361  0.00  0.00    -0.190 NA
ATOM     18  C   UNL     1      -1.999  -1.184  24.767  0.00  0.00    +0.203 A 
ATOM     19  N   UNL     1      -1.550  -1.322  25.444  0.00  0.00    -0.056 NA
ATOM     20  O   UNL     1      -0.932  -0.776  25.457  0.00  0.00    -0.336 OA
BRANCH  18  21
ATOM     21  C   UNL     1      -2.671  -1.604  24.536  0.00  0.00    +0.041 A 
ATOM     22  C   UNL     1      -3.361  -1.199  24.337  0.00  0.00    +0.032 A 
ATOM     23  C   UNL     1      -4.033  -1.619  24.106  0.00  0.00    +0.136 A 
ATOM     24  F   UNL     1      -4.725  -1.215  23.907  0.00  0.00    -0.205 F 
ATOM     25  C   UNL     1      -4.014  -2.443  24.075  0.00  0.00    +0.006 A 
ATOM     26  C   UNL     1      -4.686  -2.863  23.844  0.00  0.00    +0.033 C 
ATOM     27  C   UNL     1      -3.324  -2.848  24.274  0.00  0.00    -0.002 A 
ATOM     28  C   UNL     1      -2.652  -2.428  24.505  0.00  0.00    +0.003 A 
ENDBRANCH  18  21
ENDBRANCH  15  16
BRANCH  10   9
ATOM      9  C   UNL     1      -1.084   1.381  25.409  0.00  0.00    +0.100 C 
BRANCH   9   8
ATOM      5  C   UNL     1      -1.661   3.788  25.427  0.00  0.00    +0.073 A 
ATOM      6  C   UNL     1      -2.056   3.273  24.917  0.00  0.00    +0.016 A 
ATOM      7  C   UNL     1      -1.864   2.471  24.911  0.00  0.00    -0.002 A 
ATOM      8  C   UNL     1      -1.277   2.184  25.415  0.00  0.00    -0.006 A 
ATOM     29  C   UNL     1      -0.883   2.699  25.925  0.00  0.00    -0.002 A 
ATOM     30  C   UNL     1      -1.075   3.501  25.931  0.00  0.00    +0.016 A 
BRANCH   5   4
ATOM      1  C   UNL     1      -1.560   5.936  25.053  0.00  0.00    +0.097 C 
ATOM      2  C   UNL     1      -1.367   5.134  25.047  0.00  0.00    +0.246 C 
ATOM      3  O   UNL     1      -0.689   4.875  24.656  0.00  0.00    -0.273 OA
ATOM      4  N   UNL     1      -1.854   4.590  25.433  0.00  0.00    -0.179 NA
ENDBRANCH   5   4
ENDBRANCH   9   8
ENDBRANCH  10   9
TORSDOF 5
ENDMDL
MODEL 5
REMARK VINA RESULT:     -10.8      2.565      5.629
REMARK  Name = 
REMARK  5 active torsions:
REMARK  status: ('A' for Active; 'I' for Inactive)
REMARK    1  A    between atoms: N_4  and  C_5
REMARK    2  A    between atoms: C_8  and  C_9
REMARK    3  A    between atoms: C_9  and  N_10
REMARK    4  A    between atoms: C_15  and  C_16
REMARK    5  A    between atoms: C_18  and  C_21
REMARK                            x       y       z     vdW  Elec       q    Type
REMARK                         _______ _______ _______ _____ _____    ______ ____
ROOT
ATOM     10  N   UNL     1      -1.558   2.198  25.067  0.00  0.00    -0.260 NA
ATOM     11  C   UNL     1      -1.259   2.876  24.705  0.00  0.00    +0.106 C 
ATOM     12  C   UNL     1      -0.613   2.654  24.242  0.00  0.00    +0.170 C 
ATOM     13  O   UNL     1      -0.149   3.158  23.783  0.00  0.00    -0.222 OA
ATOM     14  C   UNL     1      -0.513   1.838  24.318  0.00  0.00    +0.060 C 
ATOM     15  C   UNL     1      -1.098   1.557  24.829  0.00  0.00    +0.140 C 
ENDROOT
BRANCH  15  16
ATOM     16  C   UNL     1      -1.203   0.772  25.059  0.00  0.00    +0.251 A 
ATOM     17  N   UNL     1      -1.750   0.242  24.742  0.00  0.00    -0.190 NA
ATOM     18  C   UNL     1      -1.665  -0.478  25.135  0.00  0.00    +0.203 A 
ATOM     19  N   UNL     1      -1.065  -0.394  25.694  0.00  0.00    -0.056 NA
ATOM     20  O   UNL     1      -0.780   0.378  25.648  0.00  0.00    -0.336 OA
BRANCH  18  21
ATOM     21  C   UNL     1      -2.103  -1.163  24.992  0.00  0.00    +0.041 A 
ATOM     22  C   UNL     1      -1.771  -1.781  24.557  0.00  0.00    +0.032 A 
ATOM     23  C   UNL     1      -2.209  -2.466  24.415  0.00  0.00    +0.136 A 
ATOM     24  F   UNL     1      -1.879  -3.084  23.980  0.00  0.00    -0.205 F 
ATOM     25  C   UNL     1      -2.978  -2.532  24.707  0.00  0.00    +0.006 A 
ATOM     26  C   UNL     1      -3.416  -3.217  24.564  0.00  0.00    +0.033 C 
ATOM     27  C   UNL     1      -3.309  -1.914  25.142  0.00  0.00    -0.002 A 
ATOM     28  C   UNL     1      -2.871  -1.229  25.284  0.00  0.00    +0.003 A 
ENDBRANCH  18  21
ENDBRANCH  15  16
BRANCH  10   9
ATOM      9  C   UNL     1      -2.204   2.167  25.578  0.00  0.00    +0.100 C 
BRANCH   9   8
ATOM      5  C   UNL     1      -4.101   3.728  25.272  0.00  0.00    +0.073 A 
ATOM      6  C   UNL     1      -3.505   3.904  25.815  0.00  0.00    +0.016 A 
ATOM      7  C   UNL     1      -2.873   3.384  25.918  0.00  0.00    -0.002 A 
ATOM      8  C   UNL     1      -2.837   2.687  25.476  0.00  0.00    -0.006 A 
ATOM     29  C   UNL     1      -3.432   2.512  24.933  0.00  0.00    -0.002 A 
ATOM     30  C   UNL     1      -4.064   3.033  24.832  0.00  0.00    +0.016 A 
BRANCH   5   4
ATOM      1  C   UNL     1      -6.084   4.623  25.445  0.00  0.00    +0.097 C 
ATOM      2  C   UNL     1      -5.453   4.102  25.547  0.00  0.00    +0.246 C 
ATOM      3  O   UNL     1      -5.540   3.436  26.025  0.00  0.00    -0.273 OA
ATOM      4  N   UNL     1      -4.732   4.248  25.171  0.00  0.00    -0.179 NA
ENDBRANCH   5   4
ENDBRANCH   9   8
ENDBRANCH  10   9
TORSDOF 5
ENDMDL
