MODEL 1
REMARK VINA RESULT:     -11.0      0.000      0.000
REMARK  Name = 
REMARK  8 active torsions:
REMARK  status: ('A' for Active; 'I' for Inactive)
REMARK    1  A    between atoms: C_2  and  O_3
REMARK    2  A    between atoms: O_3  and  C_4
REMARK    3  A    between atoms: C_4  and  C_6
REMARK    4  A    between atoms: C_10  and  N_11
REMARK    5  A    between atoms: C_12  and  O_14
REMARK    6  A    between atoms: O_14  and  C_15
REMARK    7  A    between atoms: C_19  and  N_23
REMARK    8  A    between atoms: C_24  and  C_26
REMARK                            x       y       z     vdW  Elec       q    Type
REMARK                         _______ _______ _______ _____ _____    ______ ____
ROOT
ATOM     15  C   UNL     1      -0.392   1.089  24.395  0.00  0.00    +0.229 C 
ATOM     16  C   UNL     1      -0.482   0.827  23.618  0.00  0.00    +0.188 C 
ATOM     17  O   UNL     1      -0.929   0.134  23.634  0.00  0.00    -0.348 OA
ATOM     18  C   UNL     1      -1.115  -0.032  24.419  0.00  0.00    +0.168 C 
ATOM     19  C   UNL     1      -1.505  -0.563  24.916  0.00  0.00    +0.155 C 
ATOM     20  C   UNL     1      -1.415  -0.301  25.693  0.00  0.00    +0.166 C 
ATOM     21  O   UNL     1      -0.968   0.392  25.677  0.00  0.00    -0.348 OA
ATOM     22  C   UNL     1      -0.782   0.558  24.890  0.00  0.00    +0.186 C 
ENDROOT
BRANCH  19  23
ATOM     23  N   UNL     1      -1.915  -1.238  24.677  0.00  0.00    -0.198 NA
ATOM     24  C   UNL     1      -2.712  -1.328  24.872  0.00  0.00    +0.265 C 
ATOM     25  O   UNL     1      -3.099  -0.743  25.306  0.00  0.00    -0.268 OA
BRANCH  24  26
ATOM     26  C   UNL     1      -3.122  -2.003  24.632  0.00  0.00    +0.055 A 
ATOM     27  C   UNL     1      -3.757  -1.937  24.110  0.00  0.00    +0.005 A 
ATOM     28  C   UNL     1      -4.167  -2.611  23.871  0.00  0.00    +0.000 A 
ATOM     29  C   UNL     1      -3.941  -3.353  24.154  0.00  0.00    +0.000 A 
ATOM     30  C   UNL     1      -3.306  -3.419  24.676  0.00  0.00    +0.000 A 
ATOM     31  C   UNL     1      -2.896  -2.744  24.916  0.00  0.00    +0.005 A 
ENDBRANCH  24  26
ENDBRANCH  19  23
BRANCH  15  14
ATOM     14  O   UNL     1       0.018   1.765  24.634  0.00  0.00    -0.432 OA
BRANCH  14  12
ATOM     11  N   UNL     1      -0.491   2.922  25.300  0.00  0.00    -0.142 NA
ATOM     12  C   UNL     1      -0.349   2.503  24.604  0.00  0.00    +0.425 C 
ATOM     13  O   UNL     1      -0.574   2.822  23.877  0.00  0.00    -0.224 OA
BRANCH  11  10
ATOM      6  C   UNL     1      -2.012   4.478  25.473  0.00  0.00    +0.077 A 
ATOM      7  C   UNL     1      -1.592   5.137  25.210  0.00  0.00    +0.007 A 
ATOM      8  C   UNL     1      -0.804   5.057  24.977  0.00  0.00    +0.002 A 
ATOM      9  C   UNL     1      -0.438   4.319  25.007  0.00  0.00    +0.017 A 
ATOM     10  C   UNL     1      -0.858   3.660  25.270  0.00  0.00    +0.077 A 
ATOM     32  C   UNL     1      -1.645   3.739  25.503  0.00  0.00    +0.023 A 
BRANCH   6   4
ATOM      4  C   UNL     1      -2.799   4.557  25.706  0.00  0.00    +0.341 C 
ATOM      5  O   UNL     1      -2.991   5.021  26.362  0.00  0.00    -0.245 OA
BRANCH   4   3
ATOM      3  O   UNL     1      -3.396   4.173  25.285  0.00  0.00    -0.445 OA
BRANCH   3   2
ATOM      1  C   UNL     1      -4.708   3.609  25.237  0.00  0.00    +0.051 C 
ATOM      2  C   UNL     1      -4.132   4.045  25.635  0.00  0.00    +0.209 C 
ENDBRANCH   3   2
ENDBRANCH   4   3
ENDBRANCH   6   4
ENDBRANCH  11  10
ENDBRANCH  14  12
ENDBRANCH  15  14
TORSDOF 8
ENDMDL
MODEL 2
REMARK VINA RESULT:     -10.4      1.694      6.288
REMARK  Name = 
REMARK  8 active torsions:
REMARK  status: ('A' for Active; 'I' for Inactive)
REMARK    1  A    between atoms: C_2  and  O_3
REMARK    2  A    between atoms: O_3  and  C_4
REMARK    3  A    between atoms: C_4  and  C_6
REMARK    4  A    between atoms: C_10  and  N_11
REMARK    5  A    between atoms: C_12  and  O_14
REMARK    6  A    between atoms: O_14  and  C_15
REMARK    7  A    between atoms: C_19  and  N_23
REMARK    8  A    between atoms: C_24  and  C_26
REMARK                            x       y       z     vdW  Elec       q    Type
REMARK                         _______ _______ _______ _____ _____    ______ ____
ROOT
ATOM     15  C   UNL     1      -4.125   1.194  24.286  0.00  0.00    +0.229 C 
ATOM     16  C   UNL     1      -3.583   1.242  23.666  0.00  0.00    +0.188 C 
ATOM     17  O   UNL     1      -3.178   1.957  23.737  0.00  0.00    -0.348 OA
ATOM     18  C   UNL     1      -3.469   2.351  24.400  0.00  0.00    +0.168 C 
ATOM     19  C   UNL     1      -3.399   3.036  24.854  0.00  0.00    +0.155 C 
ATOM     20  C   UNL     1      -3.941   2.988  25.474  0.00  0.00    +0.166 C 
ATOM     21  O   UNL     1      -4.346   2.273  25.403  0.00  0.00    -0.348 OA
ATOM     22  C   UNL     1      -4.055   1.879  24.739  0.00  0.00    +0.186 C 
ENDROOT
BRANCH  19  23
ATOM     23  N   UNL     1      -2.878   3.660  24.713  0.00  0.00    -0.198 NA
ATOM     24  C   UNL     1      -2.317   3.865  25.282  0.00  0.00    +0.265 C 
ATOM     25  O   UNL     1      -2.276   3.447  25.992  0.00  0.00    -0.268 OA
BRANCH  24  26
ATOM     26  C   UNL     1      -1.796   4.490  25.141  0.00  0.00    +0.055 A 
ATOM     27  C   UNL     1      -1.008   4.334  24.950  0.00  0.00    +0.005 A 
ATOM     28  C   UNL     1      -0.486   4.958  24.809  0.00  0.00    +0.000 A 
ATOM     29  C   UNL     1      -0.754   5.737  24.858  0.00  0.00    +0.000 A 
ATOM     30  C   UNL     1      -1.541   5.892  25.049  0.00  0.00    +0.000 A 
ATOM     31  C   UNL     1      -2.063   5.268  25.190  0.00  0.00    +0.005 A 
ENDBRANCH  24  26
ENDBRANCH  19  23
BRANCH  15  14
ATOM     14  O   UNL     1      -4.646   0.570  24.427  0.00  0.00    -0.432 OA
BRANCH  14  12
ATOM     11  N   UNL     1      -4.207  -0.704  23.952  0.00  0.00    -0.142 NA
ATOM     12  C   UNL     1      -4.353  -0.187  24.577  0.00  0.00    +0.425 C 
ATOM     13  O   UNL     1      -4.207  -0.425  25.353  0.00  0.00    -0.224 OA
BRANCH  11  10
ATOM      6  C   UNL     1      -2.811  -2.334  24.351  0.00  0.00    +0.077 A 
ATOM      7  C   UNL     1      -3.329  -2.974  24.401  0.00  0.00    +0.007 A 
ATOM      8  C   UNL     1      -4.140  -2.857  24.301  0.00  0.00    +0.002 A 
ATOM      9  C   UNL     1      -4.432  -2.100  24.151  0.00  0.00    +0.017 A 
ATOM     10  C   UNL     1      -3.914  -1.460  24.101  0.00  0.00    +0.077 A 
ATOM     32  C   UNL     1      -3.104  -1.577  24.202  0.00  0.00    +0.023 A 
BRANCH   6   4
ATOM      4  C   UNL     1      -2.001  -2.451  24.452  0.00  0.00    +0.341 C 
ATOM      5  O   UNL     1      -1.595  -2.972  23.958  0.00  0.00    -0.245 OA
BRANCH   4   3
ATOM      3  O   UNL     1      -1.596  -2.047  25.046  0.00  0.00    -0.445 OA
BRANCH   3   2
ATOM      1  C   UNL     1      -0.371  -1.456  25.483  0.00  0.00    +0.051 C 
ATOM      2  C   UNL     1      -0.771  -2.028  25.044  0.00  0.00    +0.209 C 
ENDBRANCH   3   2
ENDBRANCH   4   3
ENDBRANCH   6   4
ENDBRANCH  11  10
ENDBRANCH  14  12
ENDBRANCH  15  14
TORSDOF 8
ENDMDL
MODEL 3
REMARK VINA RESULT:     -10.0      1.648      2.993
REMARK  Name = 
REMARK  8 active torsions:
REMARK  status: ('A' for Active; 'I' for Inactive)
REMARK    1  A    between atoms: C_2  and  O_3
REMARK    2  A    between atoms: O_3  and  C_4
REMARK    3  A    between atoms: C_4  and  C_6
REMARK    4  A    between atoms: C_10  and  N_11
REMARK    5  A    between atoms: C_12  and  O_14
REMARK    6  A    between atoms: O_14  and  C_15
REMARK    7  A    between atoms: C_19  and  N_23
REMARK    8  A    between atoms: C_24  and  C_26
REMARK                            x       y       z     vdW  Elec       q    Type
REMARK                         _______ _______ _______ _____ _____    ______ ____
ROOT
ATOM     15  C   UNL     1      -4.625   2.327  24.896  0.00  0.00    +0.229 C 
ATOM     16  C   UNL     1      -5.022   1.954  25.515  0.00  0.00    +0.188 C 
ATOM     17  O   UNL     1      -4.946   1.139  25.412  0.00  0.00    -0.348 OA
ATOM     18  C   UNL     1      -4.502   1.008  24.730  0.00  0.00    +0.168 C 
ATOM     19  C   UNL     1      -4.180   0.425  24.244  0.00  0.00    +0.155 C 
ATOM     20  C   UNL     1      -3.782   0.798  23.625  0.00  0.00    +0.166 C 
ATOM     21  O   UNL     1      -3.858   1.612  23.728  0.00  0.00    -0.348 OA
ATOM     22  C   UNL     1      -4.303   1.743  24.411  0.00  0.00    +0.186 C 
ENDROOT
BRANCH  19  23
ATOM     23  N   UNL     1      -4.245  -0.390  24.357  0.00  0.00    -0.198 NA
ATOM     24  C   UNL     1      -3.577  -0.870  24.292  0.00  0.00    +0.265 C 
ATOM     25  O   UNL     1      -2.844  -0.536  24.113  0.00  0.00    -0.268 OA
BRANCH  24  26
ATOM     26  C   UNL     1      -3.642  -1.685  24.405  0.00  0.00    +0.055 A 
ATOM     27  C   UNL     1      -4.090  -2.140  23.883  0.00  0.00    +0.005 A 
ATOM     28  C   UNL     1      -4.155  -2.955  23.996  0.00  0.00    +0.000 A 
ATOM     29  C   UNL     1      -3.771  -3.314  24.633  0.00  0.00    +0.000 A 
ATOM     30  C   UNL     1      -3.324  -2.859  25.154  0.00  0.00    +0.000 A 
ATOM     31  C   UNL     1      -3.259  -2.044  25.041  0.00  0.00    +0.005 A 
ENDBRANCH  24  26
ENDBRANCH  19  23
BRANCH  15  14
ATOM     14  O   UNL     1      -4.560   3.142  24.783  0.00  0.00    -0.432 OA
BRANCH  14  12
ATOM     11  N   UNL     1      -3.366   3.879  24.513  0.00  0.00    -0.142 NA
ATOM     12  C   UNL     1      -3.892   3.544  25.052  0.00  0.00    +0.425 C 
ATOM     13  O   UNL     1      -3.751   3.612  25.863  0.00  0.00    -0.224 OA
BRANCH  11  10
ATOM      6  C   UNL     1      -1.311   4.287  25.127  0.00  0.00    +0.077 A 
ATOM      7  C   UNL     1      -1.363   5.087  25.321  0.00  0.00    +0.007 A 
ATOM      8  C   UNL     1      -2.082   5.485  25.246  0.00  0.00    +0.002 A 
ATOM      9  C   UNL     1      -2.749   5.081  24.977  0.00  0.00    +0.017 A 
ATOM     10  C   UNL     1      -2.698   4.281  24.782  0.00  0.00    +0.077 A 
ATOM     32  C   UNL     1      -1.979   3.885  24.857  0.00  0.00    +0.023 A 
BRANCH   6   4
ATOM      4  C   UNL     1      -0.592   3.891  25.201  0.00  0.00    +0.341 C 
ATOM      5  O   UNL     1      -0.013   3.972  24.619  0.00  0.00    -0.245 OA
BRANCH   4   3
ATOM      3  O   UNL     1      -0.451   3.412  25.858  0.00  0.00    -0.445 OA
BRANCH   3   2
ATOM      1  C   UNL     1       0.259   2.337  26.476  0.00  0.00    +0.051 C 
ATOM      2  C   UNL     1       0.138   2.834  25.829  0.00  0.00    +0.209 C 
ENDBRANCH   3   2
ENDBRANCH   4   3
ENDBRANCH   6   4
ENDBRANCH  11  10
ENDBRANCH  14  12
ENDBRANCH  15  14
TORSDOF 8
ENDMDL
MODEL 4
REMARK VINA RESULT:      -9.9      2.738      5.458
REMARK  Name = 
REMARK  8 active torsions:
REMARK  status: ('A' for Active; 'I' for Inactive)
REMARK    1  A    between atoms: C_2  and  O_3
REMARK    2  A    between atoms: O_3  and  C_4
REMARK    3  A    between atoms: C_4  and  C_6
REMARK    4  A    between atoms: C_10  and  N_11
REMARK    5  A    between atoms: C_12  and  O_14
REMARK    6  A    between atoms: O_14  and  C_15
REMARK    7  A    between atoms: C_19  and  N_23
REMARK    8  A    between atoms: C_24  and  C_26
REMARK                            x       y       z     vdW  Elec       q    Type
REMARK                         _______ _______ _______ _____ _____    ______ ____
ROOT
ATOM     15  C   UNL     1      -0.782   0.371  24.387  0.00  0.00    +0.229 C 
ATOM     16  C   UNL     1      -0.599   1.138  24.627  0.00  0.00    +0.188 C 
ATOM     17  O   UNL     1      -1.302   1.510  24.846  0.00  0.00    -0.348 OA
ATOM     18  C   UNL     1      -1.918   0.974  24.742  0.00  0.00    +0.168 C 
ATOM     19  C   UNL     1      -2.734   0.871  24.812  0.00  0.00    +0.155 C 
ATOM     20  C   UNL     1      -2.917   0.103  24.572  0.00  0.00    +0.166 C 
ATOM     21  O   UNL     1      -2.214  -0.269  24.353  0.00  0.00    -0.348 OA
ATOM     22  C   UNL     1      -1.597   0.269  24.458  0.00  0.00    +0.186 C 
ENDROOT
BRANCH  19  23
ATOM     23  N   UNL     1      -3.272   1.438  25.077  0.00  0.00    -0.198 NA
ATOM     24  C   UNL     1      -4.040   1.450  24.775  0.00  0.00    +0.265 C 
ATOM     25  O   UNL     1      -4.270   0.897  24.208  0.00  0.00    -0.268 OA
BRANCH  24  26
ATOM     26  C   UNL     1      -4.578   2.017  25.039  0.00  0.00    +0.055 A 
ATOM     27  C   UNL     1      -4.403   2.819  24.963  0.00  0.00    +0.005 A 
ATOM     28  C   UNL     1      -4.941   3.387  25.228  0.00  0.00    +0.000 A 
ATOM     29  C   UNL     1      -5.655   3.150  25.568  0.00  0.00    +0.000 A 
ATOM     30  C   UNL     1      -5.830   2.347  25.643  0.00  0.00    +0.000 A 
ATOM     31  C   UNL     1      -5.292   1.780  25.379  0.00  0.00    +0.005 A 
ENDBRANCH  24  26
ENDBRANCH  19  23
BRANCH  15  14
ATOM     14  O   UNL     1      -0.243  -0.196  24.122  0.00  0.00    -0.432 OA
BRANCH  14  12
ATOM     11  N   UNL     1       0.993  -0.478  23.464  0.00  0.00    -0.142 NA
ATOM     12  C   UNL     1       0.338   0.011  23.575  0.00  0.00    +0.425 C 
ATOM     13  O   UNL     1       0.264   0.708  23.138  0.00  0.00    -0.224 OA
BRANCH  11  10
ATOM      6  C   UNL     1       2.866   0.269  22.626  0.00  0.00    +0.077 A 
ATOM      7  C   UNL     1       2.737   0.143  21.821  0.00  0.00    +0.007 A 
ATOM      8  C   UNL     1       2.027  -0.190  21.563  0.00  0.00    +0.002 A 
ATOM      9  C   UNL     1       1.446  -0.396  22.111  0.00  0.00    +0.017 A 
ATOM     10  C   UNL     1       1.575  -0.271  22.916  0.00  0.00    +0.077 A 
ATOM     32  C   UNL     1       2.284   0.062  23.173  0.00  0.00    +0.023 A 
BRANCH   6   4
ATOM      4  C   UNL     1       3.575   0.601  22.883  0.00  0.00    +0.341 C 
ATOM      5  O   UNL     1       3.645   1.420  22.955  0.00  0.00    -0.245 OA
BRANCH   4   3
ATOM      3  O   UNL     1       4.216   0.115  23.068  0.00  0.00    -0.445 OA
BRANCH   3   2
ATOM      1  C   UNL     1       5.536  -0.040  23.592  0.00  0.00    +0.051 C 
ATOM      2  C   UNL     1       4.923   0.447  23.333  0.00  0.00    +0.209 C 
ENDBRANCH   3   2
ENDBRANCH   4   3
ENDBRANCH   6   4
ENDBRANCH  11  10
ENDBRANCH  14  12
ENDBRANCH  15  14
TORSDOF 8
ENDMDL
MODEL 5
REMARK VINA RESULT:      -9.8      1.161      5.582
REMARK  Name = 
REMARK  8 active torsions:
REMARK  status: ('A' for Active; 'I' for Inactive)
REMARK    1  A    between atoms: C_2  and  O_3
REMARK    2  A    between atoms: O_3  and  C_4
REMARK    3  A    between atoms: C_4  and  C_6
REMARK    4  A    between atoms: C_10  and  N_11
REMARK    5  A    between atoms: C_12  and  O_14
REMARK    6  A    between atoms: O_14  and  C_15
REMARK    7  A    between atoms: C_19  and  N_23
REMARK    8  A    between atoms: C_24  and  C_26
REMARK                            x       y       z     vdW  Elec       q    Type
REMARK                         _______ _______ _______ _____ _____    ______ ____
ROOT
ATOM     15  C   UNL     1      -0.220   0.272  24.539  0.00  0.00    +0.229 C 
ATOM     16  C   UNL     1      -0.101   0.620  23.801  0.00  0.00    +0.188 C 
ATOM     17  O   UNL     1      -0.179   1.436  23.889  0.00  0.00    -0.348 OA
ATOM     18  C   UNL     1      -0.347   1.593  24.681  0.00  0.00    +0.168 C 
ATOM     19  C   UNL     1      -0.500   2.194  25.226  0.00  0.00    +0.155 C 
ATOM     20  C   UNL     1      -0.619   1.846  25.964  0.00  0.00    +0.166 C 
ATOM     21  O   UNL     1      -0.540   1.029  25.876  0.00  0.00    -0.348 OA
ATOM     22  C   UNL     1      -0.372   0.873  25.083  0.00  0.00    +0.186 C 
ENDROOT
BRANCH  19  23
ATOM     23  N   UNL     1      -0.528   3.002  25.060  0.00  0.00    -0.198 NA
ATOM     24  C   UNL     1      -1.157   3.458  25.338  0.00  0.00    +0.265 C 
ATOM     25  O   UNL     1      -1.758   3.107  25.781  0.00  0.00    -0.268 OA
BRANCH  24  26
ATOM     26  C   UNL     1      -1.185   4.266  25.173  0.00  0.00    +0.055 A 
ATOM     27  C   UNL     1      -1.858   4.703  25.365  0.00  0.00    +0.005 A 
ATOM     28  C   UNL     1      -1.887   5.511  25.200  0.00  0.00    +0.000 A 
ATOM     29  C   UNL     1      -1.242   5.881  24.842  0.00  0.00    +0.000 A 
ATOM     30  C   UNL     1      -0.570   5.444  24.650  0.00  0.00    +0.000 A 
ATOM     31  C   UNL     1      -0.541   4.636  24.815  0.00  0.00    +0.005 A 
ENDBRANCH  24  26
ENDBRANCH  19  23
BRANCH  15  14
ATOM     14  O   UNL     1      -0.191  -0.536  24.705  0.00  0.00    -0.432 OA
BRANCH  14  12
ATOM     11  N   UNL     1      -1.322  -1.340  25.049  0.00  0.00    -0.142 NA
ATOM     12  C   UNL     1      -0.816  -1.026  24.479  0.00  0.00    +0.425 C 
ATOM     13  O   UNL     1      -0.933  -1.202  23.680  0.00  0.00    -0.224 OA
BRANCH  11  10
ATOM      6  C   UNL     1      -3.315  -1.998  24.449  0.00  0.00    +0.077 A 
ATOM      7  C   UNL     1      -3.194  -2.810  24.370  0.00  0.00    +0.007 A 
ATOM      8  C   UNL     1      -2.448  -3.132  24.517  0.00  0.00    +0.002 A 
ATOM      9  C   UNL     1      -1.825  -2.642  24.743  0.00  0.00    +0.017 A 
ATOM     10  C   UNL     1      -1.946  -1.830  24.822  0.00  0.00    +0.077 A 
ATOM     32  C   UNL     1      -2.691  -1.508  24.675  0.00  0.00    +0.023 A 
BRANCH   6   4
ATOM      4  C   UNL     1      -4.060  -1.677  24.302  0.00  0.00    +0.341 C 
ATOM      5  O   UNL     1      -4.568  -2.041  23.762  0.00  0.00    -0.245 OA
BRANCH   4   3
ATOM      3  O   UNL     1      -4.298  -0.991  24.693  0.00  0.00    -0.445 OA
BRANCH   3   2
ATOM      1  C   UNL     1      -4.917   0.297  24.655  0.00  0.00    +0.051 C 
ATOM      2  C   UNL     1      -4.765  -0.433  24.303  0.00  0.00    +0.209 C 
ENDBRANCH   3   2
ENDBRANCH   4   3
ENDBRANCH   6   4
ENDBRANCH  11  10
ENDBRANCH  14  12
ENDBRANCH  15  14
TORSDOF 8
ENDMDL
MODEL 6
REMARK VINA RESULT:      -9.5      2.749      4.500
REMARK  Name = 
REMARK  8 active torsions:
REMARK  status: ('A' for Active; 'I' for Inactive)
REMARK    1  A    between atoms: C_2  and  O_3
REMARK    2  A    between atoms: O_3  and  C_4
REMARK    3  A    between atoms: C_4  and  C_6
REMARK    4  A    between atoms: C_10  and  N_11
REMARK    5  A    between atoms: C_12  and  O_14
REMARK    6  A    between atoms: O_14  and  C_15
REMARK    7  A    between atoms: C_19  and  N_23
REMARK    8  A    between atoms: C_24  and  C_26
REMARK                            x       y       z     vdW  Elec       q    Type
REMARK                         _______ _______ _______ _____ _____    ______ ____
ROOT
ATOM     15  C   UNL     1      -0.443   1.564  24.026  0.00  0.00    +0.229 C 
ATOM     16  C   UNL     1       0.029   2.072  24.473  0.00  0.00    +0.188 C 
ATOM     17  O   UNL     1       0.815   1.842  24.375  0.00  0.00    -0.348 OA
ATOM     18  C   UNL     1       0.830   1.192  23.868  0.00  0.00    +0.168 C 
ATOM     19  C   UNL     1       1.324   0.648  23.494  0.00  0.00    +0.155 C 
ATOM     20  C   UNL     1       0.853   0.139  23.048  0.00  0.00    +0.166 C 
ATOM     21  O   UNL     1       0.067   0.369  23.146  0.00  0.00    -0.348 OA
ATOM     22  C   UNL     1       0.052   1.020  23.653  0.00  0.00    +0.186 C 
ENDROOT
BRANCH  19  23
ATOM     23  N   UNL     1       2.146   0.618  23.557  0.00  0.00    -0.198 NA
ATOM     24  C   UNL     1       2.597   0.321  22.932  0.00  0.00    +0.265 C 
ATOM     25  O   UNL     1       2.225   0.053  22.246  0.00  0.00    -0.268 OA
BRANCH  24  26
ATOM     26  C   UNL     1       3.419   0.291  22.995  0.00  0.00    +0.055 A 
ATOM     27  C   UNL     1       3.784  -0.375  23.317  0.00  0.00    +0.005 A 
ATOM     28  C   UNL     1       4.606  -0.406  23.380  0.00  0.00    +0.000 A 
ATOM     29  C   UNL     1       5.063   0.231  23.119  0.00  0.00    +0.000 A 
ATOM     30  C   UNL     1       4.697   0.895  22.796  0.00  0.00    +0.000 A 
ATOM     31  C   UNL     1       3.875   0.926  22.734  0.00  0.00    +0.005 A 
ENDBRANCH  24  26
ENDBRANCH  19  23
BRANCH  15  14
ATOM     14  O   UNL     1      -1.265   1.594  23.964  0.00  0.00    -0.432 OA
BRANCH  14  12
ATOM     11  N   UNL     1      -2.156   2.669  24.268  0.00  0.00    -0.142 NA
ATOM     12  C   UNL     1      -1.705   2.024  24.514  0.00  0.00    +0.425 C 
ATOM     13  O   UNL     1      -1.694   1.808  25.310  0.00  0.00    -0.224 OA
BRANCH  11  10
ATOM      6  C   UNL     1      -3.852   3.423  25.416  0.00  0.00    +0.077 A 
ATOM      7  C   UNL     1      -3.475   3.960  25.917  0.00  0.00    +0.007 A 
ATOM      8  C   UNL     1      -2.658   4.066  25.867  0.00  0.00    +0.002 A 
ATOM      9  C   UNL     1      -2.219   3.636  25.318  0.00  0.00    +0.017 A 
ATOM     10  C   UNL     1      -2.596   3.099  24.817  0.00  0.00    +0.077 A 
ATOM     32  C   UNL     1      -3.412   2.993  24.866  0.00  0.00    +0.023 A 
BRANCH   6   4
ATOM      4  C   UNL     1      -4.668   3.317  25.465  0.00  0.00    +0.341 C 
ATOM      5  O   UNL     1      -5.170   3.973  25.480  0.00  0.00    -0.245 OA
BRANCH   4   3
ATOM      3  O   UNL     1      -4.985   2.556  25.500  0.00  0.00    -0.445 OA
BRANCH   3   2
ATOM      1  C   UNL     1      -6.117   1.685  25.466  0.00  0.00    +0.051 C 
ATOM      2  C   UNL     1      -5.803   2.447  25.488  0.00  0.00    +0.209 C 
ENDBRANCH   3   2
ENDBRANCH   4   3
ENDBRANCH   6   4
ENDBRANCH  11  10
ENDBRANCH  14  12
ENDBRANCH  15  14
TORSDOF 8
ENDMDL
MODEL 7
REMARK VINA RESULT:      -9.2      2.781      5.482
REMARK  Name = 
REMARK  8 active torsions:
REMARK  status: ('A' for Active; 'I' for Inactive)
REMARK    1  A    between atoms: C_2  and  O_3
REMARK    2  A    between atoms: O_3  and  C_4
REMARK    3  A    between atoms: C_4  and  C_6
REMARK    4  A    between atoms: C_10  and  N_11
REMARK    5  A    between atoms: C_12  and  O_14
REMARK    6  A    between atoms: O_14  and  C_15
REMARK    7  A    between atoms: C_19  and  N_23
REMARK    8  A    between atoms: C_24  and  C_26
REMARK                            x       y       z     vdW  Elec       q    Type
REMARK                         _______ _______ _______ _____ _____    ______ ____
ROOT
ATOM     15  C   UNL     1      -0.415   1.372  23.627  0.00  0.00    +0.229 C 
ATOM     16  C   UNL     1      -0.021   1.789  24.219  0.00  0.00    +0.188 C 
ATOM     17  O   UNL     1       0.768   1.550  24.216  0.00  0.00    -0.348 OA
ATOM     18  C   UNL     1       0.862   0.986  23.622  0.00  0.00    +0.168 C 
ATOM     19  C   UNL     1       1.408   0.490  23.252  0.00  0.00    +0.155 C 
ATOM     20  C   UNL     1       1.013   0.073  22.660  0.00  0.00    +0.166 C 
ATOM     21  O   UNL     1       0.224   0.311  22.664  0.00  0.00    -0.348 OA
ATOM     22  C   UNL     1       0.130   0.876  23.258  0.00  0.00    +0.186 C 
ENDROOT
BRANCH  19  23
ATOM     23  N   UNL     1       2.208   0.423  23.442  0.00  0.00    -0.198 NA
ATOM     24  C   UNL     1       2.758   0.243  22.854  0.00  0.00    +0.265 C 
ATOM     25  O   UNL     1       2.508   0.131  22.076  0.00  0.00    -0.268 OA
BRANCH  24  26
ATOM     26  C   UNL     1       3.558   0.176  23.043  0.00  0.00    +0.055 A 
ATOM     27  C   UNL     1       4.067   0.813  22.915  0.00  0.00    +0.005 A 
ATOM     28  C   UNL     1       4.868   0.746  23.105  0.00  0.00    +0.000 A 
ATOM     29  C   UNL     1       5.158   0.042  23.423  0.00  0.00    +0.000 A 
ATOM     30  C   UNL     1       4.649  -0.594  23.550  0.00  0.00    +0.000 A 
ATOM     31  C   UNL     1       3.849  -0.527  23.361  0.00  0.00    +0.005 A 
ENDBRANCH  24  26
ENDBRANCH  19  23
BRANCH  15  14
ATOM     14  O   UNL     1      -1.216   1.439  23.438  0.00  0.00    -0.432 OA
BRANCH  14  12
ATOM     11  N   UNL     1      -2.493   0.853  23.697  0.00  0.00    -0.142 NA
ATOM     12  C   UNL     1      -1.790   1.183  23.973  0.00  0.00    +0.425 C 
ATOM     13  O   UNL     1      -1.659   1.258  24.784  0.00  0.00    -0.224 OA
BRANCH  11  10
ATOM      6  C   UNL     1      -3.630  -0.433  25.046  0.00  0.00    +0.077 A 
ATOM      7  C   UNL     1      -4.215   0.088  25.302  0.00  0.00    +0.007 A 
ATOM      8  C   UNL     1      -4.227   0.865  25.023  0.00  0.00    +0.002 A 
ATOM      9  C   UNL     1      -3.653   1.119  24.488  0.00  0.00    +0.017 A 
ATOM     10  C   UNL     1      -3.067   0.598  24.232  0.00  0.00    +0.077 A 
ATOM     32  C   UNL     1      -3.056  -0.178  24.511  0.00  0.00    +0.023 A 
BRANCH   6   4
ATOM      4  C   UNL     1      -3.618  -1.209  25.325  0.00  0.00    +0.341 C 
ATOM      5  O   UNL     1      -3.556  -1.356  26.135  0.00  0.00    -0.245 OA
BRANCH   4   3
ATOM      3  O   UNL     1      -3.668  -1.839  24.795  0.00  0.00    -0.445 OA
BRANCH   3   2
ATOM      1  C   UNL     1      -3.534  -3.235  24.517  0.00  0.00    +0.051 C 
ATOM      2  C   UNL     1      -3.531  -2.610  25.056  0.00  0.00    +0.209 C 
ENDBRANCH   3   2
ENDBRANCH   4   3
ENDBRANCH   6   4
ENDBRANCH  11  10
ENDBRANCH  14  12
ENDBRANCH  15  14
TORSDOF 8
ENDMDL
MODEL 8
REMARK VINA RESULT:      -8.4      1.917      4.151
REMARK  Name = 
REMARK  8 active torsions:
REMARK  status: ('A' for Active; 'I' for Inactive)
REMARK    1  A    between atoms: C_2  and  O_3
REMARK    2  A    between atoms: O_3  and  C_4
REMARK    3  A    between atoms: C_4  and  C_6
REMARK    4  A    between atoms: C_10  and  N_11
REMARK    5  A    between atoms: C_12  and  O_14
REMARK    6  A    between atoms: O_14  and  C_15
REMARK    7  A    between atoms: C_19  and  N_23
REMARK    8  A    between atoms: C_24  and  C_26
REMARK                            x       y       z     vdW  Elec       q    Type
REMARK                         _______ _______ _______ _____ _____    ______ ____
ROOT
ATOM     15  C   UNL     1      -1.216   3.516  24.956  0.00  0.00    +0.229 C 
ATOM     16  C   UNL     1      -0.980   3.838  24.234  0.00  0.00    +0.188 C 
ATOM     17  O   UNL     1      -0.399   3.348  23.915  0.00  0.00    -0.348 OA
ATOM     18  C   UNL     1      -0.276   2.723  24.438  0.00  0.00    +0.168 C 
ATOM     19  C   UNL     1       0.159   2.033  24.565  0.00  0.00    +0.155 C 
ATOM     20  C   UNL     1      -0.078   1.711  25.286  0.00  0.00    +0.166 C 
ATOM     21  O   UNL     1      -0.659   2.201  25.606  0.00  0.00    -0.348 OA
ATOM     22  C   UNL     1      -0.781   2.827  25.082  0.00  0.00    +0.186 C 
ENDROOT
BRANCH  19  23
ATOM     23  N   UNL     1       0.730   1.721  24.058  0.00  0.00    -0.198 NA
ATOM     24  C   UNL     1       0.698   0.925  23.841  0.00  0.00    +0.265 C 
ATOM     25  O   UNL     1       0.095   0.442  24.130  0.00  0.00    -0.268 OA
BRANCH  24  26
ATOM     26  C   UNL     1       1.270   0.613  23.334  0.00  0.00    +0.055 A 
ATOM     27  C   UNL     1       1.056   0.053  22.767  0.00  0.00    +0.005 A 
ATOM     28  C   UNL     1       1.627  -0.260  22.260  0.00  0.00    +0.000 A 
ATOM     29  C   UNL     1       2.413  -0.012  22.321  0.00  0.00    +0.000 A 
ATOM     30  C   UNL     1       2.625   0.547  22.888  0.00  0.00    +0.000 A 
ATOM     31  C   UNL     1       2.054   0.860  23.395  0.00  0.00    +0.005 A 
ENDBRANCH  24  26
ENDBRANCH  19  23
BRANCH  15  14
ATOM     14  O   UNL     1      -1.788   3.829  25.462  0.00  0.00    -0.432 OA
BRANCH  14  12
ATOM     11  N   UNL     1      -3.088   3.388  25.858  0.00  0.00    -0.142 NA
ATOM     12  C   UNL     1      -2.589   3.725  25.295  0.00  0.00    +0.425 C 
ATOM     13  O   UNL     1      -2.891   3.959  24.563  0.00  0.00    -0.224 OA
BRANCH  11  10
ATOM      6  C   UNL     1      -4.968   2.446  25.272  0.00  0.00    +0.077 A 
ATOM      7  C   UNL     1      -5.492   3.078  25.357  0.00  0.00    +0.007 A 
ATOM      8  C   UNL     1      -5.214   3.813  25.609  0.00  0.00    +0.002 A 
ATOM      9  C   UNL     1      -4.413   3.916  25.776  0.00  0.00    +0.017 A 
ATOM     10  C   UNL     1      -3.889   3.284  25.691  0.00  0.00    +0.077 A 
ATOM     32  C   UNL     1      -4.167   2.550  25.439  0.00  0.00    +0.023 A 
BRANCH   6   4
ATOM      4  C   UNL     1      -5.246   1.712  25.020  0.00  0.00    +0.341 C 
ATOM      5  O   UNL     1      -6.015   1.638  24.729  0.00  0.00    -0.245 OA
BRANCH   4   3
ATOM      3  O   UNL     1      -4.755   1.050  25.058  0.00  0.00    -0.445 OA
BRANCH   3   2
ATOM      1  C   UNL     1      -4.441  -0.281  24.642  0.00  0.00    +0.051 C 
ATOM      2  C   UNL     1      -4.963   0.358  24.659  0.00  0.00    +0.209 C 
ENDBRANCH   3   2
ENDBRANCH   4   3
ENDBRANCH   6   4
ENDBRANCH  11  10
ENDBRANCH  14  12
ENDBRANCH  15  14
TORSDOF 8
ENDMDL
