MODEL 1
REMARK VINA RESULT:      -8.7      0.000      0.000
REMARK  Name = 
REMARK  6 active torsions:
REMARK  status: ('A' for Active; 'I' for Inactive)
REMARK    1  A    between atoms: O_2  and  C_3
REMARK    2  A    between atoms: C_6  and  N_7
REMARK    3  A    between atoms: N_10  and  C_11
REMARK    4  A    between atoms: C_15  and  N_19
REMARK    5  A    between atoms: C_22  and  C_26
REMARK    6  A    between atoms: C_29  and  O_30
REMARK                            x       y       z     vdW  Elec       q    Type
REMARK                         _______ _______ _______ _____ _____    ______ ____
ROOT
ATOM     11  C   UNL     1       0.649   0.589  23.422  0.00  0.00    +0.156 C 
ATOM     12  C   UNL     1       0.687   1.409  23.501  0.00  0.00    +0.166 C 
ATOM     13  O   UNL     1       0.014   1.657  23.907  0.00  0.00    -0.350 OA
ATOM     14  C   UNL     1      -0.440   0.992  24.080  0.00  0.00    +0.166 C 
ATOM     15  C   UNL     1      -1.137   0.733  24.438  0.00  0.00    +0.154 C 
ATOM     16  C   UNL     1      -1.176  -0.088  24.359  0.00  0.00    +0.166 C 
ATOM     17  O   UNL     1      -0.502  -0.336  23.953  0.00  0.00    -0.350 OA
ATOM     18  C   UNL     1      -0.048   0.331  23.780  0.00  0.00    +0.166 C 
ENDROOT
BRANCH  15  19
ATOM     19  N   UNL     1      -1.698   1.211  24.809  0.00  0.00    -0.200 NA
ATOM     20  C   UNL     1      -2.458   1.276  24.495  0.00  0.00    +0.237 A 
ATOM     21  N   UNL     1      -3.018   1.754  24.866  0.00  0.00    -0.212 NA
ATOM     22  C   UNL     1      -3.778   1.819  24.552  0.00  0.00    +0.086 A 
ATOM     23  C   UNL     1      -3.978   1.406  23.866  0.00  0.00    +0.040 A 
ATOM     24  C   UNL     1      -3.417   0.928  23.495  0.00  0.00    +0.103 A 
ATOM     25  N   UNL     1      -2.658   0.863  23.809  0.00  0.00    -0.211 NA
BRANCH  22  26
ATOM     26  C   UNL     1      -4.339   2.297  24.923  0.00  0.00    +0.018 A 
ATOM     27  C   UNL     1      -5.018   1.959  25.251  0.00  0.00    +0.005 A 
ATOM     28  C   UNL     1      -5.578   2.437  25.622  0.00  0.00    +0.037 A 
ATOM     29  C   UNL     1      -5.461   3.252  25.666  0.00  0.00    +0.139 A 
ATOM     32  C   UNL     1      -4.783   3.590  25.338  0.00  0.00    +0.037 A 
ATOM     33  C   UNL     1      -4.222   3.112  24.967  0.00  0.00    +0.005 A 
BRANCH  29  30
ATOM     30  O   UNL     1      -6.021   3.730  26.037  0.00  0.00    -0.471 OA
ATOM     31  C   UNL     1      -6.213   4.466  25.717  0.00  0.00    +0.252 C 
ENDBRANCH  29  30
ENDBRANCH  22  26
ENDBRANCH  15  19
BRANCH  11  10
ATOM      7  N   UNL     1       2.574  -0.228  22.797  0.00  0.00    -0.161 NA
ATOM      8  C   UNL     1       2.014   0.250  23.168  0.00  0.00    +0.344 C 
ATOM      9  O   UNL     1       2.258   0.868  23.658  0.00  0.00    -0.249 OA
ATOM     10  N   UNL     1       1.209   0.110  23.051  0.00  0.00    -0.184 NA
BRANCH   7   6
ATOM      3  C   UNL     1       4.988   0.189  23.151  0.00  0.00    +0.139 A 
ATOM      4  C   UNL     1       4.620  -0.446  23.528  0.00  0.00    +0.038 A 
ATOM      5  C   UNL     1       3.815  -0.584  23.410  0.00  0.00    +0.020 A 
ATOM      6  C   UNL     1       3.379  -0.089  22.915  0.00  0.00    +0.075 A 
ATOM     34  C   UNL     1       3.748   0.546  22.538  0.00  0.00    +0.020 A 
ATOM     35  C   UNL     1       4.552   0.685  22.656  0.00  0.00    +0.038 A 
BRANCH   3   2
ATOM      1  C   UNL     1       6.137   0.159  24.000  0.00  0.00    +0.252 C 
ATOM      2  O   UNL     1       5.793   0.328  23.269  0.00  0.00    -0.471 OA
ENDBRANCH   3   2
ENDBRANCH   7   6
ENDBRANCH  11  10
TORSDOF 6
ENDMDL
MODEL 2
REMARK VINA RESULT:      -8.4      1.015      7.857
REMARK  Name = 
REMARK  6 active torsions:
REMARK  status: ('A' for Active; 'I' for Inactive)
REMARK    1  A    between atoms: O_2  and  C_3
REMARK    2  A    between atoms: C_6  and  N_7
REMARK    3  A    between atoms: N_10  and  C_11
REMARK    4  A    between atoms: C_15  and  N_19
REMARK    5  A    between atoms: C_22  and  C_26
REMARK    6  A    between atoms: C_29  and  O_30
REMARK                            x       y       z     vdW  Elec       q    Type
REMARK                         _______ _______ _______ _____ _____    ______ ____
ROOT
ATOM     11  C   UNL     1      -1.918   1.841  23.631  0.00  0.00    +0.156 C 
ATOM     12  C   UNL     1      -1.474   2.504  23.835  0.00  0.00    +0.166 C 
ATOM     13  O   UNL     1      -0.686   2.270  23.909  0.00  0.00    -0.350 OA
ATOM     14  C   UNL     1      -0.644   1.462  23.751  0.00  0.00    +0.166 C 
ATOM     15  C   UNL     1      -0.133   0.817  23.699  0.00  0.00    +0.154 C 
ATOM     16  C   UNL     1      -0.577   0.153  23.494  0.00  0.00    +0.166 C 
ATOM     17  O   UNL     1      -1.365   0.388  23.420  0.00  0.00    -0.350 OA
ATOM     18  C   UNL     1      -1.406   1.197  23.579  0.00  0.00    +0.166 C 
ENDROOT
BRANCH  15  19
ATOM     19  N   UNL     1       0.682   0.833  23.828  0.00  0.00    -0.200 NA
ATOM     20  C   UNL     1       1.195   0.495  23.278  0.00  0.00    +0.237 A 
ATOM     21  N   UNL     1       2.009   0.511  23.407  0.00  0.00    -0.212 NA
ATOM     22  C   UNL     1       2.522   0.173  22.856  0.00  0.00    +0.086 A 
ATOM     23  C   UNL     1       2.220  -0.182  22.175  0.00  0.00    +0.040 A 
ATOM     24  C   UNL     1       1.405  -0.198  22.046  0.00  0.00    +0.103 A 
ATOM     25  N   UNL     1       0.893   0.140  22.597  0.00  0.00    -0.211 NA
BRANCH  22  26
ATOM     26  C   UNL     1       3.336   0.189  22.986  0.00  0.00    +0.018 A 
ATOM     27  C   UNL     1       3.773   0.860  22.782  0.00  0.00    +0.005 A 
ATOM     28  C   UNL     1       4.587   0.877  22.911  0.00  0.00    +0.037 A 
ATOM     29  C   UNL     1       4.966   0.223  23.244  0.00  0.00    +0.139 A 
ATOM     32  C   UNL     1       4.529  -0.446  23.447  0.00  0.00    +0.037 A 
ATOM     33  C   UNL     1       3.714  -0.463  23.318  0.00  0.00    +0.005 A 
BRANCH  29  30
ATOM     30  O   UNL     1       5.780   0.240  23.373  0.00  0.00    -0.471 OA
ATOM     31  C   UNL     1       6.133  -0.329  23.857  0.00  0.00    +0.252 C 
ENDBRANCH  29  30
ENDBRANCH  22  26
ENDBRANCH  15  19
BRANCH  11  10
ATOM      7  N   UNL     1      -4.068   1.966  23.992  0.00  0.00    -0.161 NA
ATOM      8  C   UNL     1      -3.254   1.982  24.121  0.00  0.00    +0.344 C 
ATOM      9  O   UNL     1      -2.958   2.156  24.872  0.00  0.00    -0.249 OA
ATOM     10  N   UNL     1      -2.733   1.824  23.501  0.00  0.00    -0.184 NA
BRANCH   7   6
ATOM      3  C   UNL     1      -5.628   2.438  25.854  0.00  0.00    +0.139 A 
ATOM      4  C   UNL     1      -5.461   1.658  25.643  0.00  0.00    +0.038 A 
ATOM      5  C   UNL     1      -4.941   1.501  25.023  0.00  0.00    +0.020 A 
ATOM      6  C   UNL     1      -4.588   2.123  24.613  0.00  0.00    +0.075 A 
ATOM     34  C   UNL     1      -4.755   2.903  24.823  0.00  0.00    +0.020 A 
ATOM     35  C   UNL     1      -5.275   3.061  25.444  0.00  0.00    +0.038 A 
BRANCH   3   2
ATOM      1  C   UNL     1      -6.585   1.981  26.812  0.00  0.00    +0.252 C 
ATOM      2  O   UNL     1      -6.149   2.595  26.475  0.00  0.00    -0.471 OA
ENDBRANCH   3   2
ENDBRANCH   7   6
ENDBRANCH  11  10
TORSDOF 6
ENDMDL
MODEL 3
REMARK VINA RESULT:      -5.7     15.245     16.208
REMARK  Name = 
REMARK  6 active torsions:
REMARK  status: ('A' for Active; 'I' for Inactive)
REMARK    1  A    between atoms: O_2  and  C_3
REMARK    2  A    between atoms: C_6  and  N_7
REMARK    3  A    between atoms: N_10  and  C_11
REMARK    4  A    between atoms: C_15  and  N_19
REMARK    5  A    between atoms: C_22  and  C_26
REMARK    6  A    between atoms: C_29  and  O_30
REMARK                            x       y       z     vdW  Elec       q    Type
REMARK                         _______ _______ _______ _____ _____    ______ ____
ROOT
ATOM     11  C   UNL     1      -5.717  -9.657  11.465  0.00  0.00    +0.156 C 
ATOM     12  C   UNL     1      -5.975  -8.874  11.438  0.00  0.00    +0.166 C 
ATOM     13  O   UNL     1      -6.580  -8.786  11.991  0.00  0.00    -0.350 OA
ATOM     14  C   UNL     1      -6.697  -9.514  12.360  0.00  0.00    +0.166 C 
ATOM     15  C   UNL     1      -7.143  -9.911  12.929  0.00  0.00    +0.154 C 
ATOM     16  C   UNL     1      -6.885 -10.694  12.957  0.00  0.00    +0.166 C 
ATOM     17  O   UNL     1      -6.279 -10.781  12.404  0.00  0.00    -0.350 OA
ATOM     18  C   UNL     1      -6.163 -10.052  12.035  0.00  0.00    +0.166 C 
ENDROOT
BRANCH  15  19
ATOM     19  N   UNL     1      -7.742  -9.581  13.391  0.00  0.00    -0.200 NA
ATOM     20  C   UNL     1      -7.732  -9.678  14.211  0.00  0.00    +0.237 A 
ATOM     21  N   UNL     1      -8.331  -9.349  14.672  0.00  0.00    -0.212 NA
ATOM     22  C   UNL     1      -8.321  -9.445  15.492  0.00  0.00    +0.086 A 
ATOM     23  C   UNL     1      -7.712  -9.871  15.849  0.00  0.00    +0.040 A 
ATOM     24  C   UNL     1      -7.112 -10.200  15.387  0.00  0.00    +0.103 A 
ATOM     25  N   UNL     1      -7.123 -10.104  14.568  0.00  0.00    -0.211 NA
BRANCH  22  26
ATOM     26  C   UNL     1      -8.920  -9.116  15.953  0.00  0.00    +0.018 A 
ATOM     27  C   UNL     1      -9.662  -8.968  15.622  0.00  0.00    +0.005 A 
ATOM     28  C   UNL     1     -10.261  -8.639  16.084  0.00  0.00    +0.037 A 
ATOM     29  C   UNL     1     -10.119  -8.458  16.876  0.00  0.00    +0.139 A 
ATOM     32  C   UNL     1      -9.378  -8.605  17.206  0.00  0.00    +0.037 A 
ATOM     33  C   UNL     1      -8.778  -8.935  16.745  0.00  0.00    +0.005 A 
BRANCH  29  30
ATOM     30  O   UNL     1     -10.718  -8.129  17.338  0.00  0.00    -0.471 OA
ATOM     31  C   UNL     1     -10.719  -7.319  17.497  0.00  0.00    +0.252 C 
ENDBRANCH  29  30
ENDBRANCH  22  26
ENDBRANCH  15  19
BRANCH  11  10
ATOM      7  N   UNL     1      -3.730 -10.117  10.686  0.00  0.00    -0.161 NA
ATOM      8  C   UNL     1      -4.329  -9.789  11.147  0.00  0.00    +0.344 C 
ATOM      9  O   UNL     1      -4.141  -9.261  11.754  0.00  0.00    -0.249 OA
ATOM     10  N   UNL     1      -5.117  -9.986  11.003  0.00  0.00    -0.184 NA
BRANCH   7   6
ATOM      3  C   UNL     1      -1.366  -9.525  11.119  0.00  0.00    +0.139 A 
ATOM      4  C   UNL     1      -1.720 -10.143  11.537  0.00  0.00    +0.038 A 
ATOM      5  C   UNL     1      -2.508 -10.340  11.392  0.00  0.00    +0.020 A 
ATOM      6  C   UNL     1      -2.942  -9.920  10.830  0.00  0.00    +0.075 A 
ATOM     34  C   UNL     1      -2.588  -9.303  10.413  0.00  0.00    +0.020 A 
ATOM     35  C   UNL     1      -1.800  -9.105  10.557  0.00  0.00    +0.038 A 
BRANCH   3   2
ATOM      1  C   UNL     1      -0.358  -8.536  11.337  0.00  0.00    +0.252 C 
ATOM      2  O   UNL     1      -0.578  -9.328  11.263  0.00  0.00    -0.471 OA
ENDBRANCH   3   2
ENDBRANCH   7   6
ENDBRANCH  11  10
TORSDOF 6
ENDMDL
MODEL 4
REMARK VINA RESULT:      -5.4     16.883     19.205
REMARK  Name = 
REMARK  6 active torsions:
REMARK  status: ('A' for Active; 'I' for Inactive)
REMARK    1  A    between atoms: O_2  and  C_3
REMARK    2  A    between atoms: C_6  and  N_7
REMARK    3  A    between atoms: N_10  and  C_11
REMARK    4  A    between atoms: C_15  and  N_19
REMARK    5  A    between atoms: C_22  and  C_26
REMARK    6  A    between atoms: C_29  and  O_30
REMARK                            x       y       z     vdW  Elec       q    Type
REMARK                         _______ _______ _______ _____ _____    ______ ____
ROOT
ATOM     11  C   UNL     1      -5.876  -9.189   9.425  0.00  0.00    +0.156 C 
ATOM     12  C   UNL     1      -5.729  -8.379   9.469  0.00  0.00    +0.166 C 
ATOM     13  O   UNL     1      -4.919  -8.273   9.584  0.00  0.00    -0.350 OA
ATOM     14  C   UNL     1      -4.566  -9.018   9.612  0.00  0.00    +0.166 C 
ATOM     15  C   UNL     1      -3.847  -9.414   9.700  0.00  0.00    +0.154 C 
ATOM     16  C   UNL     1      -3.995 -10.224   9.656  0.00  0.00    +0.166 C 
ATOM     17  O   UNL     1      -4.804 -10.329   9.541  0.00  0.00    -0.350 OA
ATOM     18  C   UNL     1      -5.158  -9.584   9.513  0.00  0.00    +0.166 C 
ENDROOT
BRANCH  15  19
ATOM     19  N   UNL     1      -3.110  -9.060   9.813  0.00  0.00    -0.200 NA
ATOM     20  C   UNL     1      -2.625  -9.306  10.434  0.00  0.00    +0.237 A 
ATOM     21  N   UNL     1      -1.888  -8.953  10.547  0.00  0.00    -0.212 NA
ATOM     22  C   UNL     1      -1.403  -9.199  11.167  0.00  0.00    +0.086 A 
ATOM     23  C   UNL     1      -1.655  -9.799  11.675  0.00  0.00    +0.040 A 
ATOM     24  C   UNL     1      -2.393 -10.152  11.562  0.00  0.00    +0.103 A 
ATOM     25  N   UNL     1      -2.877  -9.906  10.941  0.00  0.00    -0.211 NA
BRANCH  22  26
ATOM     26  C   UNL     1      -0.667  -8.846  11.280  0.00  0.00    +0.018 A 
ATOM     27  C   UNL     1      -0.059  -8.977  10.736  0.00  0.00    +0.005 A 
ATOM     28  C   UNL     1       0.678  -8.624  10.849  0.00  0.00    +0.037 A 
ATOM     29  C   UNL     1       0.808  -8.141  11.505  0.00  0.00    +0.139 A 
ATOM     32  C   UNL     1       0.201  -8.010  12.048  0.00  0.00    +0.037 A 
ATOM     33  C   UNL     1      -0.536  -8.364  11.935  0.00  0.00    +0.005 A 
BRANCH  29  30
ATOM     30  O   UNL     1       1.545  -7.788  11.618  0.00  0.00    -0.471 OA
ATOM     31  C   UNL     1       1.619  -7.141  12.124  0.00  0.00    +0.252 C 
ENDBRANCH  29  30
ENDBRANCH  22  26
ENDBRANCH  15  19
BRANCH  11  10
ATOM      7  N   UNL     1      -8.024  -9.426   9.114  0.00  0.00    -0.161 NA
ATOM      8  C   UNL     1      -7.287  -9.074   9.226  0.00  0.00    +0.344 C 
ATOM      9  O   UNL     1      -7.223  -8.251   9.254  0.00  0.00    -0.249 OA
ATOM     10  N   UNL     1      -6.613  -9.542   9.312  0.00  0.00    -0.184 NA
BRANCH   7   6
ATOM      3  C   UNL     1     -10.045  -8.021   8.858  0.00  0.00    +0.139 A 
ATOM      4  C   UNL     1      -9.835  -8.310   9.602  0.00  0.00    +0.038 A 
ATOM      5  C   UNL     1      -9.161  -8.779   9.686  0.00  0.00    +0.020 A 
ATOM      6  C   UNL     1      -8.697  -8.958   9.028  0.00  0.00    +0.075 A 
ATOM     34  C   UNL     1      -8.907  -8.669   8.285  0.00  0.00    +0.020 A 
ATOM     35  C   UNL     1      -9.581  -8.200   8.199  0.00  0.00    +0.038 A 
BRANCH   3   2
ATOM      1  C   UNL     1     -10.644  -6.735   8.689  0.00  0.00    +0.252 C 
ATOM      2  O   UNL     1     -10.719  -7.552   8.773  0.00  0.00    -0.471 OA
ENDBRANCH   3   2
ENDBRANCH   7   6
ENDBRANCH  11  10
TORSDOF 6
ENDMDL
MODEL 5
REMARK VINA RESULT:      -5.0     16.167     18.560
REMARK  Name = 
REMARK  6 active torsions:
REMARK  status: ('A' for Active; 'I' for Inactive)
REMARK    1  A    between atoms: O_2  and  C_3
REMARK    2  A    between atoms: C_6  and  N_7
REMARK    3  A    between atoms: N_10  and  C_11
REMARK    4  A    between atoms: C_15  and  N_19
REMARK    5  A    between atoms: C_22  and  C_26
REMARK    6  A    between atoms: C_29  and  O_30
REMARK                            x       y       z     vdW  Elec       q    Type
REMARK                         _______ _______ _______ _____ _____    ______ ____
ROOT
ATOM     11  C   UNL     1      -5.851  -9.379  10.315  0.00  0.00    +0.156 C 
ATOM     12  C   UNL     1      -5.741  -8.594  10.540  0.00  0.00    +0.166 C 
ATOM     13  O   UNL     1      -4.932  -8.436  10.524  0.00  0.00    -0.350 OA
ATOM     14  C   UNL     1      -4.542  -9.123  10.289  0.00  0.00    +0.166 C 
ATOM     15  C   UNL     1      -3.801  -9.451  10.133  0.00  0.00    +0.154 C 
ATOM     16  C   UNL     1      -3.911 -10.237   9.908  0.00  0.00    +0.166 C 
ATOM     17  O   UNL     1      -4.721 -10.395   9.924  0.00  0.00    -0.350 OA
ATOM     18  C   UNL     1      -5.111  -9.706  10.159  0.00  0.00    +0.166 C 
ENDROOT
BRANCH  15  19
ATOM     19  N   UNL     1      -3.076  -9.061  10.193  0.00  0.00    -0.200 NA
ATOM     20  C   UNL     1      -2.501  -9.337  10.716  0.00  0.00    +0.237 A 
ATOM     21  N   UNL     1      -1.777  -8.947  10.775  0.00  0.00    -0.212 NA
ATOM     22  C   UNL     1      -1.201  -9.223  11.298  0.00  0.00    +0.086 A 
ATOM     23  C   UNL     1      -1.350  -9.889  11.762  0.00  0.00    +0.040 A 
ATOM     24  C   UNL     1      -2.075 -10.279  11.702  0.00  0.00    +0.103 A 
ATOM     25  N   UNL     1      -2.650 -10.002  11.179  0.00  0.00    -0.211 NA
BRANCH  22  26
ATOM     26  C   UNL     1      -0.477  -8.833  11.358  0.00  0.00    +0.018 A 
ATOM     27  C   UNL     1       0.122  -8.989  10.811  0.00  0.00    +0.005 A 
ATOM     28  C   UNL     1       0.846  -8.599  10.870  0.00  0.00    +0.037 A 
ATOM     29  C   UNL     1       0.973  -8.054  11.476  0.00  0.00    +0.139 A 
ATOM     32  C   UNL     1       0.375  -7.899  12.023  0.00  0.00    +0.037 A 
ATOM     33  C   UNL     1      -0.350  -8.288  11.963  0.00  0.00    +0.005 A 
BRANCH  29  30
ATOM     30  O   UNL     1       1.697  -7.664  11.536  0.00  0.00    -0.471 OA
ATOM     31  C   UNL     1       1.808  -7.085  12.113  0.00  0.00    +0.252 C 
ENDBRANCH  29  30
ENDBRANCH  22  26
ENDBRANCH  15  19
BRANCH  11  10
ATOM      7  N   UNL     1      -7.853 -10.099  10.806  0.00  0.00    -0.161 NA
ATOM      8  C   UNL     1      -7.129  -9.710  10.865  0.00  0.00    +0.344 C 
ATOM      9  O   UNL     1      -6.956  -9.259  11.535  0.00  0.00    -0.249 OA
ATOM     10  N   UNL     1      -6.576  -9.770  10.255  0.00  0.00    -0.184 NA
BRANCH   7   6
ATOM      3  C   UNL     1      -9.511  -9.919  12.635  0.00  0.00    +0.139 A 
ATOM      4  C   UNL     1      -9.669  -9.580  11.899  0.00  0.00    +0.038 A 
ATOM      5  C   UNL     1      -9.116  -9.641  11.290  0.00  0.00    +0.020 A 
ATOM      6  C   UNL     1      -8.405 -10.039  11.416  0.00  0.00    +0.075 A 
ATOM     34  C   UNL     1      -8.247 -10.378  12.151  0.00  0.00    +0.020 A 
ATOM     35  C   UNL     1      -8.800 -10.318  12.760  0.00  0.00    +0.038 A 
BRANCH   3   2
ATOM      1  C   UNL     1      -9.821  -9.636  14.001  0.00  0.00    +0.252 C 
ATOM      2  O   UNL     1     -10.064  -9.859  13.244  0.00  0.00    -0.471 OA
ENDBRANCH   3   2
ENDBRANCH   7   6
ENDBRANCH  11  10
TORSDOF 6
ENDMDL
