MODEL 1
REMARK VINA RESULT:     -10.2      0.000      0.000
REMARK  Name = 
REMARK  7 active torsions:
REMARK  status: ('A' for Active; 'I' for Inactive)
REMARK    1  A    between atoms: C_5  and  S_8
REMARK    2  A    between atoms: S_8  and  N_11
REMARK    3  A    between atoms: C_16  and  C_17
REMARK    4  A    between atoms: N_19  and  C_20
REMARK    5  A    between atoms: C_27  and  C_29
REMARK    6  A    between atoms: C_29  and  S_30
REMARK    7  A    between atoms: S_30  and  C_33
REMARK                            x       y       z     vdW  Elec       q    Type
REMARK                         _______ _______ _______ _____ _____    ______ ____
ROOT
ATOM     11  N   UNL     1      -0.627   0.077  24.226  0.00  0.00    -0.145 NA
ATOM     12  C   UNL     1      -0.180  -0.470  23.801  0.00  0.00    +0.118 C 
ATOM     13  C   UNL     1       0.560  -0.257  23.506  0.00  0.00    +0.113 C 
ATOM     14  N   UNL     1       0.854   0.502  23.635  0.00  0.00    -0.275 N 
ATOM     15  C   UNL     1       0.407   1.049  24.061  0.00  0.00    +0.120 C 
ATOM     16  C   UNL     1      -0.334   0.837  24.356  0.00  0.00    +0.177 C 
ATOM     27  C   UNL     1       1.594   0.715  23.340  0.00  0.00    +0.250 C 
ATOM     28  O   UNL     1       1.887   1.474  23.470  0.00  0.00    -0.273 OA
ENDROOT
BRANCH  11   8
ATOM      8  S   UNL     1      -1.367  -0.135  24.522  0.00  0.00    +0.064 S 
ATOM      9  O   UNL     1      -1.022  -0.330  25.245  0.00  0.00    -0.153 OA
ATOM     10  O   UNL     1      -1.712   0.060  23.798  0.00  0.00    -0.153 OA
BRANCH   8   5
ATOM      1  F   UNL     1      -4.329  -0.985  25.703  0.00  0.00    -0.204 F 
ATOM      2  C   UNL     1      -3.588  -0.772  25.408  0.00  0.00    +0.140 A 
ATOM      3  C   UNL     1      -3.521  -0.466  24.645  0.00  0.00    +0.031 A 
ATOM      4  C   UNL     1      -2.780  -0.254  24.350  0.00  0.00    +0.022 A 
ATOM      5  C   UNL     1      -2.108  -0.347  24.817  0.00  0.00    +0.122 A 
ATOM      6  C   UNL     1      -2.175  -0.653  25.580  0.00  0.00    +0.022 A 
ATOM      7  C   UNL     1      -2.915  -0.866  25.875  0.00  0.00    +0.031 A 
ENDBRANCH   8   5
ENDBRANCH  11   8
BRANCH  16  17
ATOM     17  C   UNL     1      -0.781   1.385  24.781  0.00  0.00    +0.260 C 
ATOM     18  O   UNL     1      -0.989   1.228  25.564  0.00  0.00    -0.272 OA
ATOM     19  N   UNL     1      -1.019   2.090  24.425  0.00  0.00    -0.197 NA
BRANCH  19  20
ATOM     20  C   UNL     1      -1.465   2.638  24.850  0.00  0.00    +0.173 C 
ATOM     21  C   UNL     1      -1.309   2.766  25.649  0.00  0.00    +0.033 C 
ATOM     22  C   UNL     1      -1.755   3.313  26.076  0.00  0.00    +0.026 C 
ATOM     23  C   UNL     1      -2.358   3.733  25.701  0.00  0.00    +0.115 C 
ATOM     24  N   UNL     1      -2.516   3.605  24.901  0.00  0.00    -0.204 NA
ATOM     25  C   UNL     1      -2.069   3.058  24.476  0.00  0.00    +0.261 C 
ATOM     26  O   UNL     1      -2.226   2.930  23.676  0.00  0.00    -0.271 OA
ENDBRANCH  19  20
ENDBRANCH  16  17
BRANCH  27  29
ATOM     29  C   UNL     1       2.041   0.168  22.915  0.00  0.00    +0.240 C 
BRANCH  29  30
ATOM     30  S   UNL     1       2.863   0.151  22.999  0.00  0.00    +0.018 S 
ATOM     31  O   UNL     1       2.905   0.932  22.737  0.00  0.00    -0.168 OA
ATOM     32  O   UNL     1       2.820  -0.630  23.260  0.00  0.00    -0.168 OA
BRANCH  30  33
ATOM     33  C   UNL     1       3.683   0.134  23.083  0.00  0.00    +0.106 A 
ATOM     34  C   UNL     1       4.043  -0.483  23.495  0.00  0.00    +0.018 A 
ATOM     35  C   UNL     1       4.863  -0.500  23.578  0.00  0.00    +0.001 A 
ATOM     36  C   UNL     1       5.323   0.101  23.250  0.00  0.00    +0.000 A 
ATOM     37  C   UNL     1       4.963   0.718  22.838  0.00  0.00    +0.001 A 
ATOM     38  C   UNL     1       4.143   0.735  22.755  0.00  0.00    +0.018 A 
ENDBRANCH  30  33
ENDBRANCH  29  30
ENDBRANCH  27  29
TORSDOF 7
ENDMDL
MODEL 2
REMARK VINA RESULT:      -9.8      1.509      2.798
REMARK  Name = 
REMARK  7 active torsions:
REMARK  status: ('A' for Active; 'I' for Inactive)
REMARK    1  A    between atoms: C_5  and  S_8
REMARK    2  A    between atoms: S_8  and  N_11
REMARK    3  A    between atoms: C_16  and  C_17
REMARK    4  A    between atoms: N_19  and  C_20
REMARK    5  A    between atoms: C_27  and  C_29
REMARK    6  A    between atoms: C_29  and  S_30
REMARK    7  A    between atoms: S_30  and  C_33
REMARK                            x       y       z     vdW  Elec       q    Type
REMARK                         _______ _______ _______ _____ _____    ______ ____
ROOT
ATOM     11  N   UNL     1      -1.367   1.263  23.908  0.00  0.00    -0.145 NA
ATOM     12  C   UNL     1      -0.835   1.669  23.426  0.00  0.00    +0.118 C 
ATOM     13  C   UNL     1      -0.107   1.330  23.237  0.00  0.00    +0.113 C 
ATOM     14  N   UNL     1       0.089   0.585  23.530  0.00  0.00    -0.275 N 
ATOM     15  C   UNL     1      -0.443   0.179  24.013  0.00  0.00    +0.120 C 
ATOM     16  C   UNL     1      -1.171   0.518  24.202  0.00  0.00    +0.177 C 
ATOM     27  C   UNL     1       0.817   0.246  23.341  0.00  0.00    +0.250 C 
ATOM     28  O   UNL     1       1.013  -0.500  23.634  0.00  0.00    -0.273 OA
ENDROOT
BRANCH  11   8
ATOM      8  S   UNL     1      -2.094   1.602  24.097  0.00  0.00    +0.064 S 
ATOM      9  O   UNL     1      -1.784   1.868  24.814  0.00  0.00    -0.153 OA
ATOM     10  O   UNL     1      -2.405   1.336  23.381  0.00  0.00    -0.153 OA
BRANCH   8   5
ATOM      1  F   UNL     1      -5.006   2.959  24.854  0.00  0.00    -0.204 F 
ATOM      2  C   UNL     1      -4.278   2.620  24.664  0.00  0.00    +0.140 A 
ATOM      3  C   UNL     1      -3.628   2.735  25.159  0.00  0.00    +0.031 A 
ATOM      4  C   UNL     1      -2.900   2.396  24.970  0.00  0.00    +0.022 A 
ATOM      5  C   UNL     1      -2.822   1.941  24.286  0.00  0.00    +0.122 A 
ATOM      6  C   UNL     1      -3.472   1.826  23.792  0.00  0.00    +0.022 A 
ATOM      7  C   UNL     1      -4.200   2.165  23.981  0.00  0.00    +0.031 A 
ENDBRANCH   8   5
ENDBRANCH  11   8
BRANCH  16  17
ATOM     17  C   UNL     1      -1.702   0.111  24.684  0.00  0.00    +0.260 C 
ATOM     18  O   UNL     1      -1.928   0.431  25.410  0.00  0.00    -0.272 OA
ATOM     19  N   UNL     1      -2.007  -0.617  24.442  0.00  0.00    -0.197 NA
BRANCH  19  20
ATOM     20  C   UNL     1      -2.538  -1.023  24.924  0.00  0.00    +0.173 C 
ATOM     21  C   UNL     1      -2.498  -0.941  25.743  0.00  0.00    +0.033 C 
ATOM     22  C   UNL     1      -3.029  -1.347  26.226  0.00  0.00    +0.026 C 
ATOM     23  C   UNL     1      -3.601  -1.837  25.889  0.00  0.00    +0.115 C 
ATOM     24  N   UNL     1      -3.642  -1.920  25.069  0.00  0.00    -0.204 NA
ATOM     25  C   UNL     1      -3.110  -1.513  24.587  0.00  0.00    +0.261 C 
ATOM     26  O   UNL     1      -3.152  -1.596  23.767  0.00  0.00    -0.271 OA
ENDBRANCH  19  20
ENDBRANCH  16  17
BRANCH  27  29
ATOM     29  C   UNL     1       1.348   0.652  22.859  0.00  0.00    +0.240 C 
BRANCH  29  30
ATOM     30  S   UNL     1       2.158   0.497  22.914  0.00  0.00    +0.018 S 
ATOM     31  O   UNL     1       2.234   1.095  23.478  0.00  0.00    -0.168 OA
ATOM     32  O   UNL     1       2.081  -0.101  22.351  0.00  0.00    -0.168 OA
BRANCH  30  33
ATOM     33  C   UNL     1       2.966   0.342  22.969  0.00  0.00    +0.106 A 
ATOM     34  C   UNL     1       3.512   0.942  22.819  0.00  0.00    +0.018 A 
ATOM     35  C   UNL     1       4.320   0.787  22.874  0.00  0.00    +0.001 A 
ATOM     36  C   UNL     1       4.582   0.032  23.079  0.00  0.00    +0.000 A 
ATOM     37  C   UNL     1       4.037  -0.568  23.230  0.00  0.00    +0.001 A 
ATOM     38  C   UNL     1       3.228  -0.412  23.175  0.00  0.00    +0.018 A 
ENDBRANCH  30  33
ENDBRANCH  29  30
ENDBRANCH  27  29
TORSDOF 7
ENDMDL
MODEL 3
REMARK VINA RESULT:      -8.4      3.877      5.546
REMARK  Name = 
REMARK  7 active torsions:
REMARK  status: ('A' for Active; 'I' for Inactive)
REMARK    1  A    between atoms: C_5  and  S_8
REMARK    2  A    between atoms: S_8  and  N_11
REMARK    3  A    between atoms: C_16  and  C_17
REMARK    4  A    between atoms: N_19  and  C_20
REMARK    5  A    between atoms: C_27  and  C_29
REMARK    6  A    between atoms: C_29  and  S_30
REMARK    7  A    between atoms: S_30  and  C_33
REMARK                            x       y       z     vdW  Elec       q    Type
REMARK                         _______ _______ _______ _____ _____    ______ ____
ROOT
ATOM     11  N   UNL     1      -2.341   2.156  24.950  0.00  0.00    -0.145 NA
ATOM     12  C   UNL     1      -1.847   1.497  24.994  0.00  0.00    +0.118 C 
ATOM     13  C   UNL     1      -2.170   0.738  24.981  0.00  0.00    +0.113 C 
ATOM     14  N   UNL     1      -2.987   0.638  24.924  0.00  0.00    -0.275 N 
ATOM     15  C   UNL     1      -3.480   1.297  24.880  0.00  0.00    +0.120 C 
ATOM     16  C   UNL     1      -3.157   2.056  24.893  0.00  0.00    +0.177 C 
ATOM     27  C   UNL     1      -3.310  -0.121  24.911  0.00  0.00    +0.250 C 
ATOM     28  O   UNL     1      -4.126  -0.221  24.855  0.00  0.00    -0.273 OA
ENDROOT
BRANCH  11   8
ATOM      8  S   UNL     1      -2.018   2.915  24.963  0.00  0.00    +0.064 S 
ATOM      9  O   UNL     1      -1.974   2.910  24.139  0.00  0.00    -0.153 OA
ATOM     10  O   UNL     1      -2.062   2.919  25.787  0.00  0.00    -0.153 OA
BRANCH   8   5
ATOM      1  F   UNL     1      -0.726   5.951  25.015  0.00  0.00    -0.204 F 
ATOM      2  C   UNL     1      -1.049   5.192  25.002  0.00  0.00    +0.140 A 
ATOM      3  C   UNL     1      -0.968   4.720  24.330  0.00  0.00    +0.031 A 
ATOM      4  C   UNL     1      -1.291   3.961  24.317  0.00  0.00    +0.022 A 
ATOM      5  C   UNL     1      -1.695   3.674  24.976  0.00  0.00    +0.122 A 
ATOM      6  C   UNL     1      -1.776   4.145  25.648  0.00  0.00    +0.022 A 
ATOM      7  C   UNL     1      -1.453   4.904  25.661  0.00  0.00    +0.031 A 
ENDBRANCH   8   5
ENDBRANCH  11   8
BRANCH  16  17
ATOM     17  C   UNL     1      -3.652   2.715  24.849  0.00  0.00    +0.260 C 
ATOM     18  O   UNL     1      -3.522   3.290  24.272  0.00  0.00    -0.272 OA
ATOM     19  N   UNL     1      -4.277   2.800  25.382  0.00  0.00    -0.197 NA
BRANCH  19  20
ATOM     20  C   UNL     1      -4.771   3.459  25.337  0.00  0.00    +0.173 C 
ATOM     21  C   UNL     1      -4.723   3.967  24.690  0.00  0.00    +0.033 C 
ATOM     22  C   UNL     1      -5.217   4.627  24.645  0.00  0.00    +0.026 C 
ATOM     23  C   UNL     1      -5.759   4.777  25.248  0.00  0.00    +0.115 C 
ATOM     24  N   UNL     1      -5.807   4.268  25.897  0.00  0.00    -0.204 NA
ATOM     25  C   UNL     1      -5.313   3.609  25.940  0.00  0.00    +0.261 C 
ATOM     26  O   UNL     1      -5.361   3.100  26.588  0.00  0.00    -0.271 OA
ENDBRANCH  19  20
ENDBRANCH  16  17
BRANCH  27  29
ATOM     29  C   UNL     1      -2.816  -0.780  24.956  0.00  0.00    +0.240 C 
BRANCH  29  30
ATOM     30  S   UNL     1      -3.099  -1.523  24.732  0.00  0.00    +0.018 S 
ATOM     31  O   UNL     1      -2.811  -1.402  23.968  0.00  0.00    -0.168 OA
ATOM     32  O   UNL     1      -3.386  -1.644  25.495  0.00  0.00    -0.168 OA
BRANCH  30  33
ATOM     33  C   UNL     1      -3.381  -2.266  24.508  0.00  0.00    +0.106 A 
ATOM     34  C   UNL     1      -3.953  -2.328  23.917  0.00  0.00    +0.018 A 
ATOM     35  C   UNL     1      -4.235  -3.070  23.693  0.00  0.00    +0.001 A 
ATOM     36  C   UNL     1      -3.944  -3.749  24.061  0.00  0.00    +0.000 A 
ATOM     37  C   UNL     1      -3.372  -3.687  24.651  0.00  0.00    +0.001 A 
ATOM     38  C   UNL     1      -3.090  -2.944  24.875  0.00  0.00    +0.018 A 
ENDBRANCH  30  33
ENDBRANCH  29  30
ENDBRANCH  27  29
TORSDOF 7
ENDMDL
