MODEL 1
REMARK VINA RESULT:     -10.6      0.000      0.000
REMARK  Name = 
REMARK  9 active torsions:
REMARK  status: ('A' for Active; 'I' for Inactive)
REMARK    1  A    between atoms: C_2  and  C_4
REMARK    2  A    between atoms: C_4  and  C_5
REMARK    3  A    between atoms: C_4  and  N_15
REMARK    4  A    between atoms: C_5  and  C_6
REMARK    5  A    between atoms: C_16  and  C_18
REMARK    6  A    between atoms: C_20  and  N_28
REMARK    7  A    between atoms: C_23  and  C_25
REMARK    8  A    between atoms: N_31  and  C_32
REMARK    9  A    between atoms: C_32  and  C_33
REMARK                            x       y       z     vdW  Elec       q    Type
REMARK                         _______ _______ _______ _____ _____    ______ ____
ROOT
ATOM     15  N   UNL     1      -3.348   1.195  24.453  0.00  0.00    -0.196 NA
ATOM     16  C   UNL     1      -2.783   1.586  24.910  0.00  0.00    +0.260 C 
ATOM     17  O   UNL     1      -2.924   1.719  25.712  0.00  0.00    -0.272 OA
ENDROOT
BRANCH  16  18
ATOM     18  C   UNL     1      -2.079   1.843  24.566  0.00  0.00    +0.155 C 
ATOM     19  C   UNL     1      -1.600   1.407  24.056  0.00  0.00    +0.053 C 
ATOM     20  C   UNL     1      -0.955   1.877  23.848  0.00  0.00    +0.119 C 
ATOM     21  C   UNL     1      -1.035   2.605  24.229  0.00  0.00    +0.115 C 
ATOM     22  N   UNL     1      -1.730   2.583  24.673  0.00  0.00    -0.271 N 
ATOM     23  C   UNL     1      -2.024   3.195  25.143  0.00  0.00    +0.226 C 
ATOM     24  O   UNL     1      -2.730   3.094  25.558  0.00  0.00    -0.275 OA
BRANCH  20  28
ATOM     28  N   UNL     1      -0.337   1.659  23.345  0.00  0.00    -0.187 NA
ATOM     29  C   UNL     1       0.164   1.038  23.555  0.00  0.00    +0.340 C 
ATOM     30  O   UNL     1       0.049   0.637  24.267  0.00  0.00    -0.249 OA
ATOM     31  N   UNL     1       0.782   0.820  23.053  0.00  0.00    -0.182 NA
BRANCH  31  32
ATOM     32  C   UNL     1       1.284   0.200  23.263  0.00  0.00    +0.143 C 
BRANCH  32  33
ATOM     33  C   UNL     1       1.770  -0.148  22.693  0.00  0.00    -0.003 C 
ATOM     34  C   UNL     1       2.559   0.081  22.630  0.00  0.00    -0.003 C 
ENDBRANCH  32  33
ENDBRANCH  31  32
ENDBRANCH  20  28
BRANCH  23  25
ATOM     25  C   UNL     1      -1.613   3.908  25.197  0.00  0.00    +0.077 C 
ATOM     26  C   UNL     1      -0.931   4.326  25.402  0.00  0.00    +0.010 C 
ATOM     27  C   UNL     1      -1.581   4.724  25.085  0.00  0.00    +0.010 C 
ENDBRANCH  23  25
ENDBRANCH  16  18
BRANCH  15   4
ATOM      4  C   UNL     1      -4.052   0.938  24.796  0.00  0.00    +0.179 C 
BRANCH   4   2
ATOM      1  N   UNL     1      -5.192   1.494  25.456  0.00  0.00    -0.086 NA
ATOM      2  C   UNL     1      -4.719   1.424  24.783  0.00  0.00    +0.281 C 
ATOM      3  O   UNL     1      -4.913   1.840  24.098  0.00  0.00    -0.270 OA
ENDBRANCH   4   2
BRANCH   4   5
ATOM      5  C   UNL     1      -4.091   0.196  25.153  0.00  0.00    +0.059 C 
BRANCH   5   6
ATOM      6  C   UNL     1      -4.121  -0.485  24.688  0.00  0.00    +0.001 A 
ATOM      7  C   UNL     1      -4.432  -0.538  23.926  0.00  0.00    +0.095 A 
ATOM      8  N   UNL     1      -4.348  -1.318  23.670  0.00  0.00    -0.244 NA
ATOM      9  C   UNL     1      -3.985  -1.747  24.275  0.00  0.00    +0.081 A 
ATOM     10  C   UNL     1      -3.844  -1.232  24.903  0.00  0.00    +0.015 A 
ATOM     11  C   UNL     1      -3.483  -1.510  25.591  0.00  0.00    +0.001 A 
ATOM     12  C   UNL     1      -3.262  -2.302  25.650  0.00  0.00    +0.000 A 
ATOM     13  C   UNL     1      -3.403  -2.817  25.021  0.00  0.00    +0.002 A 
ATOM     14  C   UNL     1      -3.764  -2.539  24.333  0.00  0.00    +0.019 A 
ENDBRANCH   5   6
ENDBRANCH   4   5
ENDBRANCH  15   4
TORSDOF 9
ENDMDL
MODEL 2
REMARK VINA RESULT:     -10.1      1.850      3.555
REMARK  Name = 
REMARK  9 active torsions:
REMARK  status: ('A' for Active; 'I' for Inactive)
REMARK    1  A    between atoms: C_2  and  C_4
REMARK    2  A    between atoms: C_4  and  C_5
REMARK    3  A    between atoms: C_4  and  N_15
REMARK    4  A    between atoms: C_5  and  C_6
REMARK    5  A    between atoms: C_16  and  C_18
REMARK    6  A    between atoms: C_20  and  N_28
REMARK    7  A    between atoms: C_23  and  C_25
REMARK    8  A    between atoms: N_31  and  C_32
REMARK    9  A    between atoms: C_32  and  C_33
REMARK                            x       y       z     vdW  Elec       q    Type
REMARK                         _______ _______ _______ _____ _____    ______ ____
ROOT
ATOM     15  N   UNL     1      -1.420   1.847  24.601  0.00  0.00    -0.196 NA
ATOM     16  C   UNL     1      -0.992   1.241  24.960  0.00  0.00    +0.260 C 
ATOM     17  O   UNL     1      -0.970   1.184  25.784  0.00  0.00    -0.272 OA
ENDROOT
BRANCH  16  18
ATOM     18  C   UNL     1      -0.585   0.692  24.499  0.00  0.00    +0.155 C 
ATOM     19  C   UNL     1       0.003   0.863  23.945  0.00  0.00    +0.053 C 
ATOM     20  C   UNL     1       0.256   0.152  23.615  0.00  0.00    +0.119 C 
ATOM     21  C   UNL     1      -0.175  -0.460  23.963  0.00  0.00    +0.115 C 
ATOM     22  N   UNL     1      -0.694  -0.126  24.509  0.00  0.00    -0.271 N 
ATOM     23  C   UNL     1      -1.230  -0.537  24.984  0.00  0.00    +0.226 C 
ATOM     24  O   UNL     1      -1.717  -0.127  25.507  0.00  0.00    -0.275 OA
BRANCH  20  28
ATOM     28  N   UNL     1       0.839   0.066  23.036  0.00  0.00    -0.187 NA
ATOM     29  C   UNL     1       1.600   0.352  23.173  0.00  0.00    +0.340 C 
ATOM     30  O   UNL     1       1.780   0.724  23.887  0.00  0.00    -0.249 OA
ATOM     31  N   UNL     1       2.183   0.266  22.594  0.00  0.00    -0.182 NA
BRANCH  31  32
ATOM     32  C   UNL     1       2.944   0.552  22.731  0.00  0.00    +0.143 C 
BRANCH  32  33
ATOM     33  C   UNL     1       3.536   0.436  22.166  0.00  0.00    -0.003 C 
ATOM     34  C   UNL     1       4.326   0.559  22.367  0.00  0.00    -0.003 C 
ENDBRANCH  32  33
ENDBRANCH  31  32
ENDBRANCH  20  28
BRANCH  23  25
ATOM     25  C   UNL     1      -1.278  -1.360  24.934  0.00  0.00    +0.077 C 
ATOM     26  C   UNL     1      -1.655  -2.036  24.651  0.00  0.00    +0.010 C 
ATOM     27  C   UNL     1      -0.986  -2.105  25.130  0.00  0.00    +0.010 C 
ENDBRANCH  23  25
ENDBRANCH  16  18
BRANCH  15   4
ATOM      4  C   UNL     1      -1.827   2.396  25.063  0.00  0.00    +0.179 C 
BRANCH   4   2
ATOM      1  N   UNL     1      -1.446   3.306  26.098  0.00  0.00    -0.086 NA
ATOM      2  C   UNL     1      -1.453   3.093  25.300  0.00  0.00    +0.281 C 
ATOM      3  O   UNL     1      -1.086   3.576  24.742  0.00  0.00    -0.270 OA
ENDBRANCH   4   2
BRANCH   4   5
ATOM      5  C   UNL     1      -2.607   2.251  25.287  0.00  0.00    +0.059 C 
BRANCH   5   6
ATOM      6  C   UNL     1      -3.227   2.451  24.782  0.00  0.00    +0.001 A 
ATOM      7  C   UNL     1      -3.161   2.880  24.080  0.00  0.00    +0.095 A 
ATOM      8  N   UNL     1      -3.915   2.952  23.753  0.00  0.00    -0.244 NA
ATOM      9  C   UNL     1      -4.447   2.566  24.252  0.00  0.00    +0.081 A 
ATOM     10  C   UNL     1      -4.022   2.257  24.888  0.00  0.00    +0.015 A 
ATOM     11  C   UNL     1      -4.413   1.839  25.481  0.00  0.00    +0.001 A 
ATOM     12  C   UNL     1      -5.230   1.729  25.440  0.00  0.00    +0.000 A 
ATOM     13  C   UNL     1      -5.655   2.039  24.803  0.00  0.00    +0.002 A 
ATOM     14  C   UNL     1      -5.263   2.457  24.210  0.00  0.00    +0.019 A 
ENDBRANCH   5   6
ENDBRANCH   4   5
ENDBRANCH  15   4
TORSDOF 9
ENDMDL
MODEL 3
REMARK VINA RESULT:      -9.5      1.656      4.609
REMARK  Name = 
REMARK  9 active torsions:
REMARK  status: ('A' for Active; 'I' for Inactive)
REMARK    1  A    between atoms: C_2  and  C_4
REMARK    2  A    between atoms: C_4  and  C_5
REMARK    3  A    between atoms: C_4  and  N_15
REMARK    4  A    between atoms: C_5  and  C_6
REMARK    5  A    between atoms: C_16  and  C_18
REMARK    6  A    between atoms: C_20  and  N_28
REMARK    7  A    between atoms: C_23  and  C_25
REMARK    8  A    between atoms: N_31  and  C_32
REMARK    9  A    between atoms: C_32  and  C_33
REMARK                            x       y       z     vdW  Elec       q    Type
REMARK                         _______ _______ _______ _____ _____    ______ ____
ROOT
ATOM     15  N   UNL     1      -1.246   2.346  25.099  0.00  0.00    -0.196 NA
ATOM     16  C   UNL     1      -1.027   1.922  24.426  0.00  0.00    +0.260 C 
ATOM     17  O   UNL     1      -0.881   2.320  23.718  0.00  0.00    -0.272 OA
ENDROOT
BRANCH  16  18
ATOM     18  C   UNL     1      -0.953   1.102  24.460  0.00  0.00    +0.155 C 
ATOM     19  C   UNL     1      -1.458   0.585  24.859  0.00  0.00    +0.053 C 
ATOM     20  C   UNL     1      -1.178  -0.182  24.746  0.00  0.00    +0.119 C 
ATOM     21  C   UNL     1      -0.499  -0.141  24.278  0.00  0.00    +0.115 C 
ATOM     22  N   UNL     1      -0.361   0.653  24.101  0.00  0.00    -0.271 N 
ATOM     23  C   UNL     1       0.261   0.947  23.645  0.00  0.00    +0.226 C 
ATOM     24  O   UNL     1       0.330   1.758  23.515  0.00  0.00    -0.275 OA
BRANCH  20  28
ATOM     28  N   UNL     1      -1.516  -0.872  25.049  0.00  0.00    -0.187 NA
ATOM     29  C   UNL     1      -2.224  -1.155  24.735  0.00  0.00    +0.340 C 
ATOM     30  O   UNL     1      -2.594  -0.750  24.119  0.00  0.00    -0.249 OA
ATOM     31  N   UNL     1      -2.563  -1.845  25.038  0.00  0.00    -0.182 NA
BRANCH  31  32
ATOM     32  C   UNL     1      -3.271  -2.128  24.724  0.00  0.00    +0.143 C 
BRANCH  32  33
ATOM     33  C   UNL     1      -3.504  -2.907  24.869  0.00  0.00    -0.003 C 
ATOM     34  C   UNL     1      -3.948  -3.315  24.307  0.00  0.00    -0.003 C 
ENDBRANCH  32  33
ENDBRANCH  31  32
ENDBRANCH  20  28
BRANCH  23  25
ATOM     25  C   UNL     1       0.815   0.429  23.320  0.00  0.00    +0.077 C 
ATOM     26  C   UNL     1       1.569   0.096  23.323  0.00  0.00    +0.010 C 
ATOM     27  C   UNL     1       1.019  -0.134  22.753  0.00  0.00    +0.010 C 
ENDBRANCH  23  25
ENDBRANCH  16  18
BRANCH  15   4
ATOM      4  C   UNL     1      -1.319   3.167  25.065  0.00  0.00    +0.179 C 
BRANCH   4   2
ATOM      1  N   UNL     1      -0.499   4.319  24.857  0.00  0.00    -0.086 NA
ATOM      2  C   UNL     1      -0.690   3.647  25.297  0.00  0.00    +0.281 C 
ATOM      3  O   UNL     1      -0.251   3.457  25.968  0.00  0.00    -0.270 OA
ENDBRANCH   4   2
BRANCH   4   5
ATOM      5  C   UNL     1      -2.021   3.508  24.799  0.00  0.00    +0.059 C 
BRANCH   5   6
ATOM      6  C   UNL     1      -2.649   3.624  25.322  0.00  0.00    +0.001 A 
ATOM      7  C   UNL     1      -2.584   3.838  26.117  0.00  0.00    +0.095 A 
ATOM      8  N   UNL     1      -3.346   3.893  26.429  0.00  0.00    -0.244 NA
ATOM      9  C   UNL     1      -3.881   3.713  25.827  0.00  0.00    +0.081 A 
ATOM     10  C   UNL     1      -3.451   3.547  25.143  0.00  0.00    +0.015 A 
ATOM     11  C   UNL     1      -3.843   3.348  24.446  0.00  0.00    +0.001 A 
ATOM     12  C   UNL     1      -4.668   3.313  24.432  0.00  0.00    +0.000 A 
ATOM     13  C   UNL     1      -5.099   3.479  25.116  0.00  0.00    +0.002 A 
ATOM     14  C   UNL     1      -4.705   3.679  25.814  0.00  0.00    +0.019 A 
ENDBRANCH   5   6
ENDBRANCH   4   5
ENDBRANCH  15   4
TORSDOF 9
ENDMDL
MODEL 4
REMARK VINA RESULT:      -9.5      1.341      4.079
REMARK  Name = 
REMARK  9 active torsions:
REMARK  status: ('A' for Active; 'I' for Inactive)
REMARK    1  A    between atoms: C_2  and  C_4
REMARK    2  A    between atoms: C_4  and  C_5
REMARK    3  A    between atoms: C_4  and  N_15
REMARK    4  A    between atoms: C_5  and  C_6
REMARK    5  A    between atoms: C_16  and  C_18
REMARK    6  A    between atoms: C_20  and  N_28
REMARK    7  A    between atoms: C_23  and  C_25
REMARK    8  A    between atoms: N_31  and  C_32
REMARK    9  A    between atoms: C_32  and  C_33
REMARK                            x       y       z     vdW  Elec       q    Type
REMARK                         _______ _______ _______ _____ _____    ______ ____
ROOT
ATOM     15  N   UNL     1      -3.376   1.077  24.667  0.00  0.00    -0.196 NA
ATOM     16  C   UNL     1      -3.228   0.429  25.154  0.00  0.00    +0.260 C 
ATOM     17  O   UNL     1      -3.672   0.321  25.842  0.00  0.00    -0.272 OA
ENDROOT
BRANCH  16  18
ATOM     18  C   UNL     1      -2.638  -0.112  24.956  0.00  0.00    +0.155 C 
ATOM     19  C   UNL     1      -1.837   0.058  24.857  0.00  0.00    +0.053 C 
ATOM     20  C   UNL     1      -1.449  -0.643  24.661  0.00  0.00    +0.119 C 
ATOM     21  C   UNL     1      -2.011  -1.247  24.639  0.00  0.00    +0.115 C 
ATOM     22  N   UNL     1      -2.745  -0.919  24.821  0.00  0.00    -0.271 N 
ATOM     23  C   UNL     1      -3.462  -1.326  24.862  0.00  0.00    +0.226 C 
ATOM     24  O   UNL     1      -4.156  -0.923  25.052  0.00  0.00    -0.275 OA
BRANCH  20  28
ATOM     28  N   UNL     1      -0.641  -0.726  24.513  0.00  0.00    -0.187 NA
ATOM     29  C   UNL     1      -0.305  -0.365  23.853  0.00  0.00    +0.340 C 
ATOM     30  O   UNL     1      -0.774   0.080  23.340  0.00  0.00    -0.249 OA
ATOM     31  N   UNL     1       0.504  -0.448  23.705  0.00  0.00    -0.182 NA
BRANCH  31  32
ATOM     32  C   UNL     1       0.840  -0.086  23.044  0.00  0.00    +0.143 C 
BRANCH  32  33
ATOM     33  C   UNL     1       1.660   0.002  22.996  0.00  0.00    -0.003 C 
ATOM     34  C   UNL     1       2.036  -0.037  22.263  0.00  0.00    -0.003 C 
ENDBRANCH  32  33
ENDBRANCH  31  32
ENDBRANCH  20  28
BRANCH  23  25
ATOM     25  C   UNL     1      -3.485  -2.138  24.713  0.00  0.00    +0.077 C 
ATOM     26  C   UNL     1      -3.359  -2.913  24.964  0.00  0.00    +0.010 C 
ATOM     27  C   UNL     1      -3.649  -2.766  24.205  0.00  0.00    +0.010 C 
ENDBRANCH  23  25
ENDBRANCH  16  18
BRANCH  15   4
ATOM      4  C   UNL     1      -3.966   1.618  24.865  0.00  0.00    +0.179 C 
BRANCH   4   2
ATOM      1  N   UNL     1      -5.358   1.527  25.179  0.00  0.00    -0.086 NA
ATOM      2  C   UNL     1      -4.745   1.484  24.628  0.00  0.00    +0.281 C 
ATOM      3  O   UNL     1      -4.911   1.307  23.840  0.00  0.00    -0.270 OA
ENDBRANCH   4   2
BRANCH   4   5
ATOM      5  C   UNL     1      -3.779   2.293  25.301  0.00  0.00    +0.059 C 
BRANCH   5   6
ATOM      6  C   UNL     1      -3.468   2.956  24.923  0.00  0.00    +0.001 A 
ATOM      7  C   UNL     1      -3.648   3.207  24.158  0.00  0.00    +0.095 A 
ATOM      8  N   UNL     1      -3.213   3.891  24.005  0.00  0.00    -0.244 NA
ATOM      9  C   UNL     1      -2.764   4.063  24.676  0.00  0.00    +0.081 A 
ATOM     10  C   UNL     1      -2.921   3.485  25.243  0.00  0.00    +0.015 A 
ATOM     11  C   UNL     1      -2.548   3.515  25.978  0.00  0.00    +0.001 A 
ATOM     12  C   UNL     1      -2.016   4.123  26.146  0.00  0.00    +0.000 A 
ATOM     13  C   UNL     1      -1.858   4.702  25.578  0.00  0.00    +0.002 A 
ATOM     14  C   UNL     1      -2.233   4.671  24.843  0.00  0.00    +0.019 A 
ENDBRANCH   5   6
ENDBRANCH   4   5
ENDBRANCH  15   4
TORSDOF 9
ENDMDL
MODEL 5
REMARK VINA RESULT:      -9.4      2.004      2.661
REMARK  Name = 
REMARK  9 active torsions:
REMARK  status: ('A' for Active; 'I' for Inactive)
REMARK    1  A    between atoms: C_2  and  C_4
REMARK    2  A    between atoms: C_4  and  C_5
REMARK    3  A    between atoms: C_4  and  N_15
REMARK    4  A    between atoms: C_5  and  C_6
REMARK    5  A    between atoms: C_16  and  C_18
REMARK    6  A    between atoms: C_20  and  N_28
REMARK    7  A    between atoms: C_23  and  C_25
REMARK    8  A    between atoms: N_31  and  C_32
REMARK    9  A    between atoms: C_32  and  C_33
REMARK                            x       y       z     vdW  Elec       q    Type
REMARK                         _______ _______ _______ _____ _____    ______ ____
ROOT
ATOM     15  N   UNL     1      -2.664   1.546  25.230  0.00  0.00    -0.196 NA
ATOM     16  C   UNL     1      -2.139   1.999  24.783  0.00  0.00    +0.260 C 
ATOM     17  O   UNL     1      -2.266   2.096  23.973  0.00  0.00    -0.272 OA
ENDROOT
BRANCH  16  18
ATOM     18  C   UNL     1      -1.489   2.355  25.144  0.00  0.00    +0.155 C 
ATOM     19  C   UNL     1      -0.884   1.966  25.548  0.00  0.00    +0.053 C 
ATOM     20  C   UNL     1      -0.351   2.534  25.818  0.00  0.00    +0.119 C 
ATOM     21  C   UNL     1      -0.626   3.275  25.581  0.00  0.00    +0.115 C 
ATOM     22  N   UNL     1      -1.329   3.164  25.165  0.00  0.00    -0.271 N 
ATOM     23  C   UNL     1      -1.791   3.759  24.827  0.00  0.00    +0.226 C 
ATOM     24  O   UNL     1      -2.484   3.564  24.425  0.00  0.00    -0.275 OA
BRANCH  20  28
ATOM     28  N   UNL     1       0.337   2.387  26.250  0.00  0.00    -0.187 NA
ATOM     29  C   UNL     1       0.344   2.504  27.066  0.00  0.00    +0.340 C 
ATOM     30  O   UNL     1      -0.336   2.768  27.451  0.00  0.00    -0.249 OA
ATOM     31  N   UNL     1       1.032   2.357  27.498  0.00  0.00    -0.182 NA
BRANCH  31  32
ATOM     32  C   UNL     1       1.039   2.475  28.314  0.00  0.00    +0.143 C 
BRANCH  32  33
ATOM     33  C   UNL     1       1.758   2.524  28.718  0.00  0.00    -0.003 C 
ATOM     34  C   UNL     1       1.772   2.474  29.541  0.00  0.00    -0.003 C 
ENDBRANCH  32  33
ENDBRANCH  31  32
ENDBRANCH  20  28
BRANCH  23  25
ATOM     25  C   UNL     1      -1.560   4.549  24.893  0.00  0.00    +0.077 C 
ATOM     26  C   UNL     1      -1.635   5.286  25.254  0.00  0.00    +0.010 C 
ATOM     27  C   UNL     1      -1.087   5.176  24.646  0.00  0.00    +0.010 C 
ENDBRANCH  23  25
ENDBRANCH  16  18
BRANCH  15   4
ATOM      4  C   UNL     1      -3.315   1.191  24.868  0.00  0.00    +0.179 C 
BRANCH   4   2
ATOM      1  N   UNL     1      -4.468   1.697  24.192  0.00  0.00    -0.086 NA
ATOM      2  C   UNL     1      -4.053   1.560  24.892  0.00  0.00    +0.281 C 
ATOM      3  O   UNL     1      -4.375   1.791  25.614  0.00  0.00    -0.270 OA
ENDBRANCH   4   2
BRANCH   4   5
ATOM      5  C   UNL     1      -3.229   0.466  24.484  0.00  0.00    +0.059 C 
BRANCH   5   6
ATOM      6  C   UNL     1      -3.262  -0.237  24.913  0.00  0.00    +0.001 A 
ATOM      7  C   UNL     1      -3.096  -0.322  25.718  0.00  0.00    +0.095 A 
ATOM      8  N   UNL     1      -3.198  -1.116  25.916  0.00  0.00    -0.244 NA
ATOM      9  C   UNL     1      -3.427  -1.521  25.235  0.00  0.00    +0.081 A 
ATOM     10  C   UNL     1      -3.467  -0.979  24.616  0.00  0.00    +0.015 A 
ATOM     11  C   UNL     1      -3.684  -1.229  23.860  0.00  0.00    +0.001 A 
ATOM     12  C   UNL     1      -3.862  -2.023  23.724  0.00  0.00    +0.000 A 
ATOM     13  C   UNL     1      -3.822  -2.567  24.344  0.00  0.00    +0.002 A 
ATOM     14  C   UNL     1      -3.605  -2.315  25.100  0.00  0.00    +0.019 A 
ENDBRANCH   5   6
ENDBRANCH   4   5
ENDBRANCH  15   4
TORSDOF 9
ENDMDL
MODEL 6
REMARK VINA RESULT:      -9.1      1.489      5.578
REMARK  Name = 
REMARK  9 active torsions:
REMARK  status: ('A' for Active; 'I' for Inactive)
REMARK    1  A    between atoms: C_2  and  C_4
REMARK    2  A    between atoms: C_4  and  C_5
REMARK    3  A    between atoms: C_4  and  N_15
REMARK    4  A    between atoms: C_5  and  C_6
REMARK    5  A    between atoms: C_16  and  C_18
REMARK    6  A    between atoms: C_20  and  N_28
REMARK    7  A    between atoms: C_23  and  C_25
REMARK    8  A    between atoms: N_31  and  C_32
REMARK    9  A    between atoms: C_32  and  C_33
REMARK                            x       y       z     vdW  Elec       q    Type
REMARK                         _______ _______ _______ _____ _____    ______ ____
ROOT
ATOM     15  N   UNL     1      -1.277   0.190  24.068  0.00  0.00    -0.196 NA
ATOM     16  C   UNL     1      -1.677  -0.354  24.541  0.00  0.00    +0.260 C 
ATOM     17  O   UNL     1      -1.254  -0.841  25.056  0.00  0.00    -0.272 OA
ENDROOT
BRANCH  16  18
ATOM     18  C   UNL     1      -2.498  -0.413  24.500  0.00  0.00    +0.155 C 
ATOM     19  C   UNL     1      -3.029   0.218  24.457  0.00  0.00    +0.053 C 
ATOM     20  C   UNL     1      -3.792  -0.093  24.425  0.00  0.00    +0.119 C 
ATOM     21  C   UNL     1      -3.734  -0.916  24.449  0.00  0.00    +0.115 C 
ATOM     22  N   UNL     1      -2.935  -1.113  24.496  0.00  0.00    -0.271 N 
ATOM     23  C   UNL     1      -2.626  -1.877  24.531  0.00  0.00    +0.226 C 
ATOM     24  O   UNL     1      -1.810  -1.991  24.576  0.00  0.00    -0.275 OA
BRANCH  20  28
ATOM     28  N   UNL     1      -4.491   0.343  24.378  0.00  0.00    -0.187 NA
ATOM     29  C   UNL     1      -4.649   0.931  24.935  0.00  0.00    +0.340 C 
ATOM     30  O   UNL     1      -4.107   1.084  25.539  0.00  0.00    -0.249 OA
ATOM     31  N   UNL     1      -5.348   1.367  24.888  0.00  0.00    -0.182 NA
BRANCH  31  32
ATOM     32  C   UNL     1      -5.505   1.955  25.444  0.00  0.00    +0.143 C 
BRANCH  32  33
ATOM     33  C   UNL     1      -6.111   2.500  25.309  0.00  0.00    -0.003 C 
ATOM     34  C   UNL     1      -6.074   3.250  25.650  0.00  0.00    -0.003 C 
ENDBRANCH  32  33
ENDBRANCH  31  32
ENDBRANCH  20  28
BRANCH  23  25
ATOM     25  C   UNL     1      -3.132  -2.529  24.522  0.00  0.00    +0.077 C 
ATOM     26  C   UNL     1      -3.583  -3.076  24.101  0.00  0.00    +0.010 C 
ATOM     27  C   UNL     1      -3.559  -3.107  24.925  0.00  0.00    +0.010 C 
ENDBRANCH  23  25
ENDBRANCH  16  18
BRANCH  15   4
ATOM      4  C   UNL     1      -0.455   0.248  24.109  0.00  0.00    +0.179 C 
BRANCH   4   2
ATOM      1  N   UNL     1       0.625  -0.660  23.880  0.00  0.00    -0.086 NA
ATOM      2  C   UNL     1       0.015  -0.186  23.588  0.00  0.00    +0.281 C 
ATOM      3  O   UNL     1      -0.123  -0.147  22.776  0.00  0.00    -0.270 OA
ENDBRANCH   4   2
BRANCH   4   5
ATOM      5  C   UNL     1      -0.103   0.740  24.669  0.00  0.00    +0.059 C 
BRANCH   5   6
ATOM      6  C   UNL     1      -0.134   1.559  24.579  0.00  0.00    +0.001 A 
ATOM      7  C   UNL     1      -0.128   1.968  23.862  0.00  0.00    +0.095 A 
ATOM      8  N   UNL     1      -0.167   2.775  24.029  0.00  0.00    -0.244 NA
ATOM      9  C   UNL     1      -0.198   2.865  24.849  0.00  0.00    +0.081 A 
ATOM     10  C   UNL     1      -0.178   2.114  25.189  0.00  0.00    +0.015 A 
ATOM     11  C   UNL     1      -0.202   2.031  26.009  0.00  0.00    +0.001 A 
ATOM     12  C   UNL     1      -0.246   2.699  26.490  0.00  0.00    +0.000 A 
ATOM     13  C   UNL     1      -0.266   3.451  26.150  0.00  0.00    +0.002 A 
ATOM     14  C   UNL     1      -0.242   3.534  25.329  0.00  0.00    +0.019 A 
ENDBRANCH   5   6
ENDBRANCH   4   5
ENDBRANCH  15   4
TORSDOF 9
ENDMDL
MODEL 7
REMARK VINA RESULT:      -9.0      1.946      2.703
REMARK  Name = 
REMARK  9 active torsions:
REMARK  status: ('A' for Active; 'I' for Inactive)
REMARK    1  A    between atoms: C_2  and  C_4
REMARK    2  A    between atoms: C_4  and  C_5
REMARK    3  A    between atoms: C_4  and  N_15
REMARK    4  A    between atoms: C_5  and  C_6
REMARK    5  A    between atoms: C_16  and  C_18
REMARK    6  A    between atoms: C_20  and  N_28
REMARK    7  A    between atoms: C_23  and  C_25
REMARK    8  A    between atoms: N_31  and  C_32
REMARK    9  A    between atoms: C_32  and  C_33
REMARK                            x       y       z     vdW  Elec       q    Type
REMARK                         _______ _______ _______ _____ _____    ______ ____
ROOT
ATOM     15  N   UNL     1      -2.283   1.897  23.776  0.00  0.00    -0.196 NA
ATOM     16  C   UNL     1      -1.607   2.332  23.961  0.00  0.00    +0.260 C 
ATOM     17  O   UNL     1      -1.638   3.157  23.966  0.00  0.00    -0.272 OA
ENDROOT
BRANCH  16  18
ATOM     18  C   UNL     1      -0.902   1.945  24.141  0.00  0.00    +0.155 C 
ATOM     19  C   UNL     1      -0.493   1.426  23.647  0.00  0.00    +0.053 C 
ATOM     20  C   UNL     1       0.180   1.169  24.048  0.00  0.00    +0.119 C 
ATOM     21  C   UNL     1       0.188   1.529  24.791  0.00  0.00    +0.115 C 
ATOM     22  N   UNL     1      -0.481   2.008  24.848  0.00  0.00    -0.271 N 
ATOM     23  C   UNL     1      -0.692   2.470  25.498  0.00  0.00    +0.226 C 
ATOM     24  O   UNL     1      -1.380   2.924  25.476  0.00  0.00    -0.275 OA
BRANCH  20  28
ATOM     28  N   UNL     1       0.747   0.644  23.758  0.00  0.00    -0.187 NA
ATOM     29  C   UNL     1       1.469   0.930  23.479  0.00  0.00    +0.340 C 
ATOM     30  O   UNL     1       1.624   1.740  23.490  0.00  0.00    -0.249 OA
ATOM     31  N   UNL     1       2.036   0.404  23.189  0.00  0.00    -0.182 NA
BRANCH  31  32
ATOM     32  C   UNL     1       2.757   0.690  22.910  0.00  0.00    +0.143 C 
BRANCH  32  33
ATOM     33  C   UNL     1       3.364   0.163  22.720  0.00  0.00    -0.003 C 
ATOM     34  C   UNL     1       4.145   0.427  22.692  0.00  0.00    -0.003 C 
ENDBRANCH  32  33
ENDBRANCH  31  32
ENDBRANCH  20  28
BRANCH  23  25
ATOM     25  C   UNL     1      -0.214   2.479  26.171  0.00  0.00    +0.077 C 
ATOM     26  C   UNL     1       0.419   2.797  26.593  0.00  0.00    +0.010 C 
ATOM     27  C   UNL     1      -0.020   2.176  26.913  0.00  0.00    +0.010 C 
ENDBRANCH  23  25
ENDBRANCH  16  18
BRANCH  15   4
ATOM      4  C   UNL     1      -2.988   2.285  23.596  0.00  0.00    +0.179 C 
BRANCH   4   2
ATOM      1  N   UNL     1      -3.490   3.204  22.623  0.00  0.00    -0.086 NA
ATOM      2  C   UNL     1      -3.169   2.467  22.811  0.00  0.00    +0.281 C 
ATOM      3  O   UNL     1      -3.030   1.915  22.216  0.00  0.00    -0.270 OA
ENDBRANCH   4   2
BRANCH   4   5
ATOM      5  C   UNL     1      -3.512   2.490  24.198  0.00  0.00    +0.059 C 
BRANCH   5   6
ATOM      6  C   UNL     1      -4.063   1.940  24.472  0.00  0.00    +0.001 A 
ATOM      7  C   UNL     1      -4.082   1.137  24.282  0.00  0.00    +0.095 A 
ATOM      8  N   UNL     1      -4.721   0.797  24.677  0.00  0.00    -0.244 NA
ATOM      9  C   UNL     1      -5.097   1.390  25.111  0.00  0.00    +0.081 A 
ATOM     10  C   UNL     1      -4.690   2.095  24.985  0.00  0.00    +0.015 A 
ATOM     11  C   UNL     1      -4.943   2.789  25.353  0.00  0.00    +0.001 A 
ATOM     12  C   UNL     1      -5.603   2.777  25.847  0.00  0.00    +0.000 A 
ATOM     13  C   UNL     1      -6.010   2.070  25.974  0.00  0.00    +0.002 A 
ATOM     14  C   UNL     1      -5.757   1.376  25.605  0.00  0.00    +0.019 A 
ENDBRANCH   5   6
ENDBRANCH   4   5
ENDBRANCH  15   4
TORSDOF 9
ENDMDL
MODEL 8
REMARK VINA RESULT:      -9.0      2.380      3.516
REMARK  Name = 
REMARK  9 active torsions:
REMARK  status: ('A' for Active; 'I' for Inactive)
REMARK    1  A    between atoms: C_2  and  C_4
REMARK    2  A    between atoms: C_4  and  C_5
REMARK    3  A    between atoms: C_4  and  N_15
REMARK    4  A    between atoms: C_5  and  C_6
REMARK    5  A    between atoms: C_16  and  C_18
REMARK    6  A    between atoms: C_20  and  N_28
REMARK    7  A    between atoms: C_23  and  C_25
REMARK    8  A    between atoms: N_31  and  C_32
REMARK    9  A    between atoms: C_32  and  C_33
REMARK                            x       y       z     vdW  Elec       q    Type
REMARK                         _______ _______ _______ _____ _____    ______ ____
ROOT
ATOM     15  N   UNL     1      -0.620   0.710  24.771  0.00  0.00    -0.196 NA
ATOM     16  C   UNL     1      -0.635   1.521  24.619  0.00  0.00    +0.260 C 
ATOM     17  O   UNL     1      -0.854   1.795  23.872  0.00  0.00    -0.272 OA
ENDROOT
BRANCH  16  18
ATOM     18  C   UNL     1      -0.433   2.056  25.212  0.00  0.00    +0.155 C 
ATOM     19  C   UNL     1       0.247   2.031  25.679  0.00  0.00    +0.053 C 
ATOM     20  C   UNL     1       0.224   2.671  26.198  0.00  0.00    +0.119 C 
ATOM     21  C   UNL     1      -0.470   3.093  26.052  0.00  0.00    +0.115 C 
ATOM     22  N   UNL     1      -0.875   2.714  25.443  0.00  0.00    -0.271 N 
ATOM     23  C   UNL     1      -1.598   2.949  25.121  0.00  0.00    +0.226 C 
ATOM     24  O   UNL     1      -1.940   2.513  24.510  0.00  0.00    -0.275 OA
BRANCH  20  28
ATOM     28  N   UNL     1       0.795   2.857  26.764  0.00  0.00    -0.187 NA
ATOM     29  C   UNL     1       0.740   2.541  27.524  0.00  0.00    +0.340 C 
ATOM     30  O   UNL     1       0.114   2.040  27.719  0.00  0.00    -0.249 OA
ATOM     31  N   UNL     1       1.311   2.727  28.091  0.00  0.00    -0.182 NA
BRANCH  31  32
ATOM     32  C   UNL     1       1.256   2.411  28.851  0.00  0.00    +0.143 C 
BRANCH  32  33
ATOM     33  C   UNL     1       1.819   2.610  29.421  0.00  0.00    -0.003 C 
ATOM     34  C   UNL     1       1.941   2.113  30.068  0.00  0.00    -0.003 C 
ENDBRANCH  32  33
ENDBRANCH  31  32
ENDBRANCH  20  28
BRANCH  23  25
ATOM     25  C   UNL     1      -1.979   3.622  25.410  0.00  0.00    +0.077 C 
ATOM     26  C   UNL     1      -2.547   3.966  25.898  0.00  0.00    +0.010 C 
ATOM     27  C   UNL     1      -2.070   4.441  25.421  0.00  0.00    +0.010 C 
ENDBRANCH  23  25
ENDBRANCH  16  18
BRANCH  15   4
ATOM      4  C   UNL     1      -0.822   0.174  24.178  0.00  0.00    +0.179 C 
BRANCH   4   2
ATOM      1  N   UNL     1      -0.267  -0.007  22.872  0.00  0.00    -0.086 NA
ATOM      2  C   UNL     1      -0.236  -0.138  23.687  0.00  0.00    +0.281 C 
ATOM      3  O   UNL     1       0.379  -0.581  24.009  0.00  0.00    -0.270 OA
ENDBRANCH   4   2
BRANCH   4   5
ATOM      5  C   UNL     1      -1.609  -0.050  24.074  0.00  0.00    +0.059 C 
BRANCH   5   6
ATOM      6  C   UNL     1      -1.923  -0.671  24.516  0.00  0.00    +0.001 A 
ATOM      7  C   UNL     1      -1.516  -1.125  25.073  0.00  0.00    +0.095 A 
ATOM      8  N   UNL     1      -2.041  -1.682  25.380  0.00  0.00    -0.244 NA
ATOM      9  C   UNL     1      -2.772  -1.573  25.014  0.00  0.00    +0.081 A 
ATOM     10  C   UNL     1      -2.700  -0.948  24.480  0.00  0.00    +0.015 A 
ATOM     11  C   UNL     1      -3.349  -0.713  24.029  0.00  0.00    +0.001 A 
ATOM     12  C   UNL     1      -4.072  -1.101  24.113  0.00  0.00    +0.000 A 
ATOM     13  C   UNL     1      -4.145  -1.726  24.647  0.00  0.00    +0.002 A 
ATOM     14  C   UNL     1      -3.494  -1.962  25.098  0.00  0.00    +0.019 A 
ENDBRANCH   5   6
ENDBRANCH   4   5
ENDBRANCH  15   4
TORSDOF 9
ENDMDL
MODEL 9
REMARK VINA RESULT:      -8.9      1.586      4.656
REMARK  Name = 
REMARK  9 active torsions:
REMARK  status: ('A' for Active; 'I' for Inactive)
REMARK    1  A    between atoms: C_2  and  C_4
REMARK    2  A    between atoms: C_4  and  C_5
REMARK    3  A    between atoms: C_4  and  N_15
REMARK    4  A    between atoms: C_5  and  C_6
REMARK    5  A    between atoms: C_16  and  C_18
REMARK    6  A    between atoms: C_20  and  N_28
REMARK    7  A    between atoms: C_23  and  C_25
REMARK    8  A    between atoms: N_31  and  C_32
REMARK    9  A    between atoms: C_32  and  C_33
REMARK                            x       y       z     vdW  Elec       q    Type
REMARK                         _______ _______ _______ _____ _____    ______ ____
ROOT
ATOM     15  N   UNL     1      -2.786   2.614  25.425  0.00  0.00    -0.196 NA
ATOM     16  C   UNL     1      -3.380   2.401  24.894  0.00  0.00    +0.260 C 
ATOM     17  O   UNL     1      -3.541   2.881  24.242  0.00  0.00    -0.272 OA
ENDROOT
BRANCH  16  18
ATOM     18  C   UNL     1      -3.814   1.710  25.014  0.00  0.00    +0.155 C 
ATOM     19  C   UNL     1      -3.504   0.952  25.113  0.00  0.00    +0.053 C 
ATOM     20  C   UNL     1      -4.133   0.430  25.216  0.00  0.00    +0.119 C 
ATOM     21  C   UNL     1      -4.834   0.865  25.180  0.00  0.00    +0.115 C 
ATOM     22  N   UNL     1      -4.637   1.655  25.056  0.00  0.00    -0.271 N 
ATOM     23  C   UNL     1      -5.169   2.282  24.985  0.00  0.00    +0.226 C 
ATOM     24  O   UNL     1      -4.889   3.048  24.860  0.00  0.00    -0.275 OA
BRANCH  20  28
ATOM     28  N   UNL     1      -4.074  -0.385  25.334  0.00  0.00    -0.187 NA
ATOM     29  C   UNL     1      -3.963  -0.887  24.689  0.00  0.00    +0.340 C 
ATOM     30  O   UNL     1      -3.912  -0.576  23.927  0.00  0.00    -0.249 OA
ATOM     31  N   UNL     1      -3.903  -1.702  24.807  0.00  0.00    -0.182 NA
BRANCH  31  32
ATOM     32  C   UNL     1      -3.793  -2.205  24.163  0.00  0.00    +0.143 C 
BRANCH  32  33
ATOM     33  C   UNL     1      -3.714  -3.018  24.282  0.00  0.00    -0.003 C 
ATOM     34  C   UNL     1      -2.978  -3.379  24.190  0.00  0.00    -0.003 C 
ENDBRANCH  32  33
ENDBRANCH  31  32
ENDBRANCH  20  28
BRANCH  23  25
ATOM     25  C   UNL     1      -5.980   2.143  25.038  0.00  0.00    +0.077 C 
ATOM     26  C   UNL     1      -6.694   1.934  24.681  0.00  0.00    +0.010 C 
ATOM     27  C   UNL     1      -6.671   2.112  25.487  0.00  0.00    +0.010 C 
ENDBRANCH  23  25
ENDBRANCH  16  18
BRANCH  15   4
ATOM      4  C   UNL     1      -2.352   3.304  25.305  0.00  0.00    +0.179 C 
BRANCH   4   2
ATOM      1  N   UNL     1      -2.605   4.709  25.219  0.00  0.00    -0.086 NA
ATOM      2  C   UNL     1      -2.595   4.010  25.658  0.00  0.00    +0.281 C 
ATOM      3  O   UNL     1      -2.827   4.017  26.449  0.00  0.00    -0.270 OA
ENDBRANCH   4   2
BRANCH   4   5
ATOM      5  C   UNL     1      -1.676   3.292  24.834  0.00  0.00    +0.059 C 
BRANCH   5   6
ATOM      6  C   UNL     1      -0.981   2.951  25.116  0.00  0.00    +0.001 A 
ATOM      7  C   UNL     1      -0.702   2.991  25.892  0.00  0.00    +0.095 A 
ATOM      8  N   UNL     1       0.009   2.575  25.930  0.00  0.00    -0.244 NA
ATOM      9  C   UNL     1       0.170   2.277  25.177  0.00  0.00    +0.081 A 
ATOM     10  C   UNL     1      -0.442   2.509  24.675  0.00  0.00    +0.015 A 
ATOM     11  C   UNL     1      -0.430   2.288  23.880  0.00  0.00    +0.001 A 
ATOM     12  C   UNL     1       0.195   1.835  23.587  0.00  0.00    +0.000 A 
ATOM     13  C   UNL     1       0.807   1.603  24.090  0.00  0.00    +0.002 A 
ATOM     14  C   UNL     1       0.794   1.824  24.885  0.00  0.00    +0.019 A 
ENDBRANCH   5   6
ENDBRANCH   4   5
ENDBRANCH  15   4
TORSDOF 9
ENDMDL
