MODEL 1
REMARK VINA RESULT:     -11.1      0.000      0.000
REMARK  Name = 
REMARK  4 active torsions:
REMARK  status: ('A' for Active; 'I' for Inactive)
REMARK    1  A    between atoms: C_7  and  N_10
REMARK    2  A    between atoms: C_14  and  C_15
REMARK    3  A    between atoms: C_17  and  C_20
REMARK    4  A    between atoms: C_23  and  C_26
REMARK                            x       y       z     vdW  Elec       q    Type
REMARK                         _______ _______ _______ _____ _____    ______ ____
ROOT
ATOM     15  C   UNL     1      -3.580   2.904  24.966  0.00  0.00    +0.251 A 
ATOM     16  N   UNL     1      -3.548   2.108  25.184  0.00  0.00    -0.190 NA
ATOM     17  C   UNL     1      -3.716   1.654  24.516  0.00  0.00    +0.205 A 
ATOM     18  N   UNL     1      -3.851   2.168  23.886  0.00  0.00    -0.056 NA
ATOM     19  O   UNL     1      -3.768   2.940  24.164  0.00  0.00    -0.336 OA
ENDROOT
BRANCH  17  20
ATOM     20  C   UNL     1      -3.743   0.830  24.484  0.00  0.00    +0.058 A 
ATOM     21  C   UNL     1      -4.254   0.415  24.981  0.00  0.00    +0.006 A 
ATOM     22  C   UNL     1      -4.281  -0.409  24.949  0.00  0.00    +0.019 A 
ATOM     23  C   UNL     1      -3.797  -0.818  24.420  0.00  0.00    +0.084 A 
ATOM     24  N   UNL     1      -3.286  -0.403  23.923  0.00  0.00    -0.244 NA
ATOM     25  C   UNL     1      -3.259   0.421  23.955  0.00  0.00    +0.102 A 
BRANCH  23  26
ATOM     26  C   UNL     1      -3.824  -1.642  24.389  0.00  0.00    +0.056 A 
ATOM     27  C   UNL     1      -4.256  -2.018  23.795  0.00  0.00    +0.104 A 
ATOM     28  N   UNL     1      -4.283  -2.842  23.763  0.00  0.00    -0.222 NA
ATOM     29  C   UNL     1      -3.878  -3.290  24.325  0.00  0.00    +0.199 A 
ATOM     30  N   UNL     1      -3.446  -2.915  24.918  0.00  0.00    -0.222 NA
ATOM     31  C   UNL     1      -3.419  -2.090  24.950  0.00  0.00    +0.104 A 
ENDBRANCH  23  26
ENDBRANCH  17  20
BRANCH  15  14
ATOM     10  N   UNL     1      -2.713   3.829  25.708  0.00  0.00    -0.268 NA
ATOM     11  C   UNL     1      -2.838   4.479  26.200  0.00  0.00    +0.072 C 
ATOM     12  C   UNL     1      -3.652   4.600  26.259  0.00  0.00    +0.019 C 
ATOM     13  C   UNL     1      -4.030   4.025  25.805  0.00  0.00    +0.027 C 
ATOM     14  C   UNL     1      -3.448   3.548  25.464  0.00  0.00    +0.138 C 
BRANCH  10   7
ATOM      1  C   UNL     1       0.561   2.770  24.141  0.00  0.00    +0.095 C 
ATOM      2  C   UNL     1       0.220   2.572  24.865  0.00  0.00    +0.226 C 
ATOM      3  O   UNL     1       0.612   2.059  25.380  0.00  0.00    -0.275 OA
ATOM      4  N   UNL     1      -0.514   2.886  25.076  0.00  0.00    -0.279 N 
ATOM      5  C   UNL     1      -0.854   2.688  25.801  0.00  0.00    +0.095 C 
ATOM      6  C   UNL     1      -1.588   3.002  26.011  0.00  0.00    +0.038 C 
ATOM      7  C   UNL     1      -1.980   3.515  25.497  0.00  0.00    +0.061 C 
ATOM      8  C   UNL     1      -1.638   3.713  24.773  0.00  0.00    +0.038 C 
ATOM      9  C   UNL     1      -0.905   3.399  24.562  0.00  0.00    +0.095 C 
ENDBRANCH  10   7
ENDBRANCH  15  14
TORSDOF 4
ENDMDL
MODEL 2
REMARK VINA RESULT:     -11.0      0.987      1.267
REMARK  Name = 
REMARK  4 active torsions:
REMARK  status: ('A' for Active; 'I' for Inactive)
REMARK    1  A    between atoms: C_7  and  N_10
REMARK    2  A    between atoms: C_14  and  C_15
REMARK    3  A    between atoms: C_17  and  C_20
REMARK    4  A    between atoms: C_23  and  C_26
REMARK                            x       y       z     vdW  Elec       q    Type
REMARK                         _______ _______ _______ _____ _____    ______ ____
ROOT
ATOM     15  C   UNL     1      -4.404   2.565  24.695  0.00  0.00    +0.251 A 
ATOM     16  N   UNL     1      -4.257   1.800  24.966  0.00  0.00    -0.190 NA
ATOM     17  C   UNL     1      -4.000   1.347  24.327  0.00  0.00    +0.205 A 
ATOM     18  N   UNL     1      -3.988   1.832  23.660  0.00  0.00    -0.056 NA
ATOM     19  O   UNL     1      -4.238   2.584  23.887  0.00  0.00    -0.336 OA
ENDROOT
BRANCH  17  20
ATOM     20  C   UNL     1      -3.792   0.549  24.350  0.00  0.00    +0.058 A 
ATOM     21  C   UNL     1      -4.367  -0.023  24.501  0.00  0.00    +0.006 A 
ATOM     22  C   UNL     1      -4.158  -0.821  24.525  0.00  0.00    +0.019 A 
ATOM     23  C   UNL     1      -3.375  -1.047  24.397  0.00  0.00    +0.084 A 
ATOM     24  N   UNL     1      -2.800  -0.475  24.245  0.00  0.00    -0.244 NA
ATOM     25  C   UNL     1      -3.009   0.323  24.222  0.00  0.00    +0.102 A 
BRANCH  23  26
ATOM     26  C   UNL     1      -3.167  -1.845  24.420  0.00  0.00    +0.056 A 
ATOM     27  C   UNL     1      -3.747  -2.425  24.331  0.00  0.00    +0.104 A 
ATOM     28  N   UNL     1      -3.538  -3.224  24.354  0.00  0.00    -0.222 NA
ATOM     29  C   UNL     1      -2.750  -3.441  24.467  0.00  0.00    +0.199 A 
ATOM     30  N   UNL     1      -2.171  -2.861  24.556  0.00  0.00    -0.222 NA
ATOM     31  C   UNL     1      -2.379  -2.063  24.532  0.00  0.00    +0.104 A 
ENDBRANCH  23  26
ENDBRANCH  17  20
BRANCH  15  14
ATOM     10  N   UNL     1      -4.199   3.783  25.490  0.00  0.00    -0.268 NA
ATOM     11  C   UNL     1      -4.691   4.305  25.896  0.00  0.00    +0.072 C 
ATOM     12  C   UNL     1      -5.469   4.042  25.808  0.00  0.00    +0.019 C 
ATOM     13  C   UNL     1      -5.456   3.358  25.347  0.00  0.00    +0.027 C 
ATOM     14  C   UNL     1      -4.670   3.198  25.150  0.00  0.00    +0.138 C 
BRANCH  10   7
ATOM      1  C   UNL     1      -0.570   4.418  24.640  0.00  0.00    +0.095 C 
ATOM      2  C   UNL     1      -0.914   3.999  25.262  0.00  0.00    +0.226 C 
ATOM      3  O   UNL     1      -0.436   3.634  25.827  0.00  0.00    -0.275 OA
ATOM      4  N   UNL     1      -1.735   3.945  25.319  0.00  0.00    -0.279 N 
ATOM      5  C   UNL     1      -2.078   3.526  25.941  0.00  0.00    +0.095 C 
ATOM      6  C   UNL     1      -2.900   3.472  25.998  0.00  0.00    +0.038 C 
ATOM      7  C   UNL     1      -3.378   3.837  25.433  0.00  0.00    +0.061 C 
ATOM      8  C   UNL     1      -3.034   4.256  24.811  0.00  0.00    +0.038 C 
ATOM      9  C   UNL     1      -2.212   4.310  24.754  0.00  0.00    +0.095 C 
ENDBRANCH  10   7
ENDBRANCH  15  14
TORSDOF 4
ENDMDL
MODEL 3
REMARK VINA RESULT:     -11.0      1.375      2.698
REMARK  Name = 
REMARK  4 active torsions:
REMARK  status: ('A' for Active; 'I' for Inactive)
REMARK    1  A    between atoms: C_7  and  N_10
REMARK    2  A    between atoms: C_14  and  C_15
REMARK    3  A    between atoms: C_17  and  C_20
REMARK    4  A    between atoms: C_23  and  C_26
REMARK                            x       y       z     vdW  Elec       q    Type
REMARK                         _______ _______ _______ _____ _____    ______ ____
ROOT
ATOM     15  C   UNL     1      -1.779   2.802  24.278  0.00  0.00    +0.251 A 
ATOM     16  N   UNL     1      -1.899   2.081  24.663  0.00  0.00    -0.190 NA
ATOM     17  C   UNL     1      -2.132   1.526  24.099  0.00  0.00    +0.205 A 
ATOM     18  N   UNL     1      -2.155   1.903  23.366  0.00  0.00    -0.056 NA
ATOM     19  O   UNL     1      -1.938   2.690  23.477  0.00  0.00    -0.336 OA
ENDROOT
BRANCH  17  20
ATOM     20  C   UNL     1      -2.309   0.733  24.243  0.00  0.00    +0.058 A 
ATOM     21  C   UNL     1      -3.066   0.446  24.088  0.00  0.00    +0.006 A 
ATOM     22  C   UNL     1      -3.244  -0.347  24.232  0.00  0.00    +0.019 A 
ATOM     23  C   UNL     1      -2.664  -0.852  24.531  0.00  0.00    +0.084 A 
ATOM     24  N   UNL     1      -1.907  -0.565  24.686  0.00  0.00    -0.244 NA
ATOM     25  C   UNL     1      -1.729   0.229  24.542  0.00  0.00    +0.102 A 
BRANCH  23  26
ATOM     26  C   UNL     1      -2.842  -1.645  24.675  0.00  0.00    +0.056 A 
ATOM     27  C   UNL     1      -3.415  -1.844  25.234  0.00  0.00    +0.104 A 
ATOM     28  N   UNL     1      -3.592  -2.637  25.378  0.00  0.00    -0.222 NA
ATOM     29  C   UNL     1      -3.196  -3.230  24.963  0.00  0.00    +0.199 A 
ATOM     30  N   UNL     1      -2.623  -3.031  24.404  0.00  0.00    -0.222 NA
ATOM     31  C   UNL     1      -2.446  -2.238  24.260  0.00  0.00    +0.104 A 
ENDBRANCH  23  26
ENDBRANCH  17  20
BRANCH  15  14
ATOM     10  N   UNL     1      -2.022   4.013  25.073  0.00  0.00    -0.268 NA
ATOM     11  C   UNL     1      -1.562   4.650  25.323  0.00  0.00    +0.072 C 
ATOM     12  C   UNL     1      -0.796   4.538  25.036  0.00  0.00    +0.019 C 
ATOM     13  C   UNL     1      -0.784   3.831  24.610  0.00  0.00    +0.027 C 
ATOM     14  C   UNL     1      -1.543   3.507  24.633  0.00  0.00    +0.138 C 
BRANCH  10   7
ATOM      1  C   UNL     1      -5.795   3.787  25.169  0.00  0.00    +0.095 C 
ATOM      2  C   UNL     1      -5.226   3.567  25.724  0.00  0.00    +0.226 C 
ATOM      3  O   UNL     1      -5.459   3.234  26.443  0.00  0.00    -0.275 OA
ATOM      4  N   UNL     1      -4.425   3.678  25.562  0.00  0.00    -0.279 N 
ATOM      5  C   UNL     1      -3.857   3.457  26.118  0.00  0.00    +0.095 C 
ATOM      6  C   UNL     1      -3.056   3.568  25.955  0.00  0.00    +0.038 C 
ATOM      7  C   UNL     1      -2.823   3.901  25.236  0.00  0.00    +0.061 C 
ATOM      8  C   UNL     1      -3.392   4.122  24.681  0.00  0.00    +0.038 C 
ATOM      9  C   UNL     1      -4.193   4.010  24.844  0.00  0.00    +0.095 C 
ENDBRANCH  10   7
ENDBRANCH  15  14
TORSDOF 4
ENDMDL
MODEL 4
REMARK VINA RESULT:     -10.7      2.544      4.957
REMARK  Name = 
REMARK  4 active torsions:
REMARK  status: ('A' for Active; 'I' for Inactive)
REMARK    1  A    between atoms: C_7  and  N_10
REMARK    2  A    between atoms: C_14  and  C_15
REMARK    3  A    between atoms: C_17  and  C_20
REMARK    4  A    between atoms: C_23  and  C_26
REMARK                            x       y       z     vdW  Elec       q    Type
REMARK                         _______ _______ _______ _____ _____    ______ ____
ROOT
ATOM     15  C   UNL     1      -2.470   1.144  24.889  0.00  0.00    +0.251 A 
ATOM     16  N   UNL     1      -1.917   1.079  24.279  0.00  0.00    -0.190 NA
ATOM     17  C   UNL     1      -1.191   0.875  24.613  0.00  0.00    +0.205 A 
ATOM     18  N   UNL     1      -1.295   0.813  25.429  0.00  0.00    -0.056 NA
ATOM     19  O   UNL     1      -2.083   0.979  25.599  0.00  0.00    -0.336 OA
ENDROOT
BRANCH  17  20
ATOM     20  C   UNL     1      -0.486   0.754  24.203  0.00  0.00    +0.058 A 
ATOM     21  C   UNL     1      -0.285  -0.003  23.942  0.00  0.00    +0.006 A 
ATOM     22  C   UNL     1       0.421  -0.124  23.532  0.00  0.00    +0.019 A 
ATOM     23  C   UNL     1       0.925   0.511  23.382  0.00  0.00    +0.084 A 
ATOM     24  N   UNL     1       0.724   1.268  23.642  0.00  0.00    -0.244 NA
ATOM     25  C   UNL     1       0.019   1.389  24.053  0.00  0.00    +0.102 A 
BRANCH  23  26
ATOM     26  C   UNL     1       1.631   0.390  22.972  0.00  0.00    +0.056 A 
ATOM     27  C   UNL     1       1.637  -0.079  22.293  0.00  0.00    +0.104 A 
ATOM     28  N   UNL     1       2.343  -0.200  21.883  0.00  0.00    -0.222 NA
ATOM     29  C   UNL     1       3.041   0.148  22.151  0.00  0.00    +0.199 A 
ATOM     30  N   UNL     1       3.034   0.617  22.829  0.00  0.00    -0.222 NA
ATOM     31  C   UNL     1       2.329   0.739  23.240  0.00  0.00    +0.104 A 
ENDBRANCH  23  26
ENDBRANCH  17  20
BRANCH  15  14
ATOM     10  N   UNL     1      -3.891   0.805  24.737  0.00  0.00    -0.268 NA
ATOM     11  C   UNL     1      -4.590   1.237  24.661  0.00  0.00    +0.072 C 
ATOM     12  C   UNL     1      -4.396   2.039  24.681  0.00  0.00    +0.019 C 
ATOM     13  C   UNL     1      -3.578   2.102  24.769  0.00  0.00    +0.027 C 
ATOM     14  C   UNL     1      -3.266   1.338  24.804  0.00  0.00    +0.138 C 
BRANCH  10   7
ATOM      1  C   UNL     1      -3.645  -2.907  24.059  0.00  0.00    +0.095 C 
ATOM      2  C   UNL     1      -3.642  -2.486  24.768  0.00  0.00    +0.226 C 
ATOM      3  O   UNL     1      -3.575  -2.888  25.486  0.00  0.00    -0.275 OA
ATOM      4  N   UNL     1      -3.704  -1.663  24.760  0.00  0.00    -0.279 N 
ATOM      5  C   UNL     1      -3.700  -1.243  25.471  0.00  0.00    +0.095 C 
ATOM      6  C   UNL     1      -3.762  -0.420  25.463  0.00  0.00    +0.038 C 
ATOM      7  C   UNL     1      -3.829  -0.018  24.745  0.00  0.00    +0.061 C 
ATOM      8  C   UNL     1      -3.832  -0.439  24.036  0.00  0.00    +0.038 C 
ATOM      9  C   UNL     1      -3.770  -1.262  24.044  0.00  0.00    +0.095 C 
ENDBRANCH  10   7
ENDBRANCH  15  14
TORSDOF 4
ENDMDL
MODEL 5
REMARK VINA RESULT:     -10.2      2.374      4.995
REMARK  Name = 
REMARK  4 active torsions:
REMARK  status: ('A' for Active; 'I' for Inactive)
REMARK    1  A    between atoms: C_7  and  N_10
REMARK    2  A    between atoms: C_14  and  C_15
REMARK    3  A    between atoms: C_17  and  C_20
REMARK    4  A    between atoms: C_23  and  C_26
REMARK                            x       y       z     vdW  Elec       q    Type
REMARK                         _______ _______ _______ _____ _____    ______ ____
ROOT
ATOM     15  C   UNL     1      -2.473  -0.461  24.633  0.00  0.00    +0.251 A 
ATOM     16  N   UNL     1      -1.863  -0.419  24.078  0.00  0.00    -0.190 NA
ATOM     17  C   UNL     1      -1.187  -0.146  24.463  0.00  0.00    +0.205 A 
ATOM     18  N   UNL     1      -1.378  -0.019  25.255  0.00  0.00    -0.056 NA
ATOM     19  O   UNL     1      -2.172  -0.213  25.359  0.00  0.00    -0.336 OA
ENDROOT
BRANCH  17  20
ATOM     20  C   UNL     1      -0.448  -0.021  24.116  0.00  0.00    +0.058 A 
ATOM     21  C   UNL     1      -0.188   0.747  23.966  0.00  0.00    +0.006 A 
ATOM     22  C   UNL     1       0.551   0.872  23.620  0.00  0.00    +0.019 A 
ATOM     23  C   UNL     1       1.028   0.229  23.423  0.00  0.00    +0.084 A 
ATOM     24  N   UNL     1       0.767  -0.540  23.573  0.00  0.00    -0.244 NA
ATOM     25  C   UNL     1       0.029  -0.664  23.920  0.00  0.00    +0.102 A 
BRANCH  23  26
ATOM     26  C   UNL     1       1.766   0.353  23.076  0.00  0.00    +0.056 A 
ATOM     27  C   UNL     1       1.979  -0.065  22.398  0.00  0.00    +0.104 A 
ATOM     28  N   UNL     1       2.717   0.059  22.051  0.00  0.00    -0.222 NA
ATOM     29  C   UNL     1       3.243   0.602  22.383  0.00  0.00    +0.199 A 
ATOM     30  N   UNL     1       3.030   1.020  23.061  0.00  0.00    -0.222 NA
ATOM     31  C   UNL     1       2.292   0.896  23.408  0.00  0.00    +0.104 A 
ENDBRANCH  23  26
ENDBRANCH  17  20
BRANCH  15  14
ATOM     10  N   UNL     1      -3.896  -0.215  24.364  0.00  0.00    -0.268 NA
ATOM     11  C   UNL     1      -4.558  -0.692  24.237  0.00  0.00    +0.072 C 
ATOM     12  C   UNL     1      -4.315  -1.480  24.280  0.00  0.00    +0.019 C 
ATOM     13  C   UNL     1      -3.505  -1.489  24.433  0.00  0.00    +0.027 C 
ATOM     14  C   UNL     1      -3.246  -0.707  24.485  0.00  0.00    +0.138 C 
BRANCH  10   7
ATOM      1  C   UNL     1      -4.019   3.495  25.082  0.00  0.00    +0.095 C 
ATOM      2  C   UNL     1      -3.862   3.084  24.384  0.00  0.00    +0.226 C 
ATOM      3  O   UNL     1      -3.696   3.500  23.691  0.00  0.00    -0.275 OA
ATOM      4  N   UNL     1      -3.870   2.259  24.379  0.00  0.00    -0.279 N 
ATOM      5  C   UNL     1      -3.713   1.850  23.680  0.00  0.00    +0.095 C 
ATOM      6  C   UNL     1      -3.721   1.025  23.675  0.00  0.00    +0.038 C 
ATOM      7  C   UNL     1      -3.888   0.609  24.369  0.00  0.00    +0.061 C 
ATOM      8  C   UNL     1      -4.045   1.020  25.067  0.00  0.00    +0.038 C 
ATOM      9  C   UNL     1      -4.036   1.845  25.072  0.00  0.00    +0.095 C 
ENDBRANCH  10   7
ENDBRANCH  15  14
TORSDOF 4
ENDMDL
MODEL 6
REMARK VINA RESULT:      -8.6     17.528     19.090
REMARK  Name = 
REMARK  4 active torsions:
REMARK  status: ('A' for Active; 'I' for Inactive)
REMARK    1  A    between atoms: C_7  and  N_10
REMARK    2  A    between atoms: C_14  and  C_15
REMARK    3  A    between atoms: C_17  and  C_20
REMARK    4  A    between atoms: C_23  and  C_26
REMARK                            x       y       z     vdW  Elec       q    Type
REMARK                         _______ _______ _______ _____ _____    ______ ____
ROOT
ATOM     15  C   UNL     1      13.954   7.940  20.794  0.00  0.00    +0.251 A 
ATOM     16  N   UNL     1      13.667   8.346  20.134  0.00  0.00    -0.190 NA
ATOM     17  C   UNL     1      13.181   7.832  19.710  0.00  0.00    +0.205 A 
ATOM     18  N   UNL     1      13.166   7.109  20.107  0.00  0.00    -0.056 NA
ATOM     19  O   UNL     1      13.643   7.176  20.776  0.00  0.00    -0.336 OA
ENDROOT
BRANCH  17  20
ATOM     20  C   UNL     1      12.779   8.009  19.012  0.00  0.00    +0.058 A 
ATOM     21  C   UNL     1      12.324   8.696  18.962  0.00  0.00    +0.006 A 
ATOM     22  C   UNL     1      11.922   8.874  18.263  0.00  0.00    +0.019 A 
ATOM     23  C   UNL     1      11.975   8.365  17.615  0.00  0.00    +0.084 A 
ATOM     24  N   UNL     1      12.431   7.679  17.666  0.00  0.00    -0.244 NA
ATOM     25  C   UNL     1      12.832   7.501  18.364  0.00  0.00    +0.102 A 
BRANCH  23  26
ATOM     26  C   UNL     1      11.574   8.543  16.917  0.00  0.00    +0.056 A 
ATOM     27  C   UNL     1      10.776   8.349  16.839  0.00  0.00    +0.104 A 
ATOM     28  N   UNL     1      10.374   8.527  16.141  0.00  0.00    -0.222 NA
ATOM     29  C   UNL     1      10.770   8.899  15.520  0.00  0.00    +0.199 A 
ATOM     30  N   UNL     1      11.568   9.093  15.598  0.00  0.00    -0.222 NA
ATOM     31  C   UNL     1      11.970   8.916  16.296  0.00  0.00    +0.104 A 
ENDBRANCH  23  26
ENDBRANCH  17  20
BRANCH  15  14
ATOM     10  N   UNL     1      15.267   8.091  21.434  0.00  0.00    -0.268 NA
ATOM     11  C   UNL     1      15.556   8.509  22.084  0.00  0.00    +0.072 C 
ATOM     12  C   UNL     1      14.926   8.922  22.420  0.00  0.00    +0.019 C 
ATOM     13  C   UNL     1      14.249   8.760  21.978  0.00  0.00    +0.027 C 
ATOM     14  C   UNL     1      14.460   8.246  21.368  0.00  0.00    +0.138 C 
BRANCH  10   7
ATOM      1  C   UNL     1      17.122   5.341  19.619  0.00  0.00    +0.095 C 
ATOM      2  C   UNL     1      17.037   6.142  19.443  0.00  0.00    +0.226 C 
ATOM      3  O   UNL     1      17.395   6.457  18.769  0.00  0.00    -0.275 OA
ATOM      4  N   UNL     1      16.594   6.630  19.941  0.00  0.00    -0.279 N 
ATOM      5  C   UNL     1      16.510   7.431  19.764  0.00  0.00    +0.095 C 
ATOM      6  C   UNL     1      16.068   7.918  20.262  0.00  0.00    +0.038 C 
ATOM      7  C   UNL     1      15.710   7.604  20.936  0.00  0.00    +0.061 C 
ATOM      8  C   UNL     1      15.795   6.803  21.112  0.00  0.00    +0.038 C 
ATOM      9  C   UNL     1      16.237   6.315  20.614  0.00  0.00    +0.095 C 
ENDBRANCH  10   7
ENDBRANCH  15  14
TORSDOF 4
ENDMDL
MODEL 7
REMARK VINA RESULT:      -8.3     15.848     18.331
REMARK  Name = 
REMARK  4 active torsions:
REMARK  status: ('A' for Active; 'I' for Inactive)
REMARK    1  A    between atoms: C_7  and  N_10
REMARK    2  A    between atoms: C_14  and  C_15
REMARK    3  A    between atoms: C_17  and  C_20
REMARK    4  A    between atoms: C_23  and  C_26
REMARK                            x       y       z     vdW  Elec       q    Type
REMARK                         _______ _______ _______ _____ _____    ______ ____
ROOT
ATOM     15  C   UNL     1      14.354   7.841  20.350  0.00  0.00    +0.251 A 
ATOM     16  N   UNL     1      13.894   8.282  19.826  0.00  0.00    -0.190 NA
ATOM     17  C   UNL     1      13.685   7.793  19.195  0.00  0.00    +0.205 A 
ATOM     18  N   UNL     1      14.015   7.050  19.330  0.00  0.00    -0.056 NA
ATOM     19  O   UNL     1      14.428   7.079  20.043  0.00  0.00    -0.336 OA
ENDROOT
BRANCH  17  20
ATOM     20  C   UNL     1      13.227   8.010  18.544  0.00  0.00    +0.058 A 
ATOM     21  C   UNL     1      13.288   8.771  18.233  0.00  0.00    +0.006 A 
ATOM     22  C   UNL     1      12.829   8.988  17.582  0.00  0.00    +0.019 A 
ATOM     23  C   UNL     1      12.310   8.443  17.243  0.00  0.00    +0.084 A 
ATOM     24  N   UNL     1      12.249   7.682  17.555  0.00  0.00    -0.244 NA
ATOM     25  C   UNL     1      12.708   7.465  18.206  0.00  0.00    +0.102 A 
BRANCH  23  26
ATOM     26  C   UNL     1      11.851   8.660  16.592  0.00  0.00    +0.056 A 
ATOM     27  C   UNL     1      12.216   8.877  15.885  0.00  0.00    +0.104 A 
ATOM     28  N   UNL     1      11.757   9.094  15.234  0.00  0.00    -0.222 NA
ATOM     29  C   UNL     1      10.934   9.093  15.291  0.00  0.00    +0.199 A 
ATOM     30  N   UNL     1      10.569   8.875  15.998  0.00  0.00    -0.222 NA
ATOM     31  C   UNL     1      11.028   8.659  16.649  0.00  0.00    +0.104 A 
ENDBRANCH  23  26
ENDBRANCH  17  20
BRANCH  15  14
ATOM     10  N   UNL     1      14.266   8.283  21.748  0.00  0.00    -0.268 NA
ATOM     11  C   UNL     1      14.808   8.539  22.315  0.00  0.00    +0.072 C 
ATOM     12  C   UNL     1      15.559   8.529  21.972  0.00  0.00    +0.019 C 
ATOM     13  C   UNL     1      15.480   8.266  21.194  0.00  0.00    +0.027 C 
ATOM     14  C   UNL     1      14.680   8.114  21.056  0.00  0.00    +0.138 C 
BRANCH  10   7
ATOM      1  C   UNL     1      10.533   8.659  22.213  0.00  0.00    +0.095 C 
ATOM      2  C   UNL     1      11.008   7.986  22.179  0.00  0.00    +0.226 C 
ATOM      3  O   UNL     1      10.668   7.237  22.253  0.00  0.00    -0.275 OA
ATOM      4  N   UNL     1      11.823   8.060  22.071  0.00  0.00    -0.279 N 
ATOM      5  C   UNL     1      12.297   7.386  22.037  0.00  0.00    +0.095 C 
ATOM      6  C   UNL     1      13.111   7.460  21.930  0.00  0.00    +0.038 C 
ATOM      7  C   UNL     1      13.452   8.209  21.856  0.00  0.00    +0.061 C 
ATOM      8  C   UNL     1      12.976   8.882  21.890  0.00  0.00    +0.038 C 
ATOM      9  C   UNL     1      12.162   8.808  21.997  0.00  0.00    +0.095 C 
ENDBRANCH  10   7
ENDBRANCH  15  14
TORSDOF 4
ENDMDL
MODEL 8
REMARK VINA RESULT:      -8.2     15.263     18.318
REMARK  Name = 
REMARK  4 active torsions:
REMARK  status: ('A' for Active; 'I' for Inactive)
REMARK    1  A    between atoms: C_7  and  N_10
REMARK    2  A    between atoms: C_14  and  C_15
REMARK    3  A    between atoms: C_17  and  C_20
REMARK    4  A    between atoms: C_23  and  C_26
REMARK                            x       y       z     vdW  Elec       q    Type
REMARK                         _______ _______ _______ _____ _____    ______ ____
ROOT
ATOM     15  C   UNL     1      12.772   8.027  17.690  0.00  0.00    +0.251 A 
ATOM     16  N   UNL     1      12.634   8.353  18.435  0.00  0.00    -0.190 NA
ATOM     17  C   UNL     1      12.092   7.871  18.828  0.00  0.00    +0.205 A 
ATOM     18  N   UNL     1      11.896   7.247  18.326  0.00  0.00    -0.056 NA
ATOM     19  O   UNL     1      12.316   7.343  17.624  0.00  0.00    -0.336 OA
ENDROOT
BRANCH  17  20
ATOM     20  C   UNL     1      11.798   7.992  19.590  0.00  0.00    +0.058 A 
ATOM     21  C   UNL     1      11.263   8.604  19.732  0.00  0.00    +0.006 A 
ATOM     22  C   UNL     1      10.969   8.726  20.494  0.00  0.00    +0.019 A 
ATOM     23  C   UNL     1      11.209   8.235  21.112  0.00  0.00    +0.084 A 
ATOM     24  N   UNL     1      11.744   7.623  20.969  0.00  0.00    -0.244 NA
ATOM     25  C   UNL     1      12.038   7.502  20.207  0.00  0.00    +0.102 A 
BRANCH  23  26
ATOM     26  C   UNL     1      10.915   8.356  21.873  0.00  0.00    +0.056 A 
ATOM     27  C   UNL     1      11.216   8.967  22.339  0.00  0.00    +0.104 A 
ATOM     28  N   UNL     1      10.922   9.088  23.100  0.00  0.00    -0.222 NA
ATOM     29  C   UNL     1      10.328   8.598  23.396  0.00  0.00    +0.199 A 
ATOM     30  N   UNL     1      10.027   7.987  22.930  0.00  0.00    -0.222 NA
ATOM     31  C   UNL     1      10.321   7.866  22.169  0.00  0.00    +0.104 A 
ENDBRANCH  23  26
ENDBRANCH  17  20
BRANCH  15  14
ATOM     10  N   UNL     1      14.099   8.261  17.105  0.00  0.00    -0.268 NA
ATOM     11  C   UNL     1      14.382   8.645  16.432  0.00  0.00    +0.072 C 
ATOM     12  C   UNL     1      13.733   8.953  16.024  0.00  0.00    +0.019 C 
ATOM     13  C   UNL     1      13.051   8.759  16.446  0.00  0.00    +0.027 C 
ATOM     14  C   UNL     1      13.278   8.331  17.114  0.00  0.00    +0.138 C 
BRANCH  10   7
ATOM      1  C   UNL     1      16.204   7.120  20.031  0.00  0.00    +0.095 C 
ATOM      2  C   UNL     1      15.939   6.712  19.365  0.00  0.00    +0.226 C 
ATOM      3  O   UNL     1      16.133   5.916  19.264  0.00  0.00    -0.275 OA
ATOM      4  N   UNL     1      15.479   7.100  18.800  0.00  0.00    -0.279 N 
ATOM      5  C   UNL     1      15.214   6.690  18.134  0.00  0.00    +0.095 C 
ATOM      6  C   UNL     1      14.754   7.078  17.569  0.00  0.00    +0.038 C 
ATOM      7  C   UNL     1      14.559   7.874  17.670  0.00  0.00    +0.061 C 
ATOM      8  C   UNL     1      14.825   8.281  18.336  0.00  0.00    +0.038 C 
ATOM      9  C   UNL     1      15.285   7.894  18.901  0.00  0.00    +0.095 C 
ENDBRANCH  10   7
ENDBRANCH  15  14
TORSDOF 4
ENDMDL
MODEL 9
REMARK VINA RESULT:      -7.6     16.001     18.523
REMARK  Name = 
REMARK  4 active torsions:
REMARK  status: ('A' for Active; 'I' for Inactive)
REMARK    1  A    between atoms: C_7  and  N_10
REMARK    2  A    between atoms: C_14  and  C_15
REMARK    3  A    between atoms: C_17  and  C_20
REMARK    4  A    between atoms: C_23  and  C_26
REMARK                            x       y       z     vdW  Elec       q    Type
REMARK                         _______ _______ _______ _____ _____    ______ ____
ROOT
ATOM     15  C   UNL     1      11.861   7.527  20.363  0.00  0.00    +0.251 A 
ATOM     16  N   UNL     1      12.188   8.011  19.780  0.00  0.00    -0.190 NA
ATOM     17  C   UNL     1      12.358   7.541  19.124  0.00  0.00    +0.205 A 
ATOM     18  N   UNL     1      12.135   6.767  19.301  0.00  0.00    -0.056 NA
ATOM     19  O   UNL     1      11.829   6.759  20.066  0.00  0.00    -0.336 OA
ENDROOT
BRANCH  17  20
ATOM     20  C   UNL     1      12.691   7.800  18.414  0.00  0.00    +0.058 A 
ATOM     21  C   UNL     1      13.376   7.441  18.126  0.00  0.00    +0.006 A 
ATOM     22  C   UNL     1      13.709   7.700  17.417  0.00  0.00    +0.019 A 
ATOM     23  C   UNL     1      13.357   8.317  16.997  0.00  0.00    +0.084 A 
ATOM     24  N   UNL     1      12.673   8.676  17.285  0.00  0.00    -0.244 NA
ATOM     25  C   UNL     1      12.339   8.417  17.994  0.00  0.00    +0.102 A 
BRANCH  23  26
ATOM     26  C   UNL     1      13.691   8.576  16.287  0.00  0.00    +0.056 A 
ATOM     27  C   UNL     1      14.511   8.627  16.212  0.00  0.00    +0.104 A 
ATOM     28  N   UNL     1      14.844   8.885  15.502  0.00  0.00    -0.222 NA
ATOM     29  C   UNL     1      14.357   9.094  14.870  0.00  0.00    +0.199 A 
ATOM     30  N   UNL     1      13.537   9.043  14.945  0.00  0.00    -0.222 NA
ATOM     31  C   UNL     1      13.204   8.784  15.655  0.00  0.00    +0.104 A 
ENDBRANCH  23  26
ENDBRANCH  17  20
BRANCH  15  14
ATOM     10  N   UNL     1      12.099   7.974  21.742  0.00  0.00    -0.268 NA
ATOM     11  C   UNL     1      11.619   8.182  22.380  0.00  0.00    +0.072 C 
ATOM     12  C   UNL     1      10.833   8.106  22.141  0.00  0.00    +0.019 C 
ATOM     13  C   UNL     1      10.828   7.852  21.357  0.00  0.00    +0.027 C 
ATOM     14  C   UNL     1      11.611   7.770  21.110  0.00  0.00    +0.138 C 
BRANCH  10   7
ATOM      1  C   UNL     1      15.814   8.666  21.617  0.00  0.00    +0.095 C 
ATOM      2  C   UNL     1      15.399   7.961  21.725  0.00  0.00    +0.226 C 
ATOM      3  O   UNL     1      15.810   7.252  21.829  0.00  0.00    -0.275 OA
ATOM      4  N   UNL     1      14.574   7.964  21.729  0.00  0.00    -0.279 N 
ATOM      5  C   UNL     1      14.160   7.259  21.837  0.00  0.00    +0.095 C 
ATOM      6  C   UNL     1      13.335   7.262  21.841  0.00  0.00    +0.038 C 
ATOM      7  C   UNL     1      12.924   7.971  21.738  0.00  0.00    +0.061 C 
ATOM      8  C   UNL     1      13.339   8.675  21.629  0.00  0.00    +0.038 C 
ATOM      9  C   UNL     1      14.164   8.672  21.625  0.00  0.00    +0.095 C 
ENDBRANCH  10   7
ENDBRANCH  15  14
TORSDOF 4
ENDMDL
