MODEL 1
REMARK VINA RESULT:     -11.5      0.000      0.000
REMARK  Name = 
REMARK  6 active torsions:
REMARK  status: ('A' for Active; 'I' for Inactive)
REMARK    1  A    between atoms: S_2  and  N_5
REMARK    2  A    between atoms: N_5  and  C_6
REMARK    3  A    between atoms: C_9  and  C_12
REMARK    4  A    between atoms: C_12  and  C_14
REMARK    5  A    between atoms: N_20  and  C_21
REMARK    6  A    between atoms: C_21  and  C_22
REMARK                            x       y       z     vdW  Elec       q    Type
REMARK                         _______ _______ _______ _____ _____    ______ ____
ROOT
ATOM     14  C   UNL     1      -4.376   1.765  24.791  0.00  0.00    +0.139 C 
ATOM     15  C   UNL     1      -5.037   1.474  25.191  0.00  0.00    +0.165 C 
ATOM     16  O   UNL     1      -5.494   1.981  25.655  0.00  0.00    -0.343 OA
ATOM     17  C   UNL     1      -5.290   2.778  25.720  0.00  0.00    +0.227 C 
ATOM     18  C   UNL     1      -4.629   3.068  25.321  0.00  0.00    +0.256 C 
ATOM     19  O   UNL     1      -4.424   3.864  25.385  0.00  0.00    -0.272 OA
ATOM     20  N   UNL     1      -4.172   2.562  24.856  0.00  0.00    -0.274 N 
ENDROOT
BRANCH  14  12
ATOM     12  C   UNL     1      -3.919   1.258  24.327  0.00  0.00    +0.195 C 
ATOM     13  O   UNL     1      -3.532   1.549  23.659  0.00  0.00    -0.216 OA
BRANCH  12   9
ATOM      6  C   UNL     1      -3.711  -1.131  24.937  0.00  0.00    +0.091 A 
ATOM      7  C   UNL     1      -4.240  -0.901  24.347  0.00  0.00    +0.018 A 
ATOM      8  C   UNL     1      -4.309  -0.104  24.143  0.00  0.00    -0.000 A 
ATOM      9  C   UNL     1      -3.850   0.462  24.530  0.00  0.00    +0.010 A 
ATOM     10  C   UNL     1      -3.322   0.231  25.120  0.00  0.00    -0.000 A 
ATOM     11  C   UNL     1      -3.253  -0.565  25.324  0.00  0.00    +0.018 A 
BRANCH   6   5
ATOM      5  N   UNL     1      -3.642  -1.928  25.141  0.00  0.00    -0.101 NA
BRANCH   5   2
ATOM      1  C   UNL     1      -2.670  -2.923  24.256  0.00  0.00    +0.202 C 
ATOM      2  S   UNL     1      -3.156  -2.426  24.699  0.00  0.00    +0.075 S 
ATOM      3  O   UNL     1      -2.504  -2.182  25.142  0.00  0.00    -0.153 OA
ATOM      4  O   UNL     1      -3.809  -2.669  24.256  0.00  0.00    -0.153 OA
ENDBRANCH   5   2
ENDBRANCH   6   5
ENDBRANCH  12   9
ENDBRANCH  14  12
BRANCH  20  21
ATOM     21  C   UNL     1      -3.511   2.852  24.457  0.00  0.00    +0.094 C 
BRANCH  21  22
ATOM     22  C   UNL     1      -2.942   3.288  24.864  0.00  0.00    +0.020 C 
ATOM     23  C   UNL     1      -2.482   2.926  25.446  0.00  0.00    +0.002 C 
ATOM     24  C   UNL     1      -1.913   3.363  25.852  0.00  0.00    +0.000 C 
ATOM     25  C   UNL     1      -1.803   4.162  25.677  0.00  0.00    +0.000 C 
ATOM     26  C   UNL     1      -2.263   4.524  25.096  0.00  0.00    +0.000 C 
ATOM     27  C   UNL     1      -2.833   4.087  24.689  0.00  0.00    +0.002 C 
ENDBRANCH  21  22
ENDBRANCH  20  21
TORSDOF 6
ENDMDL
MODEL 2
REMARK VINA RESULT:     -10.8      1.112      1.824
REMARK  Name = 
REMARK  6 active torsions:
REMARK  status: ('A' for Active; 'I' for Inactive)
REMARK    1  A    between atoms: S_2  and  N_5
REMARK    2  A    between atoms: N_5  and  C_6
REMARK    3  A    between atoms: C_9  and  C_12
REMARK    4  A    between atoms: C_12  and  C_14
REMARK    5  A    between atoms: N_20  and  C_21
REMARK    6  A    between atoms: C_21  and  C_22
REMARK                            x       y       z     vdW  Elec       q    Type
REMARK                         _______ _______ _______ _____ _____    ______ ____
ROOT
ATOM     14  C   UNL     1      -3.023   1.550  24.013  0.00  0.00    +0.139 C 
ATOM     15  C   UNL     1      -3.227   1.335  23.243  0.00  0.00    +0.165 C 
ATOM     16  O   UNL     1      -2.781   1.611  22.606  0.00  0.00    -0.343 OA
ATOM     17  C   UNL     1      -2.131   2.101  22.738  0.00  0.00    +0.227 C 
ATOM     18  C   UNL     1      -1.927   2.315  23.508  0.00  0.00    +0.256 C 
ATOM     19  O   UNL     1      -1.276   2.805  23.641  0.00  0.00    -0.272 OA
ATOM     20  N   UNL     1      -2.372   2.040  24.145  0.00  0.00    -0.274 N 
ENDROOT
BRANCH  14  12
ATOM     12  C   UNL     1      -3.469   1.274  24.651  0.00  0.00    +0.195 C 
ATOM     13  O   UNL     1      -3.842   1.811  25.154  0.00  0.00    -0.216 OA
BRANCH  12   9
ATOM      6  C   UNL     1      -3.685  -1.157  25.051  0.00  0.00    +0.091 A 
ATOM      7  C   UNL     1      -4.252  -0.762  24.600  0.00  0.00    +0.018 A 
ATOM      8  C   UNL     1      -4.180   0.049  24.466  0.00  0.00    -0.000 A 
ATOM      9  C   UNL     1      -3.541   0.464  24.784  0.00  0.00    +0.010 A 
ATOM     10  C   UNL     1      -2.975   0.068  25.235  0.00  0.00    -0.000 A 
ATOM     11  C   UNL     1      -3.047  -0.743  25.368  0.00  0.00    +0.018 A 
BRANCH   6   5
ATOM      5  N   UNL     1      -3.757  -1.969  25.184  0.00  0.00    -0.101 NA
BRANCH   5   2
ATOM      1  C   UNL     1      -3.072  -3.041  24.135  0.00  0.00    +0.202 C 
ATOM      2  S   UNL     1      -3.415  -2.505  24.660  0.00  0.00    +0.075 S 
ATOM      3  O   UNL     1      -2.721  -2.498  25.106  0.00  0.00    -0.153 OA
ATOM      4  O   UNL     1      -4.109  -2.512  24.213  0.00  0.00    -0.153 OA
ENDBRANCH   5   2
ENDBRANCH   6   5
ENDBRANCH  12   9
ENDBRANCH  14  12
BRANCH  20  21
ATOM     21  C   UNL     1      -2.167   2.254  24.914  0.00  0.00    +0.094 C 
BRANCH  21  22
ATOM     22  C   UNL     1      -2.029   3.046  25.100  0.00  0.00    +0.020 C 
ATOM     23  C   UNL     1      -2.649   3.590  25.079  0.00  0.00    +0.002 C 
ATOM     24  C   UNL     1      -2.511   4.381  25.264  0.00  0.00    +0.000 C 
ATOM     25  C   UNL     1      -1.751   4.630  25.470  0.00  0.00    +0.000 C 
ATOM     26  C   UNL     1      -1.131   4.087  25.491  0.00  0.00    +0.000 C 
ATOM     27  C   UNL     1      -1.270   3.294  25.306  0.00  0.00    +0.002 C 
ENDBRANCH  21  22
ENDBRANCH  20  21
TORSDOF 6
ENDMDL
MODEL 3
REMARK VINA RESULT:     -10.7      2.016      4.646
REMARK  Name = 
REMARK  6 active torsions:
REMARK  status: ('A' for Active; 'I' for Inactive)
REMARK    1  A    between atoms: S_2  and  N_5
REMARK    2  A    between atoms: N_5  and  C_6
REMARK    3  A    between atoms: C_9  and  C_12
REMARK    4  A    between atoms: C_12  and  C_14
REMARK    5  A    between atoms: N_20  and  C_21
REMARK    6  A    between atoms: C_21  and  C_22
REMARK                            x       y       z     vdW  Elec       q    Type
REMARK                         _______ _______ _______ _____ _____    ______ ____
ROOT
ATOM     14  C   UNL     1      -4.169   1.775  24.543  0.00  0.00    +0.139 C 
ATOM     15  C   UNL     1      -4.811   2.291  24.497  0.00  0.00    +0.165 C 
ATOM     16  O   UNL     1      -5.538   2.074  24.824  0.00  0.00    -0.343 OA
ATOM     17  C   UNL     1      -5.621   1.344  25.196  0.00  0.00    +0.227 C 
ATOM     18  C   UNL     1      -4.979   0.828  25.242  0.00  0.00    +0.256 C 
ATOM     19  O   UNL     1      -5.062   0.097  25.614  0.00  0.00    -0.272 OA
ATOM     20  N   UNL     1      -4.253   1.043  24.916  0.00  0.00    -0.274 N 
ENDROOT
BRANCH  14  12
ATOM     12  C   UNL     1      -3.442   1.991  24.216  0.00  0.00    +0.195 C 
ATOM     13  O   UNL     1      -3.155   1.594  23.553  0.00  0.00    -0.216 OA
BRANCH  12   9
ATOM      6  C   UNL     1      -2.128   3.828  25.226  0.00  0.00    +0.091 A 
ATOM      7  C   UNL     1      -2.778   4.001  24.748  0.00  0.00    +0.018 A 
ATOM      8  C   UNL     1      -3.217   3.388  24.412  0.00  0.00    -0.000 A 
ATOM      9  C   UNL     1      -3.004   2.603  24.552  0.00  0.00    +0.010 A 
ATOM     10  C   UNL     1      -2.354   2.431  25.029  0.00  0.00    -0.000 A 
ATOM     11  C   UNL     1      -1.915   3.044  25.366  0.00  0.00    +0.018 A 
BRANCH   6   5
ATOM      5  N   UNL     1      -1.689   4.441  25.563  0.00  0.00    -0.101 NA
BRANCH   5   2
ATOM      1  C   UNL     1      -0.601   5.275  24.647  0.00  0.00    +0.202 C 
ATOM      2  S   UNL     1      -1.145   4.858  25.105  0.00  0.00    +0.075 S 
ATOM      3  O   UNL     1      -0.608   4.236  25.176  0.00  0.00    -0.153 OA
ATOM      4  O   UNL     1      -1.683   5.481  25.034  0.00  0.00    -0.153 OA
ENDBRANCH   5   2
ENDBRANCH   6   5
ENDBRANCH  12   9
ENDBRANCH  14  12
BRANCH  20  21
ATOM     21  C   UNL     1      -3.611   0.528  24.961  0.00  0.00    +0.094 C 
BRANCH  21  22
ATOM     22  C   UNL     1      -3.704  -0.267  24.762  0.00  0.00    +0.020 C 
ATOM     23  C   UNL     1      -3.953  -0.476  24.003  0.00  0.00    +0.002 C 
ATOM     24  C   UNL     1      -4.046  -1.270  23.805  0.00  0.00    +0.000 C 
ATOM     25  C   UNL     1      -3.891  -1.857  24.364  0.00  0.00    +0.000 C 
ATOM     26  C   UNL     1      -3.642  -1.648  25.122  0.00  0.00    +0.000 C 
ATOM     27  C   UNL     1      -3.549  -0.852  25.321  0.00  0.00    +0.002 C 
ENDBRANCH  21  22
ENDBRANCH  20  21
TORSDOF 6
ENDMDL
MODEL 4
REMARK VINA RESULT:     -10.6      1.959      5.056
REMARK  Name = 
REMARK  6 active torsions:
REMARK  status: ('A' for Active; 'I' for Inactive)
REMARK    1  A    between atoms: S_2  and  N_5
REMARK    2  A    between atoms: N_5  and  C_6
REMARK    3  A    between atoms: C_9  and  C_12
REMARK    4  A    between atoms: C_12  and  C_14
REMARK    5  A    between atoms: N_20  and  C_21
REMARK    6  A    between atoms: C_21  and  C_22
REMARK                            x       y       z     vdW  Elec       q    Type
REMARK                         _______ _______ _______ _____ _____    ______ ____
ROOT
ATOM     14  C   UNL     1      -2.331   0.408  24.193  0.00  0.00    +0.139 C 
ATOM     15  C   UNL     1      -1.609   0.675  23.896  0.00  0.00    +0.165 C 
ATOM     16  O   UNL     1      -0.920   0.243  24.037  0.00  0.00    -0.343 OA
ATOM     17  C   UNL     1      -0.952  -0.454  24.475  0.00  0.00    +0.227 C 
ATOM     18  C   UNL     1      -1.674  -0.721  24.772  0.00  0.00    +0.256 C 
ATOM     19  O   UNL     1      -1.707  -1.419  25.211  0.00  0.00    -0.272 OA
ATOM     20  N   UNL     1      -2.363  -0.291  24.632  0.00  0.00    -0.274 N 
ENDROOT
BRANCH  14  12
ATOM     12  C   UNL     1      -3.020   0.839  24.053  0.00  0.00    +0.195 C 
ATOM     13  O   UNL     1      -3.662   0.480  23.680  0.00  0.00    -0.216 OA
BRANCH  12   9
ATOM      6  C   UNL     1      -3.162   3.209  24.749  0.00  0.00    +0.091 A 
ATOM      7  C   UNL     1      -2.979   3.020  23.967  0.00  0.00    +0.018 A 
ATOM      8  C   UNL     1      -2.932   2.230  23.735  0.00  0.00    -0.000 A 
ATOM      9  C   UNL     1      -3.067   1.629  24.285  0.00  0.00    +0.010 A 
ATOM     10  C   UNL     1      -3.250   1.819  25.066  0.00  0.00    -0.000 A 
ATOM     11  C   UNL     1      -3.297   2.610  25.298  0.00  0.00    +0.018 A 
BRANCH   6   5
ATOM      5  N   UNL     1      -3.209   4.000  24.982  0.00  0.00    -0.101 NA
BRANCH   5   2
ATOM      1  C   UNL     1      -1.876   4.764  25.581  0.00  0.00    +0.202 C 
ATOM      2  S   UNL     1      -2.542   4.382  25.282  0.00  0.00    +0.075 S 
ATOM      3  O   UNL     1      -2.781   4.194  26.049  0.00  0.00    -0.153 OA
ATOM      4  O   UNL     1      -2.305   4.570  24.513  0.00  0.00    -0.153 OA
ENDBRANCH   5   2
ENDBRANCH   6   5
ENDBRANCH  12   9
ENDBRANCH  14  12
BRANCH  20  21
ATOM     21  C   UNL     1      -3.084  -0.557  24.930  0.00  0.00    +0.094 C 
BRANCH  21  22
ATOM     22  C   UNL     1      -3.336  -1.327  24.774  0.00  0.00    +0.020 C 
ATOM     23  C   UNL     1      -3.630  -1.522  24.028  0.00  0.00    +0.002 C 
ATOM     24  C   UNL     1      -3.881  -2.292  23.873  0.00  0.00    +0.000 C 
ATOM     25  C   UNL     1      -3.839  -2.868  24.463  0.00  0.00    +0.000 C 
ATOM     26  C   UNL     1      -3.545  -2.672  25.208  0.00  0.00    +0.000 C 
ATOM     27  C   UNL     1      -3.293  -1.902  25.364  0.00  0.00    +0.002 C 
ENDBRANCH  21  22
ENDBRANCH  20  21
TORSDOF 6
ENDMDL
