MODEL 1
REMARK VINA RESULT:      -8.9      0.000      0.000
REMARK  Name = 
REMARK  7 active torsions:
REMARK  status: ('A' for Active; 'I' for Inactive)
REMARK    1  A    between atoms: C_2  and  O_17
REMARK    2  A    between atoms: N_3  and  C_4
REMARK    3  A    between atoms: C_7  and  O_8
REMARK    4  A    between atoms: O_8  and  C_9
REMARK    5  A    between atoms: O_17  and  C_18
REMARK    6  A    between atoms: C_22  and  N_26
REMARK    7  A    between atoms: C_27  and  C_29
REMARK                            x       y       z     vdW  Elec       q    Type
REMARK                         _______ _______ _______ _____ _____    ______ ____
ROOT
ATOM     17  O   UNL     1      -0.560   0.416  23.329  0.00  0.00    -0.432 OA
ENDROOT
BRANCH  17  18
ATOM     18  C   UNL     1       0.231   0.618  23.455  0.00  0.00    +0.229 C 
ATOM     19  C   UNL     1       0.507   1.183  23.989  0.00  0.00    +0.188 C 
ATOM     20  O   UNL     1       1.330   1.204  23.932  0.00  0.00    -0.348 OA
ATOM     21  C   UNL     1       1.562   0.654  23.364  0.00  0.00    +0.168 C 
ATOM     22  C   UNL     1       2.213   0.326  22.978  0.00  0.00    +0.155 C 
ATOM     23  C   UNL     1       1.936  -0.238  22.444  0.00  0.00    +0.166 C 
ATOM     24  O   UNL     1       1.113  -0.260  22.500  0.00  0.00    -0.348 OA
ATOM     25  C   UNL     1       0.882   0.291  23.069  0.00  0.00    +0.186 C 
BRANCH  22  26
ATOM     26  N   UNL     1       3.003   0.528  23.103  0.00  0.00    -0.196 NA
ATOM     27  C   UNL     1       3.571  -0.063  23.193  0.00  0.00    +0.300 C 
ATOM     28  O   UNL     1       3.349  -0.857  23.157  0.00  0.00    -0.265 OA
BRANCH  27  29
ATOM     29  C   UNL     1       4.361   0.139  23.318  0.00  0.00    +0.200 A 
ATOM     30  C   UNL     1       4.982  -0.389  23.446  0.00  0.00    +0.046 A 
ATOM     31  C   UNL     1       5.674   0.050  23.545  0.00  0.00    +0.044 A 
ATOM     32  C   UNL     1       5.480   0.849  23.478  0.00  0.00    +0.180 A 
ATOM     33  O   UNL     1       4.669   0.903  23.338  0.00  0.00    -0.446 OA
ENDBRANCH  27  29
ENDBRANCH  22  26
ENDBRANCH  17  18
BRANCH  17   2
ATOM      1  O   UNL     1      -1.081   1.739  23.189  0.00  0.00    -0.224 OA
ATOM      2  C   UNL     1      -1.155   0.968  23.475  0.00  0.00    +0.425 C 
ATOM      3  N   UNL     1      -1.824   0.750  23.905  0.00  0.00    -0.142 NA
BRANCH   3   4
ATOM      4  C   UNL     1      -2.420   1.302  24.051  0.00  0.00    +0.077 A 
ATOM      5  C   UNL     1      -2.430   1.720  24.761  0.00  0.00    +0.020 A 
ATOM      6  C   UNL     1      -3.026   2.272  24.907  0.00  0.00    +0.039 A 
ATOM      7  C   UNL     1      -3.611   2.406  24.341  0.00  0.00    +0.145 A 
ATOM     15  C   UNL     1      -3.601   1.988  23.630  0.00  0.00    +0.039 A 
ATOM     16  C   UNL     1      -3.005   1.436  23.485  0.00  0.00    +0.020 A 
BRANCH   7   8
ATOM      8  O   UNL     1      -4.207   2.958  24.486  0.00  0.00    -0.453 OA
BRANCH   8   9
ATOM      9  C   UNL     1      -4.854   2.753  24.955  0.00  0.00    +0.145 A 
ATOM     10  C   UNL     1      -4.939   3.084  25.707  0.00  0.00    +0.037 A 
ATOM     11  C   UNL     1      -5.586   2.880  26.176  0.00  0.00    +0.003 A 
ATOM     12  C   UNL     1      -6.148   2.345  25.894  0.00  0.00    +0.000 A 
ATOM     13  C   UNL     1      -6.063   2.014  25.143  0.00  0.00    +0.003 A 
ATOM     14  C   UNL     1      -5.415   2.219  24.673  0.00  0.00    +0.037 A 
ENDBRANCH   8   9
ENDBRANCH   7   8
ENDBRANCH   3   4
ENDBRANCH  17   2
TORSDOF 7
ENDMDL
MODEL 2
REMARK VINA RESULT:      -8.2      1.120      7.409
REMARK  Name = 
REMARK  7 active torsions:
REMARK  status: ('A' for Active; 'I' for Inactive)
REMARK    1  A    between atoms: C_2  and  O_17
REMARK    2  A    between atoms: N_3  and  C_4
REMARK    3  A    between atoms: C_7  and  O_8
REMARK    4  A    between atoms: O_8  and  C_9
REMARK    5  A    between atoms: O_17  and  C_18
REMARK    6  A    between atoms: C_22  and  N_26
REMARK    7  A    between atoms: C_27  and  C_29
REMARK                            x       y       z     vdW  Elec       q    Type
REMARK                         _______ _______ _______ _____ _____    ______ ____
ROOT
ATOM     17  O   UNL     1      -0.493  -0.361  23.782  0.00  0.00    -0.432 OA
ENDROOT
BRANCH  17  18
ATOM     18  C   UNL     1      -0.923   0.187  24.225  0.00  0.00    +0.229 C 
ATOM     19  C   UNL     1      -0.640   0.623  24.864  0.00  0.00    +0.188 C 
ATOM     20  O   UNL     1      -1.254   1.100  25.139  0.00  0.00    -0.348 OA
ATOM     21  C   UNL     1      -1.917   0.959  24.670  0.00  0.00    +0.168 C 
ATOM     22  C   UNL     1      -2.706   1.165  24.549  0.00  0.00    +0.155 C 
ATOM     23  C   UNL     1      -2.990   0.729  23.909  0.00  0.00    +0.166 C 
ATOM     24  O   UNL     1      -2.375   0.252  23.634  0.00  0.00    -0.348 OA
ATOM     25  C   UNL     1      -1.712   0.394  24.104  0.00  0.00    +0.186 C 
BRANCH  22  26
ATOM     26  N   UNL     1      -3.137   1.713  24.991  0.00  0.00    -0.196 NA
ATOM     27  C   UNL     1      -3.787   2.095  24.655  0.00  0.00    +0.300 C 
ATOM     28  O   UNL     1      -4.006   1.929  23.877  0.00  0.00    -0.265 OA
BRANCH  27  29
ATOM     29  C   UNL     1      -4.217   2.643  25.097  0.00  0.00    +0.200 A 
ATOM     30  C   UNL     1      -5.008   2.571  25.320  0.00  0.00    +0.046 A 
ATOM     31  C   UNL     1      -5.212   3.242  25.755  0.00  0.00    +0.044 A 
ATOM     32  C   UNL     1      -4.547   3.728  25.800  0.00  0.00    +0.180 A 
ATOM     33  O   UNL     1      -3.933   3.357  25.394  0.00  0.00    -0.446 OA
ENDBRANCH  27  29
ENDBRANCH  22  26
ENDBRANCH  17  18
BRANCH  17   2
ATOM      1  O   UNL     1       0.855  -0.504  24.236  0.00  0.00    -0.224 OA
ATOM      2  C   UNL     1       0.317  -0.251  23.663  0.00  0.00    +0.425 C 
ATOM      3  N   UNL     1       0.587   0.111  22.974  0.00  0.00    -0.142 NA
BRANCH   3   4
ATOM      4  C   UNL     1       1.396   0.221  22.855  0.00  0.00    +0.077 A 
ATOM      5  C   UNL     1       1.788   0.842  23.230  0.00  0.00    +0.020 A 
ATOM      6  C   UNL     1       2.597   0.952  23.111  0.00  0.00    +0.039 A 
ATOM      7  C   UNL     1       3.014   0.440  22.616  0.00  0.00    +0.145 A 
ATOM     15  C   UNL     1       2.622  -0.182  22.241  0.00  0.00    +0.039 A 
ATOM     16  C   UNL     1       1.813  -0.291  22.360  0.00  0.00    +0.020 A 
BRANCH   7   8
ATOM      8  O   UNL     1       3.823   0.549  22.497  0.00  0.00    -0.453 OA
BRANCH   8   9
ATOM      9  C   UNL     1       4.365   0.255  23.045  0.00  0.00    +0.145 A 
ATOM     10  C   UNL     1       4.410  -0.556  23.185  0.00  0.00    +0.037 A 
ATOM     11  C   UNL     1       4.952  -0.851  23.733  0.00  0.00    +0.003 A 
ATOM     12  C   UNL     1       5.448  -0.333  24.141  0.00  0.00    +0.000 A 
ATOM     13  C   UNL     1       5.403   0.479  24.001  0.00  0.00    +0.003 A 
ATOM     14  C   UNL     1       4.860   0.773  23.453  0.00  0.00    +0.037 A 
ENDBRANCH   8   9
ENDBRANCH   7   8
ENDBRANCH   3   4
ENDBRANCH  17   2
TORSDOF 7
ENDMDL
MODEL 3
REMARK VINA RESULT:      -6.7     15.815     17.233
REMARK  Name = 
REMARK  7 active torsions:
REMARK  status: ('A' for Active; 'I' for Inactive)
REMARK    1  A    between atoms: C_2  and  O_17
REMARK    2  A    between atoms: N_3  and  C_4
REMARK    3  A    between atoms: C_7  and  O_8
REMARK    4  A    between atoms: O_8  and  C_9
REMARK    5  A    between atoms: O_17  and  C_18
REMARK    6  A    between atoms: C_22  and  N_26
REMARK    7  A    between atoms: C_27  and  C_29
REMARK                            x       y       z     vdW  Elec       q    Type
REMARK                         _______ _______ _______ _____ _____    ______ ____
ROOT
ATOM     17  O   UNL     1      -4.322 -10.231  12.839  0.00  0.00    -0.432 OA
ENDROOT
BRANCH  17  18
ATOM     18  C   UNL     1      -4.770 -10.247  13.532  0.00  0.00    +0.229 C 
ATOM     19  C   UNL     1      -5.571 -10.063  13.595  0.00  0.00    +0.188 C 
ATOM     20  O   UNL     1      -5.791 -10.153  14.385  0.00  0.00    -0.348 OA
ATOM     21  C   UNL     1      -5.127 -10.392  14.810  0.00  0.00    +0.168 C 
ATOM     22  C   UNL     1      -4.851 -10.596  15.560  0.00  0.00    +0.155 C 
ATOM     23  C   UNL     1      -4.050 -10.780  15.497  0.00  0.00    +0.166 C 
ATOM     24  O   UNL     1      -3.830 -10.690  14.707  0.00  0.00    -0.348 OA
ATOM     25  C   UNL     1      -4.495 -10.451  14.282  0.00  0.00    +0.186 C 
BRANCH  22  26
ATOM     26  N   UNL     1      -5.299 -10.612  16.253  0.00  0.00    -0.196 NA
ATOM     27  C   UNL     1      -4.925 -10.569  16.987  0.00  0.00    +0.300 C 
ATOM     28  O   UNL     1      -4.104 -10.509  17.029  0.00  0.00    -0.265 OA
BRANCH  27  29
ATOM     29  C   UNL     1      -5.374 -10.585  17.680  0.00  0.00    +0.200 A 
ATOM     30  C   UNL     1      -5.090 -10.751  18.436  0.00  0.00    +0.046 A 
ATOM     31  C   UNL     1      -5.725 -10.707  18.962  0.00  0.00    +0.044 A 
ATOM     32  C   UNL     1      -6.400 -10.514  18.530  0.00  0.00    +0.180 A 
ATOM     33  O   UNL     1      -6.183 -10.438  17.737  0.00  0.00    -0.446 OA
ENDBRANCH  27  29
ENDBRANCH  22  26
ENDBRANCH  17  18
BRANCH  17   2
ATOM      1  O   UNL     1      -5.421 -10.390  11.939  0.00  0.00    -0.224 OA
ATOM      2  C   UNL     1      -4.684 -10.062  12.117  0.00  0.00    +0.425 C 
ATOM      3  N   UNL     1      -4.311  -9.568  11.573  0.00  0.00    -0.142 NA
BRANCH   3   4
ATOM      4  C   UNL     1      -4.673  -9.399  10.851  0.00  0.00    +0.077 A 
ATOM      5  C   UNL     1      -4.668  -9.960  10.247  0.00  0.00    +0.020 A 
ATOM      6  C   UNL     1      -5.031  -9.792   9.525  0.00  0.00    +0.039 A 
ATOM      7  C   UNL     1      -5.397  -9.062   9.407  0.00  0.00    +0.145 A 
ATOM     15  C   UNL     1      -5.402  -8.501  10.012  0.00  0.00    +0.039 A 
ATOM     16  C   UNL     1      -5.039  -8.670  10.734  0.00  0.00    +0.020 A 
BRANCH   7   8
ATOM      8  O   UNL     1      -5.759  -8.893   8.686  0.00  0.00    -0.453 OA
BRANCH   8   9
ATOM      9  C   UNL     1      -6.565  -9.038   8.584  0.00  0.00    +0.145 A 
ATOM     10  C   UNL     1      -7.091  -8.407   8.511  0.00  0.00    +0.037 A 
ATOM     11  C   UNL     1      -7.897  -8.552   8.409  0.00  0.00    +0.003 A 
ATOM     12  C   UNL     1      -8.176  -9.328   8.381  0.00  0.00    +0.000 A 
ATOM     13  C   UNL     1      -7.650  -9.959   8.455  0.00  0.00    +0.003 A 
ATOM     14  C   UNL     1      -6.844  -9.813   8.557  0.00  0.00    +0.037 A 
ENDBRANCH   8   9
ENDBRANCH   7   8
ENDBRANCH   3   4
ENDBRANCH  17   2
TORSDOF 7
ENDMDL
MODEL 4
REMARK VINA RESULT:      -6.6     15.045     17.243
REMARK  Name = 
REMARK  7 active torsions:
REMARK  status: ('A' for Active; 'I' for Inactive)
REMARK    1  A    between atoms: C_2  and  O_17
REMARK    2  A    between atoms: N_3  and  C_4
REMARK    3  A    between atoms: C_7  and  O_8
REMARK    4  A    between atoms: O_8  and  C_9
REMARK    5  A    between atoms: O_17  and  C_18
REMARK    6  A    between atoms: C_22  and  N_26
REMARK    7  A    between atoms: C_27  and  C_29
REMARK                            x       y       z     vdW  Elec       q    Type
REMARK                         _______ _______ _______ _____ _____    ______ ____
ROOT
ATOM     17  O   UNL     1      -5.187 -10.239  14.671  0.00  0.00    -0.432 OA
ENDROOT
BRANCH  17  18
ATOM     18  C   UNL     1      -5.972 -10.062  14.853  0.00  0.00    +0.229 C 
ATOM     19  C   UNL     1      -6.596 -10.017  14.316  0.00  0.00    +0.188 C 
ATOM     20  O   UNL     1      -7.280  -9.827  14.735  0.00  0.00    -0.348 OA
ATOM     21  C   UNL     1      -7.080  -9.756  15.532  0.00  0.00    +0.168 C 
ATOM     22  C   UNL     1      -7.378  -9.595  16.284  0.00  0.00    +0.155 C 
ATOM     23  C   UNL     1      -6.755  -9.641  16.822  0.00  0.00    +0.166 C 
ATOM     24  O   UNL     1      -6.070  -9.830  16.402  0.00  0.00    -0.348 OA
ATOM     25  C   UNL     1      -6.271  -9.901  15.605  0.00  0.00    +0.186 C 
BRANCH  22  26
ATOM     26  N   UNL     1      -8.164  -9.419  16.466  0.00  0.00    -0.196 NA
ATOM     27  C   UNL     1      -8.351  -9.073  17.191  0.00  0.00    +0.300 C 
ATOM     28  O   UNL     1      -7.754  -8.903  17.735  0.00  0.00    -0.265 OA
BRANCH  27  29
ATOM     29  C   UNL     1      -9.137  -8.897  17.374  0.00  0.00    +0.200 A 
ATOM     30  C   UNL     1      -9.688  -9.419  17.696  0.00  0.00    +0.046 A 
ATOM     31  C   UNL     1     -10.401  -9.012  17.787  0.00  0.00    +0.044 A 
ATOM     32  C   UNL     1     -10.289  -8.240  17.521  0.00  0.00    +0.180 A 
ATOM     33  O   UNL     1      -9.508  -8.168  17.266  0.00  0.00    -0.446 OA
ENDBRANCH  27  29
ENDBRANCH  22  26
ENDBRANCH  17  18
BRANCH  17   2
ATOM      1  O   UNL     1      -5.312  -9.704  13.352  0.00  0.00    -0.224 OA
ATOM      2  C   UNL     1      -4.925 -10.196  13.890  0.00  0.00    +0.425 C 
ATOM      3  N   UNL     1      -4.277 -10.644  13.647  0.00  0.00    -0.142 NA
BRANCH   3   4
ATOM      4  C   UNL     1      -4.015 -10.602  12.866  0.00  0.00    +0.077 A 
ATOM      5  C   UNL     1      -3.238 -10.380  12.703  0.00  0.00    +0.020 A 
ATOM      6  C   UNL     1      -2.975 -10.338  11.922  0.00  0.00    +0.039 A 
ATOM      7  C   UNL     1      -3.491 -10.517  11.303  0.00  0.00    +0.145 A 
ATOM     15  C   UNL     1      -4.269 -10.739  11.466  0.00  0.00    +0.039 A 
ATOM     16  C   UNL     1      -4.531 -10.781  12.248  0.00  0.00    +0.020 A 
BRANCH   7   8
ATOM      8  O   UNL     1      -3.230 -10.475  10.522  0.00  0.00    -0.453 OA
BRANCH   8   9
ATOM      9  C   UNL     1      -3.589  -9.952   9.994  0.00  0.00    +0.145 A 
ATOM     10  C   UNL     1      -4.116 -10.236   9.427  0.00  0.00    +0.037 A 
ATOM     11  C   UNL     1      -4.475  -9.713   8.899  0.00  0.00    +0.003 A 
ATOM     12  C   UNL     1      -4.307  -8.906   8.939  0.00  0.00    +0.000 A 
ATOM     13  C   UNL     1      -3.779  -8.622   9.506  0.00  0.00    +0.003 A 
ATOM     14  C   UNL     1      -3.420  -9.146  10.034  0.00  0.00    +0.037 A 
ENDBRANCH   8   9
ENDBRANCH   7   8
ENDBRANCH   3   4
ENDBRANCH  17   2
TORSDOF 7
ENDMDL
MODEL 5
REMARK VINA RESULT:      -6.4     17.050     18.021
REMARK  Name = 
REMARK  7 active torsions:
REMARK  status: ('A' for Active; 'I' for Inactive)
REMARK    1  A    between atoms: C_2  and  O_17
REMARK    2  A    between atoms: N_3  and  C_4
REMARK    3  A    between atoms: C_7  and  O_8
REMARK    4  A    between atoms: O_8  and  C_9
REMARK    5  A    between atoms: O_17  and  C_18
REMARK    6  A    between atoms: C_22  and  N_26
REMARK    7  A    between atoms: C_27  and  C_29
REMARK                            x       y       z     vdW  Elec       q    Type
REMARK                         _______ _______ _______ _____ _____    ______ ____
ROOT
ATOM     17  O   UNL     1      -6.544  -9.438  10.144  0.00  0.00    -0.432 OA
ENDROOT
BRANCH  17  18
ATOM     18  C   UNL     1      -5.774  -9.162  10.255  0.00  0.00    +0.229 C 
ATOM     19  C   UNL     1      -5.556  -8.379  10.394  0.00  0.00    +0.188 C 
ATOM     20  O   UNL     1      -4.736  -8.353  10.470  0.00  0.00    -0.348 OA
ATOM     21  C   UNL     1      -4.446  -9.119  10.379  0.00  0.00    +0.168 C 
ATOM     22  C   UNL     1      -3.761  -9.578  10.370  0.00  0.00    +0.155 C 
ATOM     23  C   UNL     1      -3.979 -10.362  10.231  0.00  0.00    +0.166 C 
ATOM     24  O   UNL     1      -4.800 -10.387  10.154  0.00  0.00    -0.348 OA
ATOM     25  C   UNL     1      -5.089  -9.619  10.246  0.00  0.00    +0.186 C 
BRANCH  22  26
ATOM     26  N   UNL     1      -2.991  -9.302  10.480  0.00  0.00    -0.196 NA
ATOM     27  C   UNL     1      -2.473  -9.709  10.976  0.00  0.00    +0.300 C 
ATOM     28  O   UNL     1      -2.725 -10.394  11.362  0.00  0.00    -0.265 OA
BRANCH  27  29
ATOM     29  C   UNL     1      -1.704  -9.433  11.087  0.00  0.00    +0.200 A 
ATOM     30  C   UNL     1      -1.229  -9.571  11.747  0.00  0.00    +0.046 A 
ATOM     31  C   UNL     1      -0.506  -9.193  11.624  0.00  0.00    +0.044 A 
ATOM     32  C   UNL     1      -0.534  -8.821  10.889  0.00  0.00    +0.180 A 
ATOM     33  O   UNL     1      -1.274  -8.970  10.557  0.00  0.00    -0.446 OA
ENDBRANCH  27  29
ENDBRANCH  22  26
ENDBRANCH  17  18
BRANCH  17   2
ATOM      1  O   UNL     1      -7.105  -8.126  10.070  0.00  0.00    -0.224 OA
ATOM      2  C   UNL     1      -7.132  -8.927   9.872  0.00  0.00    +0.425 C 
ATOM      3  N   UNL     1      -7.744  -9.216   9.401  0.00  0.00    -0.142 NA
BRANCH   3   4
ATOM      4  C   UNL     1      -8.332  -8.704   9.129  0.00  0.00    +0.077 A 
ATOM      5  C   UNL     1      -8.240  -8.319   8.406  0.00  0.00    +0.020 A 
ATOM      6  C   UNL     1      -8.828  -7.807   8.133  0.00  0.00    +0.039 A 
ATOM      7  C   UNL     1      -9.507  -7.682   8.584  0.00  0.00    +0.145 A 
ATOM     15  C   UNL     1      -9.599  -8.068   9.308  0.00  0.00    +0.039 A 
ATOM     16  C   UNL     1      -9.011  -8.579   9.580  0.00  0.00    +0.020 A 
BRANCH   7   8
ATOM      8  O   UNL     1     -10.095  -7.171   8.312  0.00  0.00    -0.453 OA
BRANCH   8   9
ATOM      9  C   UNL     1     -10.116  -6.389   8.574  0.00  0.00    +0.145 A 
ATOM     10  C   UNL     1      -9.563  -5.845   8.292  0.00  0.00    +0.037 A 
ATOM     11  C   UNL     1      -9.584  -5.063   8.554  0.00  0.00    +0.003 A 
ATOM     12  C   UNL     1     -10.157  -4.825   9.098  0.00  0.00    +0.000 A 
ATOM     13  C   UNL     1     -10.710  -5.369   9.380  0.00  0.00    +0.003 A 
ATOM     14  C   UNL     1     -10.688  -6.152   9.118  0.00  0.00    +0.037 A 
ENDBRANCH   8   9
ENDBRANCH   7   8
ENDBRANCH   3   4
ENDBRANCH  17   2
TORSDOF 7
ENDMDL
MODEL 6
REMARK VINA RESULT:      -5.4     16.219     17.299
REMARK  Name = 
REMARK  7 active torsions:
REMARK  status: ('A' for Active; 'I' for Inactive)
REMARK    1  A    between atoms: C_2  and  O_17
REMARK    2  A    between atoms: N_3  and  C_4
REMARK    3  A    between atoms: C_7  and  O_8
REMARK    4  A    between atoms: O_8  and  C_9
REMARK    5  A    between atoms: O_17  and  C_18
REMARK    6  A    between atoms: C_22  and  N_26
REMARK    7  A    between atoms: C_27  and  C_29
REMARK                            x       y       z     vdW  Elec       q    Type
REMARK                         _______ _______ _______ _____ _____    ______ ____
ROOT
ATOM     17  O   UNL     1      -6.909 -10.291  12.883  0.00  0.00    -0.432 OA
ENDROOT
BRANCH  17  18
ATOM     18  C   UNL     1      -6.098 -10.293  13.033  0.00  0.00    +0.229 C 
ATOM     19  C   UNL     1      -5.501 -10.169  12.477  0.00  0.00    +0.188 C 
ATOM     20  O   UNL     1      -4.776 -10.219  12.866  0.00  0.00    -0.348 OA
ATOM     21  C   UNL     1      -4.923 -10.372  13.662  0.00  0.00    +0.168 C 
ATOM     22  C   UNL     1      -4.567 -10.498  14.396  0.00  0.00    +0.155 C 
ATOM     23  C   UNL     1      -5.163 -10.621  14.952  0.00  0.00    +0.166 C 
ATOM     24  O   UNL     1      -5.889 -10.572  14.563  0.00  0.00    -0.348 OA
ATOM     25  C   UNL     1      -5.741 -10.418  13.766  0.00  0.00    +0.186 C 
BRANCH  22  26
ATOM     26  N   UNL     1      -3.756 -10.500  14.546  0.00  0.00    -0.196 NA
ATOM     27  C   UNL     1      -3.478 -10.641  15.310  0.00  0.00    +0.300 C 
ATOM     28  O   UNL     1      -4.011 -10.781  15.924  0.00  0.00    -0.265 OA
BRANCH  27  29
ATOM     29  C   UNL     1      -2.666 -10.643  15.460  0.00  0.00    +0.200 A 
ATOM     30  C   UNL     1      -2.309 -10.515  16.192  0.00  0.00    +0.046 A 
ATOM     31  C   UNL     1      -1.491 -10.566  16.090  0.00  0.00    +0.044 A 
ATOM     32  C   UNL     1      -1.345 -10.725  15.294  0.00  0.00    +0.180 A 
ATOM     33  O   UNL     1      -2.071 -10.773  14.905  0.00  0.00    -0.446 OA
ENDBRANCH  27  29
ENDBRANCH  22  26
ENDBRANCH  17  18
BRANCH  17   2
ATOM      1  O   UNL     1      -6.773  -9.397  11.777  0.00  0.00    -0.224 OA
ATOM      2  C   UNL     1      -7.197  -9.983  12.173  0.00  0.00    +0.425 C 
ATOM      3  N   UNL     1      -7.908 -10.261  11.861  0.00  0.00    -0.142 NA
BRANCH   3   4
ATOM      4  C   UNL     1      -8.196  -9.953  11.152  0.00  0.00    +0.077 A 
ATOM      5  C   UNL     1      -7.813 -10.124  10.442  0.00  0.00    +0.020 A 
ATOM      6  C   UNL     1      -8.100  -9.816   9.733  0.00  0.00    +0.039 A 
ATOM      7  C   UNL     1      -8.772  -9.337   9.734  0.00  0.00    +0.145 A 
ATOM     15  C   UNL     1      -9.155  -9.166  10.444  0.00  0.00    +0.039 A 
ATOM     16  C   UNL     1      -8.867  -9.474  11.153  0.00  0.00    +0.020 A 
BRANCH   7   8
ATOM      8  O   UNL     1      -9.060  -9.029   9.025  0.00  0.00    -0.453 OA
BRANCH   8   9
ATOM      9  C   UNL     1      -8.934  -8.235   8.838  0.00  0.00    +0.145 A 
ATOM     10  C   UNL     1      -9.546  -7.689   8.924  0.00  0.00    +0.037 A 
ATOM     11  C   UNL     1      -9.420  -6.895   8.737  0.00  0.00    +0.003 A 
ATOM     12  C   UNL     1      -8.682  -6.648   8.464  0.00  0.00    +0.000 A 
ATOM     13  C   UNL     1      -8.069  -7.195   8.378  0.00  0.00    +0.003 A 
ATOM     14  C   UNL     1      -8.196  -7.989   8.565  0.00  0.00    +0.037 A 
ENDBRANCH   8   9
ENDBRANCH   7   8
ENDBRANCH   3   4
ENDBRANCH  17   2
TORSDOF 7
ENDMDL
MODEL 7
REMARK VINA RESULT:      -5.1     16.643     17.791
REMARK  Name = 
REMARK  7 active torsions:
REMARK  status: ('A' for Active; 'I' for Inactive)
REMARK    1  A    between atoms: C_2  and  O_17
REMARK    2  A    between atoms: N_3  and  C_4
REMARK    3  A    between atoms: C_7  and  O_8
REMARK    4  A    between atoms: O_8  and  C_9
REMARK    5  A    between atoms: O_17  and  C_18
REMARK    6  A    between atoms: C_22  and  N_26
REMARK    7  A    between atoms: C_27  and  C_29
REMARK                            x       y       z     vdW  Elec       q    Type
REMARK                         _______ _______ _______ _____ _____    ______ ____
ROOT
ATOM     17  O   UNL     1      -7.654 -10.401  11.470  0.00  0.00    -0.432 OA
ENDROOT
BRANCH  17  18
ATOM     18  C   UNL     1      -7.554 -10.245  12.275  0.00  0.00    +0.229 C 
ATOM     19  C   UNL     1      -8.130  -9.953  12.787  0.00  0.00    +0.188 C 
ATOM     20  O   UNL     1      -7.791  -9.882  13.536  0.00  0.00    -0.348 OA
ATOM     21  C   UNL     1      -7.007 -10.129  13.486  0.00  0.00    +0.168 C 
ATOM     22  C   UNL     1      -6.312 -10.238  13.917  0.00  0.00    +0.155 C 
ATOM     23  C   UNL     1      -5.735 -10.530  13.404  0.00  0.00    +0.166 C 
ATOM     24  O   UNL     1      -6.074 -10.601  12.656  0.00  0.00    -0.348 OA
ATOM     25  C   UNL     1      -6.860 -10.354  12.706  0.00  0.00    +0.186 C 
BRANCH  22  26
ATOM     26  N   UNL     1      -6.211 -10.083  14.722  0.00  0.00    -0.196 NA
ATOM     27  C   UNL     1      -5.537 -10.353  15.113  0.00  0.00    +0.300 C 
ATOM     28  O   UNL     1      -4.964 -10.780  14.701  0.00  0.00    -0.265 OA
BRANCH  27  29
ATOM     29  C   UNL     1      -5.437 -10.198  15.917  0.00  0.00    +0.200 A 
ATOM     30  C   UNL     1      -4.717 -10.165  16.318  0.00  0.00    +0.046 A 
ATOM     31  C   UNL     1      -4.873  -9.995  17.110  0.00  0.00    +0.044 A 
ATOM     32  C   UNL     1      -5.690  -9.922  17.198  0.00  0.00    +0.180 A 
ATOM     33  O   UNL     1      -6.038 -10.047  16.461  0.00  0.00    -0.446 OA
ENDBRANCH  27  29
ENDBRANCH  22  26
ENDBRANCH  17  18
BRANCH  17   2
ATOM      1  O   UNL     1      -8.453  -9.234  11.264  0.00  0.00    -0.224 OA
ATOM      2  C   UNL     1      -7.944  -9.813  10.969  0.00  0.00    +0.425 C 
ATOM      3  N   UNL     1      -7.725  -9.804  10.174  0.00  0.00    -0.142 NA
BRANCH   3   4
ATOM      4  C   UNL     1      -8.014  -9.216   9.673  0.00  0.00    +0.077 A 
ATOM      5  C   UNL     1      -7.564  -8.540   9.526  0.00  0.00    +0.020 A 
ATOM      6  C   UNL     1      -7.854  -7.952   9.025  0.00  0.00    +0.039 A 
ATOM      7  C   UNL     1      -8.593  -8.040   8.670  0.00  0.00    +0.145 A 
ATOM     15  C   UNL     1      -9.043  -8.716   8.816  0.00  0.00    +0.039 A 
ATOM     16  C   UNL     1      -8.753  -9.304   9.318  0.00  0.00    +0.020 A 
BRANCH   7   8
ATOM      8  O   UNL     1      -8.883  -7.453   8.168  0.00  0.00    -0.453 OA
BRANCH   8   9
ATOM      9  C   UNL     1      -9.307  -6.817   8.479  0.00  0.00    +0.145 A 
ATOM     10  C   UNL     1     -10.005  -6.953   8.898  0.00  0.00    +0.037 A 
ATOM     11  C   UNL     1     -10.430  -6.317   9.208  0.00  0.00    +0.003 A 
ATOM     12  C   UNL     1     -10.156  -5.546   9.100  0.00  0.00    +0.000 A 
ATOM     13  C   UNL     1      -9.458  -5.410   8.681  0.00  0.00    +0.003 A 
ATOM     14  C   UNL     1      -9.034  -6.047   8.371  0.00  0.00    +0.037 A 
ENDBRANCH   8   9
ENDBRANCH   7   8
ENDBRANCH   3   4
ENDBRANCH  17   2
TORSDOF 7
ENDMDL
MODEL 8
REMARK VINA RESULT:      -5.0     15.675     17.736
REMARK  Name = 
REMARK  7 active torsions:
REMARK  status: ('A' for Active; 'I' for Inactive)
REMARK    1  A    between atoms: C_2  and  O_17
REMARK    2  A    between atoms: N_3  and  C_4
REMARK    3  A    between atoms: C_7  and  O_8
REMARK    4  A    between atoms: O_8  and  C_9
REMARK    5  A    between atoms: O_17  and  C_18
REMARK    6  A    between atoms: C_22  and  N_26
REMARK    7  A    between atoms: C_27  and  C_29
REMARK                            x       y       z     vdW  Elec       q    Type
REMARK                         _______ _______ _______ _____ _____    ______ ____
ROOT
ATOM     17  O   UNL     1      -8.828  -9.332  13.580  0.00  0.00    -0.432 OA
ENDROOT
BRANCH  17  18
ATOM     18  C   UNL     1      -9.064  -9.700  14.280  0.00  0.00    +0.229 C 
ATOM     19  C   UNL     1      -9.506 -10.394  14.337  0.00  0.00    +0.188 C 
ATOM     20  O   UNL     1      -9.614 -10.561  15.138  0.00  0.00    -0.348 OA
ATOM     21  C   UNL     1      -9.240  -9.970  15.575  0.00  0.00    +0.168 C 
ATOM     22  C   UNL     1      -9.075  -9.708  16.339  0.00  0.00    +0.155 C 
ATOM     23  C   UNL     1      -8.634  -9.014  16.282  0.00  0.00    +0.166 C 
ATOM     24  O   UNL     1      -8.525  -8.847  15.481  0.00  0.00    -0.348 OA
ATOM     25  C   UNL     1      -8.900  -9.438  15.044  0.00  0.00    +0.186 C 
BRANCH  22  26
ATOM     26  N   UNL     1      -9.312 -10.075  17.039  0.00  0.00    -0.196 NA
ATOM     27  C   UNL     1      -9.456  -9.624  17.714  0.00  0.00    +0.300 C 
ATOM     28  O   UNL     1      -9.364  -8.804  17.690  0.00  0.00    -0.265 OA
BRANCH  27  29
ATOM     29  C   UNL     1      -9.692  -9.992  18.414  0.00  0.00    +0.200 A 
ATOM     30  C   UNL     1     -10.450  -9.973  18.740  0.00  0.00    +0.046 A 
ATOM     31  C   UNL     1     -10.438 -10.413  19.438  0.00  0.00    +0.044 A 
ATOM     32  C   UNL     1      -9.673 -10.702  19.544  0.00  0.00    +0.180 A 
ATOM     33  O   UNL     1      -9.212 -10.442  18.911  0.00  0.00    -0.446 OA
ENDBRANCH  27  29
ENDBRANCH  22  26
ENDBRANCH  17  18
BRANCH  17   2
ATOM      1  O   UNL     1      -8.199 -10.457  12.961  0.00  0.00    -0.224 OA
ATOM      2  C   UNL     1      -8.209  -9.650  13.135  0.00  0.00    +0.425 C 
ATOM      3  N   UNL     1      -7.603  -9.162  12.864  0.00  0.00    -0.142 NA
BRANCH   3   4
ATOM      4  C   UNL     1      -6.985  -9.479  12.419  0.00  0.00    +0.077 A 
ATOM      5  C   UNL     1      -7.132  -9.787  11.669  0.00  0.00    +0.020 A 
ATOM      6  C   UNL     1      -6.514 -10.105  11.224  0.00  0.00    +0.039 A 
ATOM      7  C   UNL     1      -5.748 -10.114  11.530  0.00  0.00    +0.145 A 
ATOM     15  C   UNL     1      -5.600  -9.805  12.281  0.00  0.00    +0.039 A 
ATOM     16  C   UNL     1      -6.219  -9.488  12.725  0.00  0.00    +0.020 A 
BRANCH   7   8
ATOM      8  O   UNL     1      -5.129 -10.431  11.086  0.00  0.00    -0.453 OA
BRANCH   8   9
ATOM      9  C   UNL     1      -4.729  -9.960  10.539  0.00  0.00    +0.145 A 
ATOM     10  C   UNL     1      -4.277  -9.321  10.799  0.00  0.00    +0.037 A 
ATOM     11  C   UNL     1      -3.877  -8.850  10.253  0.00  0.00    +0.003 A 
ATOM     12  C   UNL     1      -3.930  -9.018   9.446  0.00  0.00    +0.000 A 
ATOM     13  C   UNL     1      -4.383  -9.657   9.186  0.00  0.00    +0.003 A 
ATOM     14  C   UNL     1      -4.783 -10.128   9.734  0.00  0.00    +0.037 A 
ENDBRANCH   8   9
ENDBRANCH   7   8
ENDBRANCH   3   4
ENDBRANCH  17   2
TORSDOF 7
ENDMDL
MODEL 9
REMARK VINA RESULT:      -4.9     15.740     17.351
REMARK  Name = 
REMARK  7 active torsions:
REMARK  status: ('A' for Active; 'I' for Inactive)
REMARK    1  A    between atoms: C_2  and  O_17
REMARK    2  A    between atoms: N_3  and  C_4
REMARK    3  A    between atoms: C_7  and  O_8
REMARK    4  A    between atoms: O_8  and  C_9
REMARK    5  A    between atoms: O_17  and  C_18
REMARK    6  A    between atoms: C_22  and  N_26
REMARK    7  A    between atoms: C_27  and  C_29
REMARK                            x       y       z     vdW  Elec       q    Type
REMARK                         _______ _______ _______ _____ _____    ______ ____
ROOT
ATOM     17  O   UNL     1      -7.893 -10.533  14.047  0.00  0.00    -0.432 OA
ENDROOT
BRANCH  17  18
ATOM     18  C   UNL     1      -7.444 -10.577  14.738  0.00  0.00    +0.229 C 
ATOM     19  C   UNL     1      -6.634 -10.725  14.781  0.00  0.00    +0.188 C 
ATOM     20  O   UNL     1      -6.416 -10.719  15.576  0.00  0.00    -0.348 OA
ATOM     21  C   UNL     1      -7.090 -10.568  16.025  0.00  0.00    +0.168 C 
ATOM     22  C   UNL     1      -7.374 -10.470  16.793  0.00  0.00    +0.155 C 
ATOM     23  C   UNL     1      -8.184 -10.322  16.750  0.00  0.00    +0.166 C 
ATOM     24  O   UNL     1      -8.402 -10.328  15.955  0.00  0.00    -0.348 OA
ATOM     25  C   UNL     1      -7.726 -10.479  15.506  0.00  0.00    +0.186 C 
BRANCH  22  26
ATOM     26  N   UNL     1      -6.925 -10.513  17.484  0.00  0.00    -0.196 NA
ATOM     27  C   UNL     1      -7.299 -10.606  18.214  0.00  0.00    +0.300 C 
ATOM     28  O   UNL     1      -8.121 -10.656  18.253  0.00  0.00    -0.265 OA
BRANCH  27  29
ATOM     29  C   UNL     1      -6.850 -10.649  18.905  0.00  0.00    +0.200 A 
ATOM     30  C   UNL     1      -6.030 -10.570  18.957  0.00  0.00    +0.046 A 
ATOM     31  C   UNL     1      -5.816 -10.651  19.749  0.00  0.00    +0.044 A 
ATOM     32  C   UNL     1      -6.502 -10.781  20.187  0.00  0.00    +0.180 A 
ATOM     33  O   UNL     1      -7.141 -10.780  19.665  0.00  0.00    -0.446 OA
ENDBRANCH  27  29
ENDBRANCH  22  26
ENDBRANCH  17  18
BRANCH  17   2
ATOM      1  O   UNL     1      -6.705 -10.532  13.252  0.00  0.00    -0.224 OA
ATOM      2  C   UNL     1      -7.521 -10.422  13.319  0.00  0.00    +0.425 C 
ATOM      3  N   UNL     1      -7.962 -10.200  12.659  0.00  0.00    -0.142 NA
BRANCH   3   4
ATOM      4  C   UNL     1      -7.590 -10.089  11.931  0.00  0.00    +0.077 A 
ATOM      5  C   UNL     1      -7.576 -10.699  11.377  0.00  0.00    +0.020 A 
ATOM      6  C   UNL     1      -7.203 -10.587  10.649  0.00  0.00    +0.039 A 
ATOM      7  C   UNL     1      -6.846  -9.865  10.476  0.00  0.00    +0.145 A 
ATOM     15  C   UNL     1      -6.860  -9.253  11.030  0.00  0.00    +0.039 A 
ATOM     16  C   UNL     1      -7.232  -9.366  11.758  0.00  0.00    +0.020 A 
BRANCH   7   8
ATOM      8  O   UNL     1      -6.473  -9.752   9.748  0.00  0.00    -0.453 OA
BRANCH   8   9
ATOM      9  C   UNL     1      -5.672  -9.557   9.720  0.00  0.00    +0.145 A 
ATOM     10  C   UNL     1      -5.441  -8.765   9.719  0.00  0.00    +0.037 A 
ATOM     11  C   UNL     1      -4.640  -8.570   9.691  0.00  0.00    +0.003 A 
ATOM     12  C   UNL     1      -4.070  -9.167   9.664  0.00  0.00    +0.000 A 
ATOM     13  C   UNL     1      -4.302  -9.959   9.665  0.00  0.00    +0.003 A 
ATOM     14  C   UNL     1      -5.104 -10.153   9.693  0.00  0.00    +0.037 A 
ENDBRANCH   8   9
ENDBRANCH   7   8
ENDBRANCH   3   4
ENDBRANCH  17   2
TORSDOF 7
ENDMDL
