MODEL 1
REMARK VINA RESULT:     -10.1      0.000      0.000
REMARK  Name = 
REMARK  9 active torsions:
REMARK  status: ('A' for Active; 'I' for Inactive)
REMARK    1  A    between atoms: N_2  and  C_3
REMARK    2  A    between atoms: N_2  and  C_6
REMARK    3  A    between atoms: C_3  and  C_4
REMARK    4  A    between atoms: C_6  and  C_7
REMARK    5  A    between atoms: C_14  and  C_15
REMARK    6  A    between atoms: C_15  and  N_16
REMARK    7  A    between atoms: N_19  and  C_20
REMARK    8  A    between atoms: C_23  and  O_24
REMARK    9  A    between atoms: O_24  and  C_25
REMARK                            x       y       z     vdW  Elec       q    Type
REMARK                         _______ _______ _______ _____ _____    ______ ____
ROOT
ATOM     15  C   UNL     1      -4.553   1.715  24.370  0.00  0.00    +0.133 C 
ENDROOT
BRANCH  15  14
ATOM      7  C   UNL     1      -3.446   3.593  25.299  0.00  0.00    +0.032 C 
ATOM      8  C   UNL     1      -3.015   3.074  24.911  0.00  0.00    +0.073 C 
ATOM      9  N   UNL     1      -3.831   3.036  25.034  0.00  0.00    -0.272 NA
ATOM     10  C   UNL     1      -4.100   3.883  25.589  0.00  0.00    +0.072 C 
ATOM     11  C   UNL     1      -4.554   4.246  25.887  0.00  0.00    +0.017 C 
ATOM     12  C   UNL     1      -4.246   3.549  25.415  0.00  0.00    +0.005 C 
ATOM     13  C   UNL     1      -4.845   2.957  25.166  0.00  0.00    +0.018 C 
ATOM     14  C   UNL     1      -4.458   2.425  24.779  0.00  0.00    +0.079 C 
BRANCH   7   6
ATOM      6  C   UNL     1      -3.054   4.245  25.620  0.00  0.00    +0.074 C 
BRANCH   6   2
ATOM      1  C   UNL     1      -1.759   3.771  25.995  0.00  0.00    +0.090 C 
ATOM      2  N   UNL     1      -2.233   4.297  25.571  0.00  0.00    -0.268 NA
BRANCH   2   3
ATOM      3  C   UNL     1      -1.884   4.876  25.097  0.00  0.00    +0.099 C 
BRANCH   3   4
ATOM      4  C   UNL     1      -1.072   5.013  25.143  0.00  0.00    -0.009 C 
ATOM      5  C   UNL     1      -0.723   5.588  24.665  0.00  0.00    -0.003 C 
ENDBRANCH   3   4
ENDBRANCH   2   3
ENDBRANCH   6   2
ENDBRANCH   7   6
ENDBRANCH  15  14
BRANCH  15  16
ATOM     16  N   UNL     1      -4.748   1.026  24.781  0.00  0.00    -0.185 NA
ATOM     17  C   UNL     1      -4.312   0.336  24.660  0.00  0.00    +0.344 C 
ATOM     18  O   UNL     1      -3.682   0.335  24.128  0.00  0.00    -0.249 OA
ATOM     19  N   UNL     1      -4.507  -0.352  25.070  0.00  0.00    -0.161 NA
BRANCH  19  20
ATOM     20  C   UNL     1      -4.071  -1.042  24.949  0.00  0.00    +0.075 A 
ATOM     21  C   UNL     1      -3.484  -1.260  25.487  0.00  0.00    +0.020 A 
ATOM     22  C   UNL     1      -3.048  -1.950  25.366  0.00  0.00    +0.039 A 
ATOM     23  C   UNL     1      -3.198  -2.422  24.706  0.00  0.00    +0.147 A 
ATOM     29  C   UNL     1      -3.784  -2.204  24.168  0.00  0.00    +0.039 A 
ATOM     30  C   UNL     1      -4.220  -1.515  24.289  0.00  0.00    +0.020 A 
BRANCH  23  24
ATOM     24  O   UNL     1      -2.761  -3.111  24.586  0.00  0.00    -0.404 OA
BRANCH  24  25
ATOM     25  C   UNL     1      -2.034  -3.077  24.198  0.00  0.00    +0.575 C 
ATOM     26  F   UNL     1      -1.307  -3.043  23.810  0.00  0.00    -0.133 F 
ATOM     27  F   UNL     1      -2.407  -3.254  23.483  0.00  0.00    -0.133 F 
ATOM     28  F   UNL     1      -1.662  -2.901  24.913  0.00  0.00    -0.133 F 
ENDBRANCH  24  25
ENDBRANCH  23  24
ENDBRANCH  19  20
ENDBRANCH  15  16
TORSDOF 9
ENDMDL
MODEL 2
REMARK VINA RESULT:      -9.5      4.908      5.765
REMARK  Name = 
REMARK  9 active torsions:
REMARK  status: ('A' for Active; 'I' for Inactive)
REMARK    1  A    between atoms: N_2  and  C_3
REMARK    2  A    between atoms: N_2  and  C_6
REMARK    3  A    between atoms: C_3  and  C_4
REMARK    4  A    between atoms: C_6  and  C_7
REMARK    5  A    between atoms: C_14  and  C_15
REMARK    6  A    between atoms: C_15  and  N_16
REMARK    7  A    between atoms: N_19  and  C_20
REMARK    8  A    between atoms: C_23  and  O_24
REMARK    9  A    between atoms: O_24  and  C_25
REMARK                            x       y       z     vdW  Elec       q    Type
REMARK                         _______ _______ _______ _____ _____    ______ ____
ROOT
ATOM     15  C   UNL     1      -0.180   0.911  23.895  0.00  0.00    +0.133 C 
ENDROOT
BRANCH  15  14
ATOM      7  C   UNL     1      -2.501   1.295  24.171  0.00  0.00    +0.032 C 
ATOM      8  C   UNL     1      -2.041   1.915  24.071  0.00  0.00    +0.073 C 
ATOM      9  N   UNL     1      -1.799   1.126  24.091  0.00  0.00    -0.272 NA
ATOM     10  C   UNL     1      -2.657   0.542  24.241  0.00  0.00    +0.072 C 
ATOM     11  C   UNL     1      -2.941  -0.042  24.316  0.00  0.00    +0.017 C 
ATOM     12  C   UNL     1      -2.256   0.523  24.190  0.00  0.00    +0.005 C 
ATOM     13  C   UNL     1      -1.463   0.157  24.111  0.00  0.00    +0.018 C 
ATOM     14  C   UNL     1      -0.977   0.737  24.010  0.00  0.00    +0.079 C 
BRANCH   7   6
ATOM      6  C   UNL     1      -3.310   1.436  24.267  0.00  0.00    +0.074 C 
BRANCH   6   2
ATOM      1  C   UNL     1      -3.536   2.662  23.569  0.00  0.00    +0.090 C 
ATOM      2  N   UNL     1      -3.597   2.208  24.256  0.00  0.00    -0.268 NA
BRANCH   2   3
ATOM      3  C   UNL     1      -3.946   2.528  24.932  0.00  0.00    +0.099 C 
BRANCH   3   4
ATOM      4  C   UNL     1      -4.610   3.013  24.864  0.00  0.00    -0.009 C 
ATOM      5  C   UNL     1      -5.029   3.237  25.538  0.00  0.00    -0.003 C 
ENDBRANCH   3   4
ENDBRANCH   2   3
ENDBRANCH   6   2
ENDBRANCH   7   6
ENDBRANCH  15  14
BRANCH  15  16
ATOM     16  N   UNL     1       0.270   0.456  23.374  0.00  0.00    -0.185 NA
ATOM     17  C   UNL     1       1.092   0.525  23.369  0.00  0.00    +0.344 C 
ATOM     18  O   UNL     1       1.465   1.049  23.886  0.00  0.00    -0.249 OA
ATOM     19  N   UNL     1       1.542   0.070  22.848  0.00  0.00    -0.161 NA
BRANCH  19  20
ATOM     20  C   UNL     1       2.364   0.139  22.844  0.00  0.00    +0.075 A 
ATOM     21  C   UNL     1       2.717   0.841  22.592  0.00  0.00    +0.020 A 
ATOM     22  C   UNL     1       3.540   0.910  22.588  0.00  0.00    +0.039 A 
ATOM     23  C   UNL     1       4.008   0.278  22.836  0.00  0.00    +0.147 A 
ATOM     29  C   UNL     1       3.655  -0.424  23.088  0.00  0.00    +0.039 A 
ATOM     30  C   UNL     1       2.833  -0.493  23.092  0.00  0.00    +0.020 A 
BRANCH  23  24
ATOM     24  O   UNL     1       4.830   0.348  22.832  0.00  0.00    -0.404 OA
BRANCH  24  25
ATOM     25  C   UNL     1       5.251   0.325  23.541  0.00  0.00    +0.575 C 
ATOM     26  F   UNL     1       5.671   0.302  24.250  0.00  0.00    -0.133 F 
ATOM     27  F   UNL     1       5.407  -0.476  23.423  0.00  0.00    -0.133 F 
ATOM     28  F   UNL     1       5.094   1.127  23.659  0.00  0.00    -0.133 F 
ENDBRANCH  24  25
ENDBRANCH  23  24
ENDBRANCH  19  20
ENDBRANCH  15  16
TORSDOF 9
ENDMDL
MODEL 3
REMARK VINA RESULT:      -9.2      4.834      6.021
REMARK  Name = 
REMARK  9 active torsions:
REMARK  status: ('A' for Active; 'I' for Inactive)
REMARK    1  A    between atoms: N_2  and  C_3
REMARK    2  A    between atoms: N_2  and  C_6
REMARK    3  A    between atoms: C_3  and  C_4
REMARK    4  A    between atoms: C_6  and  C_7
REMARK    5  A    between atoms: C_14  and  C_15
REMARK    6  A    between atoms: C_15  and  N_16
REMARK    7  A    between atoms: N_19  and  C_20
REMARK    8  A    between atoms: C_23  and  O_24
REMARK    9  A    between atoms: O_24  and  C_25
REMARK                            x       y       z     vdW  Elec       q    Type
REMARK                         _______ _______ _______ _____ _____    ______ ____
ROOT
ATOM     15  C   UNL     1      -0.163   0.695  23.676  0.00  0.00    +0.133 C 
ENDROOT
BRANCH  15  14
ATOM      7  C   UNL     1       2.016   0.297  22.834  0.00  0.00    +0.032 C 
ATOM      8  C   UNL     1       1.941   0.805  23.418  0.00  0.00    +0.073 C 
ATOM      9  N   UNL     1       1.330   0.384  23.056  0.00  0.00    -0.272 NA
ATOM     10  C   UNL     1       1.763  -0.211  22.310  0.00  0.00    +0.072 C 
ATOM     11  C   UNL     1       1.706  -0.649  21.828  0.00  0.00    +0.017 C 
ATOM     12  C   UNL     1       1.411  -0.112  22.484  0.00  0.00    +0.005 C 
ATOM     13  C   UNL     1       0.546  -0.122  22.630  0.00  0.00    +0.018 C 
ATOM     14  C   UNL     1       0.429   0.369  23.203  0.00  0.00    +0.079 C 
BRANCH   7   6
ATOM      6  C   UNL     1       2.778   0.162  22.545  0.00  0.00    +0.074 C 
BRANCH   6   2
ATOM      1  C   UNL     1       3.458   1.396  22.787  0.00  0.00    +0.090 C 
ATOM      2  N   UNL     1       3.418   0.575  22.862  0.00  0.00    -0.268 NA
BRANCH   2   3
ATOM      3  C   UNL     1       4.017   0.167  23.255  0.00  0.00    +0.099 C 
BRANCH   3   4
ATOM      4  C   UNL     1       4.800   0.419  23.189  0.00  0.00    -0.009 C 
ATOM      5  C   UNL     1       5.401   0.006  23.575  0.00  0.00    -0.003 C 
ENDBRANCH   3   4
ENDBRANCH   2   3
ENDBRANCH   6   2
ENDBRANCH   7   6
ENDBRANCH  15  14
BRANCH  15  16
ATOM     16  N   UNL     1      -0.907   0.850  23.355  0.00  0.00    -0.185 NA
ATOM     17  C   UNL     1      -1.527   1.085  23.846  0.00  0.00    +0.344 C 
ATOM     18  O   UNL     1      -1.403   1.163  24.658  0.00  0.00    -0.249 OA
ATOM     19  N   UNL     1      -2.271   1.240  23.525  0.00  0.00    -0.161 NA
BRANCH  19  20
ATOM     20  C   UNL     1      -2.891   1.474  24.017  0.00  0.00    +0.075 A 
ATOM     21  C   UNL     1      -3.022   2.276  24.162  0.00  0.00    +0.020 A 
ATOM     22  C   UNL     1      -3.642   2.510  24.654  0.00  0.00    +0.039 A 
ATOM     23  C   UNL     1      -4.131   1.943  25.000  0.00  0.00    +0.147 A 
ATOM     29  C   UNL     1      -4.001   1.142  24.855  0.00  0.00    +0.039 A 
ATOM     30  C   UNL     1      -3.380   0.907  24.363  0.00  0.00    +0.020 A 
BRANCH  23  24
ATOM     24  O   UNL     1      -4.751   2.178  25.491  0.00  0.00    -0.404 OA
BRANCH  24  25
ATOM     25  C   UNL     1      -5.531   2.124  25.227  0.00  0.00    +0.575 C 
ATOM     26  F   UNL     1      -6.310   2.070  24.964  0.00  0.00    -0.133 F 
ATOM     27  F   UNL     1      -5.594   1.376  25.568  0.00  0.00    -0.133 F 
ATOM     28  F   UNL     1      -5.466   2.873  24.886  0.00  0.00    -0.133 F 
ENDBRANCH  24  25
ENDBRANCH  23  24
ENDBRANCH  19  20
ENDBRANCH  15  16
TORSDOF 9
ENDMDL
MODEL 4
REMARK VINA RESULT:      -9.1      1.654      2.726
REMARK  Name = 
REMARK  9 active torsions:
REMARK  status: ('A' for Active; 'I' for Inactive)
REMARK    1  A    between atoms: N_2  and  C_3
REMARK    2  A    between atoms: N_2  and  C_6
REMARK    3  A    between atoms: C_3  and  C_4
REMARK    4  A    between atoms: C_6  and  C_7
REMARK    5  A    between atoms: C_14  and  C_15
REMARK    6  A    between atoms: C_15  and  N_16
REMARK    7  A    between atoms: N_19  and  C_20
REMARK    8  A    between atoms: C_23  and  O_24
REMARK    9  A    between atoms: O_24  and  C_25
REMARK                            x       y       z     vdW  Elec       q    Type
REMARK                         _______ _______ _______ _____ _____    ______ ____
ROOT
ATOM     15  C   UNL     1      -0.717   1.741  24.575  0.00  0.00    +0.133 C 
ENDROOT
BRANCH  15  14
ATOM      7  C   UNL     1      -2.293   3.481  24.897  0.00  0.00    +0.032 C 
ATOM      8  C   UNL     1      -2.546   2.817  24.579  0.00  0.00    +0.073 C 
ATOM      9  N   UNL     1      -1.773   2.979  24.819  0.00  0.00    -0.272 NA
ATOM     10  C   UNL     1      -1.765   3.954  25.202  0.00  0.00    +0.072 C 
ATOM     11  C   UNL     1      -1.445   4.456  25.471  0.00  0.00    +0.017 C 
ATOM     12  C   UNL     1      -1.532   3.632  25.129  0.00  0.00    +0.005 C 
ATOM     13  C   UNL     1      -0.802   3.145  25.105  0.00  0.00    +0.018 C 
ATOM     14  C   UNL     1      -1.010   2.479  24.797  0.00  0.00    +0.079 C 
BRANCH   7   6
ATOM      6  C   UNL     1      -2.847   4.083  25.006  0.00  0.00    +0.074 C 
BRANCH   6   2
ATOM      1  C   UNL     1      -3.883   4.012  24.024  0.00  0.00    +0.090 C 
ATOM      2  N   UNL     1      -3.638   3.956  24.810  0.00  0.00    -0.268 NA
BRANCH   2   3
ATOM      3  C   UNL     1      -4.184   3.772  25.400  0.00  0.00    +0.099 C 
BRANCH   3   4
ATOM      4  C   UNL     1      -4.991   3.880  25.264  0.00  0.00    -0.009 C 
ATOM      5  C   UNL     1      -5.545   3.510  25.750  0.00  0.00    -0.003 C 
ENDBRANCH   3   4
ENDBRANCH   2   3
ENDBRANCH   6   2
ENDBRANCH   7   6
ENDBRANCH  15  14
BRANCH  15  16
ATOM     16  N   UNL     1      -0.725   1.115  25.113  0.00  0.00    -0.185 NA
ATOM     17  C   UNL     1      -1.100   0.407  24.918  0.00  0.00    +0.344 C 
ATOM     18  O   UNL     1      -1.467   0.324  24.183  0.00  0.00    -0.249 OA
ATOM     19  N   UNL     1      -1.108  -0.218  25.456  0.00  0.00    -0.161 NA
BRANCH  19  20
ATOM     20  C   UNL     1      -1.484  -0.926  25.259  0.00  0.00    +0.075 A 
ATOM     21  C   UNL     1      -1.062  -1.525  24.879  0.00  0.00    +0.020 A 
ATOM     22  C   UNL     1      -1.438  -2.233  24.683  0.00  0.00    +0.039 A 
ATOM     23  C   UNL     1      -2.235  -2.343  24.867  0.00  0.00    +0.147 A 
ATOM     29  C   UNL     1      -2.656  -1.744  25.247  0.00  0.00    +0.039 A 
ATOM     30  C   UNL     1      -2.280  -1.036  25.443  0.00  0.00    +0.020 A 
BRANCH  23  24
ATOM     24  O   UNL     1      -2.609  -3.051  24.671  0.00  0.00    -0.404 OA
BRANCH  24  25
ATOM     25  C   UNL     1      -3.398  -3.048  24.432  0.00  0.00    +0.575 C 
ATOM     26  F   UNL     1      -4.188  -3.046  24.192  0.00  0.00    -0.133 F 
ATOM     27  F   UNL     1      -3.633  -3.215  25.205  0.00  0.00    -0.133 F 
ATOM     28  F   UNL     1      -3.163  -2.882  23.658  0.00  0.00    -0.133 F 
ENDBRANCH  24  25
ENDBRANCH  23  24
ENDBRANCH  19  20
ENDBRANCH  15  16
TORSDOF 9
ENDMDL
MODEL 5
REMARK VINA RESULT:      -9.0      2.966      5.978
REMARK  Name = 
REMARK  9 active torsions:
REMARK  status: ('A' for Active; 'I' for Inactive)
REMARK    1  A    between atoms: N_2  and  C_3
REMARK    2  A    between atoms: N_2  and  C_6
REMARK    3  A    between atoms: C_3  and  C_4
REMARK    4  A    between atoms: C_6  and  C_7
REMARK    5  A    between atoms: C_14  and  C_15
REMARK    6  A    between atoms: C_15  and  N_16
REMARK    7  A    between atoms: N_19  and  C_20
REMARK    8  A    between atoms: C_23  and  O_24
REMARK    9  A    between atoms: O_24  and  C_25
REMARK                            x       y       z     vdW  Elec       q    Type
REMARK                         _______ _______ _______ _____ _____    ______ ____
ROOT
ATOM     15  C   UNL     1      -4.498   0.739  24.989  0.00  0.00    +0.133 C 
ENDROOT
BRANCH  15  14
ATOM      7  C   UNL     1      -3.682  -1.455  24.620  0.00  0.00    +0.032 C 
ATOM      8  C   UNL     1      -3.346  -1.033  25.182  0.00  0.00    +0.073 C 
ATOM      9  N   UNL     1      -3.967  -0.790  24.694  0.00  0.00    -0.272 NA
ATOM     10  C   UNL     1      -4.184  -1.587  24.048  0.00  0.00    +0.072 C 
ATOM     11  C   UNL     1      -4.534  -1.843  23.561  0.00  0.00    +0.017 C 
ATOM     12  C   UNL     1      -4.290  -1.209  24.146  0.00  0.00    +0.005 C 
ATOM     13  C   UNL     1      -4.738  -0.455  24.106  0.00  0.00    +0.018 C 
ATOM     14  C   UNL     1      -4.436  -0.009  24.648  0.00  0.00    +0.079 C 
BRANCH   7   6
ATOM      6  C   UNL     1      -3.392  -2.219  24.497  0.00  0.00    +0.074 C 
BRANCH   6   2
ATOM      1  C   UNL     1      -2.794  -2.828  25.642  0.00  0.00    +0.090 C 
ATOM      2  N   UNL     1      -2.721  -2.475  24.900  0.00  0.00    -0.268 NA
BRANCH   2   3
ATOM      3  C   UNL     1      -1.975  -2.378  24.561  0.00  0.00    +0.099 C 
BRANCH   3   4
ATOM      4  C   UNL     1      -1.324  -2.778  24.873  0.00  0.00    -0.009 C 
ATOM      5  C   UNL     1      -0.562  -2.493  24.741  0.00  0.00    -0.003 C 
ENDBRANCH   3   4
ENDBRANCH   2   3
ENDBRANCH   6   2
ENDBRANCH   7   6
ENDBRANCH  15  14
BRANCH  15  16
ATOM     16  N   UNL     1      -4.336   1.412  24.539  0.00  0.00    -0.185 NA
ATOM     17  C   UNL     1      -3.828   1.991  24.832  0.00  0.00    +0.344 C 
ATOM     18  O   UNL     1      -3.481   1.898  25.575  0.00  0.00    -0.249 OA
ATOM     19  N   UNL     1      -3.666   2.664  24.383  0.00  0.00    -0.161 NA
BRANCH  19  20
ATOM     20  C   UNL     1      -3.157   3.243  24.676  0.00  0.00    +0.075 A 
ATOM     21  C   UNL     1      -3.460   3.884  25.098  0.00  0.00    +0.020 A 
ATOM     22  C   UNL     1      -2.951   4.463  25.392  0.00  0.00    +0.039 A 
ATOM     23  C   UNL     1      -2.139   4.402  25.263  0.00  0.00    +0.147 A 
ATOM     29  C   UNL     1      -1.835   3.762  24.841  0.00  0.00    +0.039 A 
ATOM     30  C   UNL     1      -2.344   3.182  24.548  0.00  0.00    +0.020 A 
BRANCH  23  24
ATOM     24  O   UNL     1      -1.630   4.982  25.557  0.00  0.00    -0.404 OA
BRANCH  24  25
ATOM     25  C   UNL     1      -1.036   5.292  25.076  0.00  0.00    +0.575 C 
ATOM     26  F   UNL     1      -0.442   5.602  24.596  0.00  0.00    -0.133 F 
ATOM     27  F   UNL     1      -0.522   4.698  25.328  0.00  0.00    -0.133 F 
ATOM     28  F   UNL     1      -1.551   5.886  24.825  0.00  0.00    -0.133 F 
ENDBRANCH  24  25
ENDBRANCH  23  24
ENDBRANCH  19  20
ENDBRANCH  15  16
TORSDOF 9
ENDMDL
MODEL 6
REMARK VINA RESULT:      -8.0     14.230     15.748
REMARK  Name = 
REMARK  9 active torsions:
REMARK  status: ('A' for Active; 'I' for Inactive)
REMARK    1  A    between atoms: N_2  and  C_3
REMARK    2  A    between atoms: N_2  and  C_6
REMARK    3  A    between atoms: C_3  and  C_4
REMARK    4  A    between atoms: C_6  and  C_7
REMARK    5  A    between atoms: C_14  and  C_15
REMARK    6  A    between atoms: C_15  and  N_16
REMARK    7  A    between atoms: N_19  and  C_20
REMARK    8  A    between atoms: C_23  and  O_24
REMARK    9  A    between atoms: O_24  and  C_25
REMARK                            x       y       z     vdW  Elec       q    Type
REMARK                         _______ _______ _______ _____ _____    ______ ____
ROOT
ATOM     15  C   UNL     1      -5.475 -10.184  15.126  0.00  0.00    +0.133 C 
ENDROOT
BRANCH  15  14
ATOM      7  C   UNL     1      -7.199  -9.762  16.696  0.00  0.00    +0.032 C 
ATOM      8  C   UNL     1      -7.361  -9.653  15.942  0.00  0.00    +0.073 C 
ATOM      9  N   UNL     1      -6.639  -9.904  16.255  0.00  0.00    -0.272 NA
ATOM     10  C   UNL     1      -6.751  -9.949  17.296  0.00  0.00    +0.072 C 
ATOM     11  C   UNL     1      -6.506 -10.071  17.889  0.00  0.00    +0.017 C 
ATOM     12  C   UNL     1      -6.488 -10.008  16.995  0.00  0.00    +0.005 C 
ATOM     13  C   UNL     1      -5.728 -10.218  16.608  0.00  0.00    +0.018 C 
ATOM     14  C   UNL     1      -5.846 -10.124  15.860  0.00  0.00    +0.079 C 
BRANCH   7   6
ATOM      6  C   UNL     1      -7.805  -9.613  17.237  0.00  0.00    +0.074 C 
BRANCH   6   2
ATOM      1  C   UNL     1      -9.011  -9.987  16.569  0.00  0.00    +0.090 C 
ATOM      2  N   UNL     1      -8.560  -9.423  16.968  0.00  0.00    -0.268 NA
BRANCH   2   3
ATOM      3  C   UNL     1      -8.866  -8.668  17.099  0.00  0.00    +0.099 C 
BRANCH   3   4
ATOM      4  C   UNL     1      -9.671  -8.569  17.251  0.00  0.00    -0.009 C 
ATOM      5  C   UNL     1      -9.980  -7.814  17.368  0.00  0.00    -0.003 C 
ENDBRANCH   3   4
ENDBRANCH   2   3
ENDBRANCH   6   2
ENDBRANCH   7   6
ENDBRANCH  15  14
BRANCH  15  16
ATOM     16  N   UNL     1      -4.711 -10.493  15.076  0.00  0.00    -0.185 NA
ATOM     17  C   UNL     1      -4.277 -10.408  14.380  0.00  0.00    +0.344 C 
ATOM     18  O   UNL     1      -4.606 -10.014  13.734  0.00  0.00    -0.249 OA
ATOM     19  N   UNL     1      -3.513 -10.716  14.329  0.00  0.00    -0.161 NA
BRANCH  19  20
ATOM     20  C   UNL     1      -3.079 -10.631  13.632  0.00  0.00    +0.075 A 
ATOM     21  C   UNL     1      -3.435 -10.781  12.904  0.00  0.00    +0.020 A 
ATOM     22  C   UNL     1      -3.001 -10.696  12.207  0.00  0.00    +0.039 A 
ATOM     23  C   UNL     1      -2.211 -10.459  12.239  0.00  0.00    +0.147 A 
ATOM     29  C   UNL     1      -1.855 -10.309  12.968  0.00  0.00    +0.039 A 
ATOM     30  C   UNL     1      -2.289 -10.394  13.665  0.00  0.00    +0.020 A 
BRANCH  23  24
ATOM     24  O   UNL     1      -1.778 -10.374  11.543  0.00  0.00    -0.404 OA
BRANCH  24  25
ATOM     25  C   UNL     1      -1.755  -9.645  11.157  0.00  0.00    +0.575 C 
ATOM     26  F   UNL     1      -1.732  -8.917  10.771  0.00  0.00    -0.133 F 
ATOM     27  F   UNL     1      -1.072  -9.446  11.574  0.00  0.00    -0.133 F 
ATOM     28  F   UNL     1      -2.438  -9.846  10.739  0.00  0.00    -0.133 F 
ENDBRANCH  24  25
ENDBRANCH  23  24
ENDBRANCH  19  20
ENDBRANCH  15  16
TORSDOF 9
ENDMDL
MODEL 7
REMARK VINA RESULT:      -7.9     14.589     16.350
REMARK  Name = 
REMARK  9 active torsions:
REMARK  status: ('A' for Active; 'I' for Inactive)
REMARK    1  A    between atoms: N_2  and  C_3
REMARK    2  A    between atoms: N_2  and  C_6
REMARK    3  A    between atoms: C_3  and  C_4
REMARK    4  A    between atoms: C_6  and  C_7
REMARK    5  A    between atoms: C_14  and  C_15
REMARK    6  A    between atoms: C_15  and  N_16
REMARK    7  A    between atoms: N_19  and  C_20
REMARK    8  A    between atoms: C_23  and  O_24
REMARK    9  A    between atoms: O_24  and  C_25
REMARK                            x       y       z     vdW  Elec       q    Type
REMARK                         _______ _______ _______ _____ _____    ______ ____
ROOT
ATOM     15  C   UNL     1      -5.353 -10.191  14.671  0.00  0.00    +0.133 C 
ENDROOT
BRANCH  15  14
ATOM      7  C   UNL     1      -6.353 -10.155  16.819  0.00  0.00    +0.032 C 
ATOM      8  C   UNL     1      -6.805  -9.994  16.207  0.00  0.00    +0.073 C 
ATOM      9  N   UNL     1      -6.001 -10.179  16.183  0.00  0.00    -0.272 NA
ATOM     10  C   UNL     1      -5.692 -10.341  17.172  0.00  0.00    +0.072 C 
ATOM     11  C   UNL     1      -5.224 -10.489  17.604  0.00  0.00    +0.017 C 
ATOM     12  C   UNL     1      -5.564 -10.336  16.788  0.00  0.00    +0.005 C 
ATOM     13  C   UNL     1      -5.002 -10.405  16.117  0.00  0.00    +0.018 C 
ATOM     14  C   UNL     1      -5.411 -10.253  15.491  0.00  0.00    +0.079 C 
BRANCH   7   6
ATOM      6  C   UNL     1      -6.707 -10.141  17.565  0.00  0.00    +0.074 C 
BRANCH   6   2
ATOM      1  C   UNL     1      -7.830  -9.288  17.334  0.00  0.00    +0.090 C 
ATOM      2  N   UNL     1      -7.514  -9.989  17.634  0.00  0.00    -0.268 NA
BRANCH   2   3
ATOM      3  C   UNL     1      -8.006 -10.537  18.005  0.00  0.00    +0.099 C 
BRANCH   3   4
ATOM      4  C   UNL     1      -8.664 -10.280  18.431  0.00  0.00    -0.009 C 
ATOM      5  C   UNL     1      -9.015 -10.777  18.988  0.00  0.00    -0.003 C 
ENDBRANCH   3   4
ENDBRANCH   2   3
ENDBRANCH   6   2
ENDBRANCH   7   6
ENDBRANCH  15  14
BRANCH  15  16
ATOM     16  N   UNL     1      -4.739 -10.571  14.271  0.00  0.00    -0.185 NA
ATOM     17  C   UNL     1      -4.583 -10.386  13.483  0.00  0.00    +0.344 C 
ATOM     18  O   UNL     1      -5.041  -9.822  13.093  0.00  0.00    -0.249 OA
ATOM     19  N   UNL     1      -3.969 -10.766  13.084  0.00  0.00    -0.161 NA
BRANCH  19  20
ATOM     20  C   UNL     1      -3.813 -10.581  12.295  0.00  0.00    +0.075 A 
ATOM     21  C   UNL     1      -3.113 -10.195  12.092  0.00  0.00    +0.020 A 
ATOM     22  C   UNL     1      -2.957 -10.010  11.303  0.00  0.00    +0.039 A 
ATOM     23  C   UNL     1      -3.501 -10.210  10.717  0.00  0.00    +0.147 A 
ATOM     29  C   UNL     1      -4.202 -10.596  10.919  0.00  0.00    +0.039 A 
ATOM     30  C   UNL     1      -4.358 -10.781  11.708  0.00  0.00    +0.020 A 
BRANCH  23  24
ATOM     24  O   UNL     1      -3.345 -10.025   9.929  0.00  0.00    -0.404 OA
BRANCH  24  25
ATOM     25  C   UNL     1      -3.612  -9.312   9.611  0.00  0.00    +0.575 C 
ATOM     26  F   UNL     1      -3.879  -8.598   9.294  0.00  0.00    -0.133 F 
ATOM     27  F   UNL     1      -2.926  -8.937   9.875  0.00  0.00    -0.133 F 
ATOM     28  F   UNL     1      -4.298  -9.687   9.347  0.00  0.00    -0.133 F 
ENDBRANCH  24  25
ENDBRANCH  23  24
ENDBRANCH  19  20
ENDBRANCH  15  16
TORSDOF 9
ENDMDL
MODEL 8
REMARK VINA RESULT:      -7.6     14.117     16.554
REMARK  Name = 
REMARK  9 active torsions:
REMARK  status: ('A' for Active; 'I' for Inactive)
REMARK    1  A    between atoms: N_2  and  C_3
REMARK    2  A    between atoms: N_2  and  C_6
REMARK    3  A    between atoms: C_3  and  C_4
REMARK    4  A    between atoms: C_6  and  C_7
REMARK    5  A    between atoms: C_14  and  C_15
REMARK    6  A    between atoms: C_15  and  N_16
REMARK    7  A    between atoms: N_19  and  C_20
REMARK    8  A    between atoms: C_23  and  O_24
REMARK    9  A    between atoms: O_24  and  C_25
REMARK                            x       y       z     vdW  Elec       q    Type
REMARK                         _______ _______ _______ _____ _____    ______ ____
ROOT
ATOM     15  C   UNL     1      -4.779 -10.691  13.755  0.00  0.00    +0.133 C 
ENDROOT
BRANCH  15  14
ATOM      7  C   UNL     1      -3.833 -10.144  11.653  0.00  0.00    +0.032 C 
ATOM      8  C   UNL     1      -4.592 -10.005  11.755  0.00  0.00    +0.073 C 
ATOM      9  N   UNL     1      -4.075 -10.328  12.313  0.00  0.00    -0.272 NA
ATOM     10  C   UNL     1      -3.130 -10.383  11.864  0.00  0.00    +0.072 C 
ATOM     11  C   UNL     1      -2.496 -10.540  11.891  0.00  0.00    +0.017 C 
ATOM     12  C   UNL     1      -3.332 -10.461  12.205  0.00  0.00    +0.005 C 
ATOM     13  C   UNL     1      -3.462 -10.731  13.030  0.00  0.00    +0.018 C 
ATOM     14  C   UNL     1      -4.203 -10.611  13.171  0.00  0.00    +0.079 C 
BRANCH   7   6
ATOM      6  C   UNL     1      -3.509  -9.951  10.918  0.00  0.00    +0.074 C 
BRANCH   6   2
ATOM      1  C   UNL     1      -4.251  -8.847  10.396  0.00  0.00    +0.090 C 
ATOM      2  N   UNL     1      -3.987  -9.626  10.330  0.00  0.00    -0.268 NA
BRANCH   2   3
ATOM      3  C   UNL     1      -4.202 -10.080   9.676  0.00  0.00    +0.099 C 
BRANCH   3   4
ATOM      4  C   UNL     1      -4.319  -9.719   8.943  0.00  0.00    -0.009 C 
ATOM      5  C   UNL     1      -4.526 -10.175   8.287  0.00  0.00    -0.003 C 
ENDBRANCH   3   4
ENDBRANCH   2   3
ENDBRANCH   6   2
ENDBRANCH   7   6
ENDBRANCH  15  14
BRANCH  15  16
ATOM     16  N   UNL     1      -4.631 -10.417  14.520  0.00  0.00    -0.185 NA
ATOM     17  C   UNL     1      -5.242 -10.388  15.073  0.00  0.00    +0.344 C 
ATOM     18  O   UNL     1      -6.001 -10.633  14.863  0.00  0.00    -0.249 OA
ATOM     19  N   UNL     1      -5.094 -10.115  15.837  0.00  0.00    -0.161 NA
BRANCH  19  20
ATOM     20  C   UNL     1      -5.705 -10.086  16.391  0.00  0.00    +0.075 A 
ATOM     21  C   UNL     1      -5.835 -10.725  16.896  0.00  0.00    +0.020 A 
ATOM     22  C   UNL     1      -6.446 -10.696  17.449  0.00  0.00    +0.039 A 
ATOM     23  C   UNL     1      -6.928 -10.028  17.498  0.00  0.00    +0.147 A 
ATOM     29  C   UNL     1      -6.798  -9.389  16.993  0.00  0.00    +0.039 A 
ATOM     30  C   UNL     1      -6.187  -9.418  16.439  0.00  0.00    +0.020 A 
BRANCH  23  24
ATOM     24  O   UNL     1      -7.539 -10.000  18.051  0.00  0.00    -0.404 OA
BRANCH  24  25
ATOM     25  C   UNL     1      -8.323  -9.960  17.799  0.00  0.00    +0.575 C 
ATOM     26  F   UNL     1      -9.108  -9.919  17.547  0.00  0.00    -0.133 F 
ATOM     27  F   UNL     1      -8.342 -10.781  17.725  0.00  0.00    -0.133 F 
ATOM     28  F   UNL     1      -8.304  -9.138  17.873  0.00  0.00    -0.133 F 
ENDBRANCH  24  25
ENDBRANCH  23  24
ENDBRANCH  19  20
ENDBRANCH  15  16
TORSDOF 9
ENDMDL
MODEL 9
REMARK VINA RESULT:      -7.5     13.857     14.731
REMARK  Name = 
REMARK  9 active torsions:
REMARK  status: ('A' for Active; 'I' for Inactive)
REMARK    1  A    between atoms: N_2  and  C_3
REMARK    2  A    between atoms: N_2  and  C_6
REMARK    3  A    between atoms: C_3  and  C_4
REMARK    4  A    between atoms: C_6  and  C_7
REMARK    5  A    between atoms: C_14  and  C_15
REMARK    6  A    between atoms: C_15  and  N_16
REMARK    7  A    between atoms: N_19  and  C_20
REMARK    8  A    between atoms: C_23  and  O_24
REMARK    9  A    between atoms: O_24  and  C_25
REMARK                            x       y       z     vdW  Elec       q    Type
REMARK                         _______ _______ _______ _____ _____    ______ ____
ROOT
ATOM     15  C   UNL     1      -6.376  -9.780  16.072  0.00  0.00    +0.133 C 
ENDROOT
BRANCH  15  14
ATOM      7  C   UNL     1      -8.571  -9.233  16.778  0.00  0.00    +0.032 C 
ATOM      8  C   UNL     1      -8.317  -8.923  16.111  0.00  0.00    +0.073 C 
ATOM      9  N   UNL     1      -7.893  -9.431  16.604  0.00  0.00    -0.272 NA
ATOM     10  C   UNL     1      -8.515  -9.665  17.415  0.00  0.00    +0.072 C 
ATOM     11  C   UNL     1      -8.619  -9.978  17.979  0.00  0.00    +0.017 C 
ATOM     12  C   UNL     1      -8.148  -9.731  17.257  0.00  0.00    +0.005 C 
ATOM     13  C   UNL     1      -7.337 -10.059  17.194  0.00  0.00    +0.018 C 
ATOM     14  C   UNL     1      -7.050  -9.776  16.546  0.00  0.00    +0.079 C 
BRANCH   7   6
ATOM      6  C   UNL     1      -9.337  -9.038  17.018  0.00  0.00    +0.074 C 
BRANCH   6   2
ATOM      1  C   UNL     1     -10.054  -8.681  15.835  0.00  0.00    +0.090 C 
ATOM      2  N   UNL     1      -9.776  -8.489  16.588  0.00  0.00    -0.268 NA
BRANCH   2   3
ATOM      3  C   UNL     1      -9.938  -7.748  16.911  0.00  0.00    +0.099 C 
BRANCH   3   4
ATOM      4  C   UNL     1     -10.668  -7.389  16.774  0.00  0.00    -0.009 C 
ATOM      5  C   UNL     1     -10.719  -6.568  16.713  0.00  0.00    -0.003 C 
ENDBRANCH   3   4
ENDBRANCH   2   3
ENDBRANCH   6   2
ENDBRANCH   7   6
ENDBRANCH  15  14
BRANCH  15  16
ATOM     16  N   UNL     1      -5.780 -10.334  16.208  0.00  0.00    -0.185 NA
ATOM     17  C   UNL     1      -5.031 -10.223  15.882  0.00  0.00    +0.344 C 
ATOM     18  O   UNL     1      -4.877  -9.557  15.420  0.00  0.00    -0.249 OA
ATOM     19  N   UNL     1      -4.435 -10.777  16.018  0.00  0.00    -0.161 NA
BRANCH  19  20
ATOM     20  C   UNL     1      -3.685 -10.666  15.692  0.00  0.00    +0.075 A 
ATOM     21  C   UNL     1      -3.055 -10.438  16.174  0.00  0.00    +0.020 A 
ATOM     22  C   UNL     1      -2.306 -10.327  15.848  0.00  0.00    +0.039 A 
ATOM     23  C   UNL     1      -2.186 -10.442  15.040  0.00  0.00    +0.147 A 
ATOM     29  C   UNL     1      -2.815 -10.669  14.558  0.00  0.00    +0.039 A 
ATOM     30  C   UNL     1      -3.565 -10.781  14.884  0.00  0.00    +0.020 A 
BRANCH  23  24
ATOM     24  O   UNL     1      -1.436 -10.330  14.714  0.00  0.00    -0.404 OA
BRANCH  24  25
ATOM     25  C   UNL     1      -1.103  -9.576  14.693  0.00  0.00    +0.575 C 
ATOM     26  F   UNL     1      -0.770  -8.821  14.673  0.00  0.00    -0.133 F 
ATOM     27  F   UNL     1      -0.721  -9.724  15.409  0.00  0.00    -0.133 F 
ATOM     28  F   UNL     1      -1.485  -9.428  13.977  0.00  0.00    -0.133 F 
ENDBRANCH  24  25
ENDBRANCH  23  24
ENDBRANCH  19  20
ENDBRANCH  15  16
TORSDOF 9
ENDMDL
MODEL 10
REMARK VINA RESULT:      -7.3     14.344     16.298
REMARK  Name = 
REMARK  9 active torsions:
REMARK  status: ('A' for Active; 'I' for Inactive)
REMARK    1  A    between atoms: N_2  and  C_3
REMARK    2  A    between atoms: N_2  and  C_6
REMARK    3  A    between atoms: C_3  and  C_4
REMARK    4  A    between atoms: C_6  and  C_7
REMARK    5  A    between atoms: C_14  and  C_15
REMARK    6  A    between atoms: C_15  and  N_16
REMARK    7  A    between atoms: N_19  and  C_20
REMARK    8  A    between atoms: C_23  and  O_24
REMARK    9  A    between atoms: O_24  and  C_25
REMARK                            x       y       z     vdW  Elec       q    Type
REMARK                         _______ _______ _______ _____ _____    ______ ____
ROOT
ATOM     15  C   UNL     1      -5.985  -9.984  14.284  0.00  0.00    +0.133 C 
ENDROOT
BRANCH  15  14
ATOM      7  C   UNL     1      -6.333  -9.995  16.628  0.00  0.00    +0.032 C 
ATOM      8  C   UNL     1      -5.618 -10.157  16.367  0.00  0.00    +0.073 C 
ATOM      9  N   UNL     1      -6.277  -9.979  15.903  0.00  0.00    -0.272 NA
ATOM     10  C   UNL     1      -7.080  -9.812  16.556  0.00  0.00    +0.072 C 
ATOM     11  C   UNL     1      -7.708  -9.665  16.658  0.00  0.00    +0.017 C 
ATOM     12  C   UNL     1      -6.975  -9.822  16.166  0.00  0.00    +0.005 C 
ATOM     13  C   UNL     1      -7.075  -9.762  15.296  0.00  0.00    +0.018 C 
ATOM     14  C   UNL     1      -6.389  -9.916  14.999  0.00  0.00    +0.079 C 
BRANCH   7   6
ATOM      6  C   UNL     1      -6.448 -10.001  17.446  0.00  0.00    +0.074 C 
BRANCH   6   2
ATOM      1  C   UNL     1      -5.072 -10.207  17.770  0.00  0.00    +0.090 C 
ATOM      2  N   UNL     1      -5.871 -10.320  17.940  0.00  0.00    -0.268 NA
BRANCH   2   3
ATOM      3  C   UNL     1      -6.093 -10.754  18.606  0.00  0.00    +0.099 C 
BRANCH   3   4
ATOM      4  C   UNL     1      -5.647 -10.706  19.298  0.00  0.00    -0.009 C 
ATOM      5  C   UNL     1      -6.014 -10.781  20.032  0.00  0.00    -0.003 C 
ENDBRANCH   3   4
ENDBRANCH   2   3
ENDBRANCH   6   2
ENDBRANCH   7   6
ENDBRANCH  15  14
BRANCH  15  16
ATOM     16  N   UNL     1      -6.345  -9.739  13.583  0.00  0.00    -0.185 NA
ATOM     17  C   UNL     1      -5.909  -9.709  12.883  0.00  0.00    +0.344 C 
ATOM     18  O   UNL     1      -5.113  -9.925  12.884  0.00  0.00    -0.249 OA
ATOM     19  N   UNL     1      -6.269  -9.463  12.183  0.00  0.00    -0.161 NA
BRANCH  19  20
ATOM     20  C   UNL     1      -5.832  -9.434  11.483  0.00  0.00    +0.075 A 
ATOM     21  C   UNL     1      -5.494  -8.723  11.238  0.00  0.00    +0.020 A 
ATOM     22  C   UNL     1      -5.057  -8.693  10.538  0.00  0.00    +0.039 A 
ATOM     23  C   UNL     1      -4.959  -9.375  10.084  0.00  0.00    +0.147 A 
ATOM     29  C   UNL     1      -5.298 -10.086  10.329  0.00  0.00    +0.039 A 
ATOM     30  C   UNL     1      -5.734 -10.116  11.029  0.00  0.00    +0.020 A 
BRANCH  23  24
ATOM     24  O   UNL     1      -4.523  -9.345   9.385  0.00  0.00    -0.404 OA
BRANCH  24  25
ATOM     25  C   UNL     1      -3.722  -9.146   9.406  0.00  0.00    +0.575 C 
ATOM     26  F   UNL     1      -2.922  -8.947   9.426  0.00  0.00    -0.133 F 
ATOM     27  F   UNL     1      -3.910  -8.370   9.197  0.00  0.00    -0.133 F 
ATOM     28  F   UNL     1      -3.536  -9.923   9.614  0.00  0.00    -0.133 F 
ENDBRANCH  24  25
ENDBRANCH  23  24
ENDBRANCH  19  20
ENDBRANCH  15  16
TORSDOF 9
ENDMDL
