MODEL 1
REMARK VINA RESULT:      -8.4      0.000      0.000
REMARK  Name = 
REMARK  7 active torsions:
REMARK  status: ('A' for Active; 'I' for Inactive)
REMARK    1  A    between atoms: C_2  and  C_4
REMARK    2  A    between atoms: N_7  and  C_10
REMARK    3  A    between atoms: C_13  and  C_16
REMARK    4  A    between atoms: C_19  and  C_21
REMARK    5  A    between atoms: N_25  and  C_26
REMARK    6  A    between atoms: C_26  and  C_27
REMARK    7  A    between atoms: C_30  and  C_33
REMARK                            x       y       z     vdW  Elec       q    Type
REMARK                         _______ _______ _______ _____ _____    ______ ____
ROOT
ATOM     16  C   UNL     1      -1.449  -0.089  24.586  0.00  0.00    +0.205 A 
ATOM     17  N   UNL     1      -1.614  -0.402  25.332  0.00  0.00    -0.056 NA
ATOM     18  O   UNL     1      -2.433  -0.397  25.434  0.00  0.00    -0.336 OA
ATOM     19  C   UNL     1      -2.774  -0.082  24.752  0.00  0.00    +0.251 A 
ATOM     20  N   UNL     1      -2.166   0.108  24.228  0.00  0.00    -0.190 NA
ENDROOT
BRANCH  16  13
ATOM     10  C   UNL     1       0.801   0.204  23.598  0.00  0.00    +0.132 A 
ATOM     11  C   UNL     1       0.348   0.864  23.796  0.00  0.00    +0.034 A 
ATOM     12  C   UNL     1      -0.402   0.766  24.125  0.00  0.00    +0.008 A 
ATOM     13  C   UNL     1      -0.699   0.008  24.256  0.00  0.00    +0.058 A 
ATOM     14  C   UNL     1      -0.247  -0.653  24.058  0.00  0.00    +0.103 A 
ATOM     15  N   UNL     1       0.503  -0.555  23.729  0.00  0.00    -0.229 NA
BRANCH  10   7
ATOM      4  C   UNL     1       3.051   0.497  22.609  0.00  0.00    +0.083 C 
ATOM      5  C   UNL     1       2.777   1.028  23.178  0.00  0.00    +0.031 C 
ATOM      6  C   UNL     1       2.027   0.930  23.507  0.00  0.00    +0.093 C 
ATOM      7  N   UNL     1       1.551   0.301  23.268  0.00  0.00    -0.293 N 
ATOM      8  C   UNL     1       1.824  -0.231  22.700  0.00  0.00    +0.093 C 
ATOM      9  C   UNL     1       2.574  -0.133  22.370  0.00  0.00    +0.031 C 
BRANCH   4   2
ATOM      1  N   UNL     1       4.473   0.487  22.747  0.00  0.00    -0.088 NA
ATOM      2  C   UNL     1       3.801   0.594  22.280  0.00  0.00    +0.260 C 
ATOM      3  O   UNL     1       3.878   0.799  21.485  0.00  0.00    -0.272 OA
ENDBRANCH   4   2
ENDBRANCH  10   7
ENDBRANCH  16  13
BRANCH  19  21
ATOM     21  C   UNL     1      -3.581   0.024  24.618  0.00  0.00    +0.138 C 
ATOM     22  C   UNL     1      -4.105  -0.548  24.338  0.00  0.00    +0.027 C 
ATOM     23  C   UNL     1      -4.853  -0.205  24.286  0.00  0.00    +0.019 C 
ATOM     24  C   UNL     1      -4.792   0.580  24.534  0.00  0.00    +0.073 C 
ATOM     25  N   UNL     1      -4.005   0.721  24.739  0.00  0.00    -0.263 NA
BRANCH  25  26
ATOM     26  C   UNL     1      -3.697   1.434  25.017  0.00  0.00    +0.099 C 
BRANCH  26  27
ATOM     27  C   UNL     1      -4.196   2.080  25.137  0.00  0.00    -0.006 A 
ATOM     28  C   UNL     1      -4.744   2.068  25.754  0.00  0.00    -0.002 A 
ATOM     29  C   UNL     1      -5.243   2.714  25.875  0.00  0.00    +0.010 A 
ATOM     30  C   UNL     1      -5.194   3.372  25.378  0.00  0.00    +0.068 A 
ATOM     31  C   UNL     1      -4.646   3.383  24.762  0.00  0.00    +0.010 A 
ATOM     32  C   UNL     1      -4.147   2.738  24.641  0.00  0.00    -0.002 A 
BRANCH  30  33
ATOM     33  C   UNL     1      -5.693   4.018  25.499  0.00  0.00    +0.100 C 
ATOM     34  N   UNL     1      -6.192   4.663  25.620  0.00  0.00    -0.191 NA
ENDBRANCH  30  33
ENDBRANCH  26  27
ENDBRANCH  25  26
ENDBRANCH  19  21
TORSDOF 7
ENDMDL
MODEL 2
REMARK VINA RESULT:      -7.5      1.591      7.237
REMARK  Name = 
REMARK  7 active torsions:
REMARK  status: ('A' for Active; 'I' for Inactive)
REMARK    1  A    between atoms: C_2  and  C_4
REMARK    2  A    between atoms: N_7  and  C_10
REMARK    3  A    between atoms: C_13  and  C_16
REMARK    4  A    between atoms: C_19  and  C_21
REMARK    5  A    between atoms: N_25  and  C_26
REMARK    6  A    between atoms: C_26  and  C_27
REMARK    7  A    between atoms: C_30  and  C_33
REMARK                            x       y       z     vdW  Elec       q    Type
REMARK                         _______ _______ _______ _____ _____    ______ ____
ROOT
ATOM     16  C   UNL     1      -0.450   0.379  23.834  0.00  0.00    +0.205 A 
ATOM     17  N   UNL     1      -0.058  -0.199  24.273  0.00  0.00    -0.056 NA
ATOM     18  O   UNL     1       0.568  -0.485  23.817  0.00  0.00    -0.336 OA
ATOM     19  C   UNL     1       0.562  -0.084  23.096  0.00  0.00    +0.251 A 
ATOM     20  N   UNL     1      -0.067   0.450  23.107  0.00  0.00    -0.190 NA
ENDROOT
BRANCH  16  13
ATOM     10  C   UNL     1      -2.428   1.672  24.570  0.00  0.00    +0.132 A 
ATOM     11  C   UNL     1      -1.979   1.934  23.930  0.00  0.00    +0.034 A 
ATOM     12  C   UNL     1      -1.319   1.503  23.684  0.00  0.00    +0.008 A 
ATOM     13  C   UNL     1      -1.109   0.810  24.079  0.00  0.00    +0.058 A 
ATOM     14  C   UNL     1      -1.558   0.548  24.720  0.00  0.00    +0.103 A 
ATOM     15  N   UNL     1      -2.218   0.979  24.965  0.00  0.00    -0.229 NA
BRANCH  10   7
ATOM      4  C   UNL     1      -4.406   2.965  25.306  0.00  0.00    +0.083 C 
ATOM      5  C   UNL     1      -3.648   3.221  25.506  0.00  0.00    +0.031 C 
ATOM      6  C   UNL     1      -2.988   2.790  25.260  0.00  0.00    +0.093 C 
ATOM      7  N   UNL     1      -3.087   2.103  24.815  0.00  0.00    -0.293 N 
ATOM      8  C   UNL     1      -3.845   1.846  24.615  0.00  0.00    +0.093 C 
ATOM      9  C   UNL     1      -4.505   2.277  24.860  0.00  0.00    +0.031 C 
BRANCH   4   2
ATOM      1  N   UNL     1      -5.593   3.068  26.094  0.00  0.00    -0.088 NA
ATOM      2  C   UNL     1      -5.065   3.396  25.551  0.00  0.00    +0.260 C 
ATOM      3  O   UNL     1      -5.196   4.154  25.254  0.00  0.00    -0.272 OA
ENDBRANCH   4   2
ENDBRANCH  10   7
ENDBRANCH  16  13
BRANCH  19  21
ATOM     21  C   UNL     1       1.091  -0.197  22.474  0.00  0.00    +0.138 C 
ATOM     22  C   UNL     1       0.913  -0.527  21.739  0.00  0.00    +0.027 C 
ATOM     23  C   UNL     1       1.603  -0.533  21.288  0.00  0.00    +0.019 C 
ATOM     24  C   UNL     1       2.209  -0.207  21.744  0.00  0.00    +0.073 C 
ATOM     25  N   UNL     1       1.892   0.001  22.477  0.00  0.00    -0.263 NA
BRANCH  25  26
ATOM     26  C   UNL     1       2.305   0.345  23.103  0.00  0.00    +0.099 C 
BRANCH  26  27
ATOM     27  C   UNL     1       3.126   0.281  23.141  0.00  0.00    -0.006 A 
ATOM     28  C   UNL     1       3.473  -0.403  23.443  0.00  0.00    -0.002 A 
ATOM     29  C   UNL     1       4.295  -0.467  23.481  0.00  0.00    +0.010 A 
ATOM     30  C   UNL     1       4.769   0.154  23.217  0.00  0.00    +0.068 A 
ATOM     31  C   UNL     1       4.422   0.839  22.915  0.00  0.00    +0.010 A 
ATOM     32  C   UNL     1       3.601   0.902  22.877  0.00  0.00    -0.002 A 
BRANCH  30  33
ATOM     33  C   UNL     1       5.591   0.090  23.255  0.00  0.00    +0.100 C 
ATOM     34  N   UNL     1       6.413   0.026  23.293  0.00  0.00    -0.191 NA
ENDBRANCH  30  33
ENDBRANCH  26  27
ENDBRANCH  25  26
ENDBRANCH  19  21
TORSDOF 7
ENDMDL
MODEL 3
REMARK VINA RESULT:      -6.8      1.389      2.905
REMARK  Name = 
REMARK  7 active torsions:
REMARK  status: ('A' for Active; 'I' for Inactive)
REMARK    1  A    between atoms: C_2  and  C_4
REMARK    2  A    between atoms: N_7  and  C_10
REMARK    3  A    between atoms: C_13  and  C_16
REMARK    4  A    between atoms: C_19  and  C_21
REMARK    5  A    between atoms: N_25  and  C_26
REMARK    6  A    between atoms: C_26  and  C_27
REMARK    7  A    between atoms: C_30  and  C_33
REMARK                            x       y       z     vdW  Elec       q    Type
REMARK                         _______ _______ _______ _____ _____    ______ ____
ROOT
ATOM     16  C   UNL     1      -1.259   1.688  24.646  0.00  0.00    +0.205 A 
ATOM     17  N   UNL     1      -1.395   2.127  25.332  0.00  0.00    -0.056 NA
ATOM     18  O   UNL     1      -2.211   2.175  25.446  0.00  0.00    -0.336 OA
ATOM     19  C   UNL     1      -2.579   1.767  24.831  0.00  0.00    +0.251 A 
ATOM     20  N   UNL     1      -1.991   1.466  24.337  0.00  0.00    -0.190 NA
ENDROOT
BRANCH  16  13
ATOM     10  C   UNL     1       0.955   1.136  23.686  0.00  0.00    +0.132 A 
ATOM     11  C   UNL     1       0.305   0.652  23.531  0.00  0.00    +0.034 A 
ATOM     12  C   UNL     1      -0.433   0.836  23.851  0.00  0.00    +0.008 A 
ATOM     13  C   UNL     1      -0.521   1.504  24.326  0.00  0.00    +0.058 A 
ATOM     14  C   UNL     1       0.128   1.989  24.483  0.00  0.00    +0.103 A 
ATOM     15  N   UNL     1       0.866   1.805  24.163  0.00  0.00    -0.229 NA
BRANCH  10   7
ATOM      4  C   UNL     1       3.168   0.585  22.727  0.00  0.00    +0.083 C 
ATOM      5  C   UNL     1       3.040   1.323  23.072  0.00  0.00    +0.031 C 
ATOM      6  C   UNL     1       2.302   1.507  23.392  0.00  0.00    +0.093 C 
ATOM      7  N   UNL     1       1.692   0.952  23.367  0.00  0.00    -0.293 N 
ATOM      8  C   UNL     1       1.820   0.213  23.022  0.00  0.00    +0.093 C 
ATOM      9  C   UNL     1       2.557   0.030  22.702  0.00  0.00    +0.031 C 
BRANCH   4   2
ATOM      1  N   UNL     1       4.523   0.165  22.902  0.00  0.00    -0.088 NA
ATOM      2  C   UNL     1       3.906   0.401  22.407  0.00  0.00    +0.260 C 
ATOM      3  O   UNL     1       4.027   0.452  21.593  0.00  0.00    -0.272 OA
ENDBRANCH   4   2
ENDBRANCH  10   7
ENDBRANCH  16  13
BRANCH  19  21
ATOM     21  C   UNL     1      -3.392   1.675  24.728  0.00  0.00    +0.138 C 
ATOM     22  C   UNL     1      -3.899   2.216  24.365  0.00  0.00    +0.027 C 
ATOM     23  C   UNL     1      -4.662   1.903  24.383  0.00  0.00    +0.019 C 
ATOM     24  C   UNL     1      -4.627   1.168  24.756  0.00  0.00    +0.073 C 
ATOM     25  N   UNL     1      -3.842   1.027  24.970  0.00  0.00    -0.263 NA
BRANCH  25  26
ATOM     26  C   UNL     1      -3.558   0.357  25.357  0.00  0.00    +0.099 C 
BRANCH  26  27
ATOM     27  C   UNL     1      -3.692  -0.392  25.039  0.00  0.00    -0.006 A 
ATOM     28  C   UNL     1      -4.136  -0.473  24.349  0.00  0.00    -0.002 A 
ATOM     29  C   UNL     1      -4.271  -1.222  24.030  0.00  0.00    +0.010 A 
ATOM     30  C   UNL     1      -3.962  -1.890  24.403  0.00  0.00    +0.068 A 
ATOM     31  C   UNL     1      -3.518  -1.809  25.093  0.00  0.00    +0.010 A 
ATOM     32  C   UNL     1      -3.383  -1.060  25.411  0.00  0.00    -0.002 A 
BRANCH  30  33
ATOM     33  C   UNL     1      -4.097  -2.640  24.084  0.00  0.00    +0.100 C 
ATOM     34  N   UNL     1      -4.232  -3.388  23.766  0.00  0.00    -0.191 NA
ENDBRANCH  30  33
ENDBRANCH  26  27
ENDBRANCH  25  26
ENDBRANCH  19  21
TORSDOF 7
ENDMDL
MODEL 4
REMARK VINA RESULT:      -6.8     14.429     15.808
REMARK  Name = 
REMARK  7 active torsions:
REMARK  status: ('A' for Active; 'I' for Inactive)
REMARK    1  A    between atoms: C_2  and  C_4
REMARK    2  A    between atoms: N_7  and  C_10
REMARK    3  A    between atoms: C_13  and  C_16
REMARK    4  A    between atoms: C_19  and  C_21
REMARK    5  A    between atoms: N_25  and  C_26
REMARK    6  A    between atoms: C_26  and  C_27
REMARK    7  A    between atoms: C_30  and  C_33
REMARK                            x       y       z     vdW  Elec       q    Type
REMARK                         _______ _______ _______ _____ _____    ______ ____
ROOT
ATOM     16  C   UNL     1      -7.674  -9.938  14.022  0.00  0.00    +0.205 A 
ATOM     17  N   UNL     1      -8.234 -10.541  14.081  0.00  0.00    -0.056 NA
ATOM     18  O   UNL     1      -8.643 -10.440  14.791  0.00  0.00    -0.336 OA
ATOM     19  C   UNL     1      -8.335  -9.775  15.170  0.00  0.00    +0.251 A 
ATOM     20  N   UNL     1      -7.736  -9.465  14.694  0.00  0.00    -0.190 NA
ENDROOT
BRANCH  16  13
ATOM     10  C   UNL     1      -6.084  -9.608  12.153  0.00  0.00    +0.132 A 
ATOM     11  C   UNL     1      -5.843 -10.004  12.835  0.00  0.00    +0.034 A 
ATOM     12  C   UNL     1      -6.373 -10.114  13.458  0.00  0.00    +0.008 A 
ATOM     13  C   UNL     1      -7.144  -9.828  13.399  0.00  0.00    +0.058 A 
ATOM     14  C   UNL     1      -7.386  -9.431  12.717  0.00  0.00    +0.103 A 
ATOM     15  N   UNL     1      -6.857  -9.321  12.094  0.00  0.00    -0.229 NA
BRANCH  10   7
ATOM      4  C   UNL     1      -4.495  -9.278  10.285  0.00  0.00    +0.083 C 
ATOM      5  C   UNL     1      -4.935  -8.641  10.570  0.00  0.00    +0.031 C 
ATOM      6  C   UNL     1      -5.465  -8.751  11.193  0.00  0.00    +0.093 C 
ATOM      7  N   UNL     1      -5.555  -9.498  11.530  0.00  0.00    -0.293 N 
ATOM      8  C   UNL     1      -5.115 -10.136  11.246  0.00  0.00    +0.093 C 
ATOM      9  C   UNL     1      -4.586 -10.026  10.623  0.00  0.00    +0.031 C 
BRANCH   4   2
ATOM      1  N   UNL     1      -3.191  -8.931   9.817  0.00  0.00    -0.088 NA
ATOM      2  C   UNL     1      -3.966  -9.168   9.662  0.00  0.00    +0.260 C 
ATOM      3  O   UNL     1      -4.211  -9.295   8.885  0.00  0.00    -0.272 OA
ENDBRANCH   4   2
ENDBRANCH  10   7
ENDBRANCH  16  13
BRANCH  19  21
ATOM     21  C   UNL     1      -8.583  -9.473  15.896  0.00  0.00    +0.138 C 
ATOM     22  C   UNL     1      -9.121  -8.857  16.008  0.00  0.00    +0.027 C 
ATOM     23  C   UNL     1      -9.207  -8.736  16.819  0.00  0.00    +0.019 C 
ATOM     24  C   UNL     1      -8.722  -9.278  17.210  0.00  0.00    +0.073 C 
ATOM     25  N   UNL     1      -8.336  -9.733  16.639  0.00  0.00    -0.263 NA
BRANCH  25  26
ATOM     26  C   UNL     1      -7.798 -10.341  16.787  0.00  0.00    +0.099 C 
BRANCH  26  27
ATOM     27  C   UNL     1      -7.444 -10.408  17.528  0.00  0.00    -0.006 A 
ATOM     28  C   UNL     1      -7.875 -10.701  18.167  0.00  0.00    -0.002 A 
ATOM     29  C   UNL     1      -7.520 -10.768  18.909  0.00  0.00    +0.010 A 
ATOM     30  C   UNL     1      -6.734 -10.541  19.011  0.00  0.00    +0.068 A 
ATOM     31  C   UNL     1      -6.302 -10.248  18.372  0.00  0.00    +0.010 A 
ATOM     32  C   UNL     1      -6.657 -10.181  17.631  0.00  0.00    -0.002 A 
BRANCH  30  33
ATOM     33  C   UNL     1      -6.379 -10.608  19.754  0.00  0.00    +0.100 C 
ATOM     34  N   UNL     1      -6.024 -10.675  20.495  0.00  0.00    -0.191 NA
ENDBRANCH  30  33
ENDBRANCH  26  27
ENDBRANCH  25  26
ENDBRANCH  19  21
TORSDOF 7
ENDMDL
MODEL 5
REMARK VINA RESULT:      -6.2     15.472     17.092
REMARK  Name = 
REMARK  7 active torsions:
REMARK  status: ('A' for Active; 'I' for Inactive)
REMARK    1  A    between atoms: C_2  and  C_4
REMARK    2  A    between atoms: N_7  and  C_10
REMARK    3  A    between atoms: C_13  and  C_16
REMARK    4  A    between atoms: C_19  and  C_21
REMARK    5  A    between atoms: N_25  and  C_26
REMARK    6  A    between atoms: C_26  and  C_27
REMARK    7  A    between atoms: C_30  and  C_33
REMARK                            x       y       z     vdW  Elec       q    Type
REMARK                         _______ _______ _______ _____ _____    ______ ____
ROOT
ATOM     16  C   UNL     1      -5.492 -10.131  12.694  0.00  0.00    +0.205 A 
ATOM     17  N   UNL     1      -5.337 -10.768  12.193  0.00  0.00    -0.056 NA
ATOM     18  O   UNL     1      -5.301 -10.481  11.420  0.00  0.00    -0.336 OA
ATOM     19  C   UNL     1      -5.434  -9.667  11.444  0.00  0.00    +0.251 A 
ATOM     20  N   UNL     1      -5.552  -9.451  12.232  0.00  0.00    -0.190 NA
ENDROOT
BRANCH  16  13
ATOM     10  C   UNL     1      -5.734 -10.244  15.155  0.00  0.00    +0.132 A 
ATOM     11  C   UNL     1      -6.404 -10.227  14.674  0.00  0.00    +0.034 A 
ATOM     12  C   UNL     1      -6.323 -10.190  13.854  0.00  0.00    +0.008 A 
ATOM     13  C   UNL     1      -5.572 -10.169  13.514  0.00  0.00    +0.058 A 
ATOM     14  C   UNL     1      -4.901 -10.185  13.994  0.00  0.00    +0.103 A 
ATOM     15  N   UNL     1      -4.982 -10.223  14.814  0.00  0.00    -0.229 NA
BRANCH  10   7
ATOM      4  C   UNL     1      -5.975 -10.356  17.615  0.00  0.00    +0.083 C 
ATOM      5  C   UNL     1      -5.344 -10.736  17.245  0.00  0.00    +0.031 C 
ATOM      6  C   UNL     1      -5.264 -10.699  16.425  0.00  0.00    +0.093 C 
ATOM      7  N   UNL     1      -5.814 -10.281  15.975  0.00  0.00    -0.293 N 
ATOM      8  C   UNL     1      -6.446  -9.900  16.345  0.00  0.00    +0.093 C 
ATOM      9  C   UNL     1      -6.527  -9.938  17.165  0.00  0.00    +0.031 C 
BRANCH   4   2
ATOM      1  N   UNL     1      -6.717 -10.061  18.800  0.00  0.00    -0.088 NA
ATOM      2  C   UNL     1      -6.056 -10.394  18.436  0.00  0.00    +0.260 C 
ATOM      3  O   UNL     1      -5.476 -10.763  18.890  0.00  0.00    -0.272 OA
ENDBRANCH   4   2
ENDBRANCH  10   7
ENDBRANCH  16  13
BRANCH  19  21
ATOM     21  C   UNL     1      -5.447  -9.159  10.795  0.00  0.00    +0.138 C 
ATOM     22  C   UNL     1      -4.855  -8.623  10.586  0.00  0.00    +0.027 C 
ATOM     23  C   UNL     1      -5.095  -8.229   9.903  0.00  0.00    +0.019 C 
ATOM     24  C   UNL     1      -5.838  -8.521   9.689  0.00  0.00    +0.073 C 
ATOM     25  N   UNL     1      -6.055  -9.095  10.240  0.00  0.00    -0.263 NA
BRANCH  25  26
ATOM     26  C   UNL     1      -6.756  -9.529  10.237  0.00  0.00    +0.099 C 
BRANCH  26  27
ATOM     27  C   UNL     1      -7.409  -9.255   9.815  0.00  0.00    -0.006 A 
ATOM     28  C   UNL     1      -7.955  -8.756  10.178  0.00  0.00    -0.002 A 
ATOM     29  C   UNL     1      -8.609  -8.481   9.755  0.00  0.00    +0.010 A 
ATOM     30  C   UNL     1      -8.716  -8.708   8.969  0.00  0.00    +0.068 A 
ATOM     31  C   UNL     1      -8.169  -9.207   8.606  0.00  0.00    +0.010 A 
ATOM     32  C   UNL     1      -7.516  -9.481   9.028  0.00  0.00    -0.002 A 
BRANCH  30  33
ATOM     33  C   UNL     1      -9.369  -8.433   8.546  0.00  0.00    +0.100 C 
ATOM     34  N   UNL     1     -10.023  -8.160   8.124  0.00  0.00    -0.191 NA
ENDBRANCH  30  33
ENDBRANCH  26  27
ENDBRANCH  25  26
ENDBRANCH  19  21
TORSDOF 7
ENDMDL
MODEL 6
REMARK VINA RESULT:      -5.9     14.586     16.389
REMARK  Name = 
REMARK  7 active torsions:
REMARK  status: ('A' for Active; 'I' for Inactive)
REMARK    1  A    between atoms: C_2  and  C_4
REMARK    2  A    between atoms: N_7  and  C_10
REMARK    3  A    between atoms: C_13  and  C_16
REMARK    4  A    between atoms: C_19  and  C_21
REMARK    5  A    between atoms: N_25  and  C_26
REMARK    6  A    between atoms: C_26  and  C_27
REMARK    7  A    between atoms: C_30  and  C_33
REMARK                            x       y       z     vdW  Elec       q    Type
REMARK                         _______ _______ _______ _____ _____    ______ ____
ROOT
ATOM     16  C   UNL     1      -3.451 -10.565  14.200  0.00  0.00    +0.205 A 
ATOM     17  N   UNL     1      -2.627 -10.590  14.146  0.00  0.00    -0.056 NA
ATOM     18  O   UNL     1      -2.424 -10.567  13.346  0.00  0.00    -0.336 OA
ATOM     19  C   UNL     1      -3.121 -10.528  12.907  0.00  0.00    +0.251 A 
ATOM     20  N   UNL     1      -3.755 -10.527  13.434  0.00  0.00    -0.190 NA
ENDROOT
BRANCH  16  13
ATOM     10  C   UNL     1      -4.773 -10.599  16.292  0.00  0.00    +0.132 A 
ATOM     11  C   UNL     1      -5.136 -10.406  15.577  0.00  0.00    +0.034 A 
ATOM     12  C   UNL     1      -4.695 -10.395  14.879  0.00  0.00    +0.008 A 
ATOM     13  C   UNL     1      -3.891 -10.576  14.897  0.00  0.00    +0.058 A 
ATOM     14  C   UNL     1      -3.527 -10.769  15.612  0.00  0.00    +0.103 A 
ATOM     15  N   UNL     1      -3.967 -10.781  16.309  0.00  0.00    -0.229 NA
BRANCH  10   7
ATOM      4  C   UNL     1      -6.094 -10.633  18.384  0.00  0.00    +0.083 C 
ATOM      5  C   UNL     1      -6.466 -10.761  17.659  0.00  0.00    +0.031 C 
ATOM      6  C   UNL     1      -6.025 -10.750  16.961  0.00  0.00    +0.093 C 
ATOM      7  N   UNL     1      -5.213 -10.610  16.989  0.00  0.00    -0.293 N 
ATOM      8  C   UNL     1      -4.841 -10.482  17.714  0.00  0.00    +0.093 C 
ATOM      9  C   UNL     1      -5.281 -10.493  18.412  0.00  0.00    +0.031 C 
BRANCH   4   2
ATOM      1  N   UNL     1      -6.158 -10.765  19.805  0.00  0.00    -0.088 NA
ATOM      2  C   UNL     1      -6.535 -10.644  19.081  0.00  0.00    +0.260 C 
ATOM      3  O   UNL     1      -7.352 -10.534  19.055  0.00  0.00    -0.272 OA
ENDBRANCH   4   2
ENDBRANCH  10   7
ENDBRANCH  16  13
BRANCH  19  21
ATOM     21  C   UNL     1      -3.174 -10.496  12.084  0.00  0.00    +0.138 C 
ATOM     22  C   UNL     1      -2.613 -10.781  11.550  0.00  0.00    +0.027 C 
ATOM     23  C   UNL     1      -2.889 -10.635  10.787  0.00  0.00    +0.019 C 
ATOM     24  C   UNL     1      -3.622 -10.260  10.849  0.00  0.00    +0.073 C 
ATOM     25  N   UNL     1      -3.798 -10.174  11.651  0.00  0.00    -0.263 NA
BRANCH  25  26
ATOM     26  C   UNL     1      -4.477  -9.827  11.963  0.00  0.00    +0.099 C 
BRANCH  26  27
ATOM     27  C   UNL     1      -5.077  -9.567  11.461  0.00  0.00    -0.006 A 
ATOM     28  C   UNL     1      -5.049  -8.806  11.145  0.00  0.00    -0.002 A 
ATOM     29  C   UNL     1      -5.649  -8.545  10.642  0.00  0.00    +0.010 A 
ATOM     30  C   UNL     1      -6.277  -9.047  10.454  0.00  0.00    +0.068 A 
ATOM     31  C   UNL     1      -6.304  -9.809  10.769  0.00  0.00    +0.010 A 
ATOM     32  C   UNL     1      -5.705 -10.069  11.272  0.00  0.00    -0.002 A 
BRANCH  30  33
ATOM     33  C   UNL     1      -6.877  -8.787   9.950  0.00  0.00    +0.100 C 
ATOM     34  N   UNL     1      -7.476  -8.526   9.448  0.00  0.00    -0.191 NA
ENDBRANCH  30  33
ENDBRANCH  26  27
ENDBRANCH  25  26
ENDBRANCH  19  21
TORSDOF 7
ENDMDL
MODEL 7
REMARK VINA RESULT:      -5.8     14.960     16.636
REMARK  Name = 
REMARK  7 active torsions:
REMARK  status: ('A' for Active; 'I' for Inactive)
REMARK    1  A    between atoms: C_2  and  C_4
REMARK    2  A    between atoms: N_7  and  C_10
REMARK    3  A    between atoms: C_13  and  C_16
REMARK    4  A    between atoms: C_19  and  C_21
REMARK    5  A    between atoms: N_25  and  C_26
REMARK    6  A    between atoms: C_26  and  C_27
REMARK    7  A    between atoms: C_30  and  C_33
REMARK                            x       y       z     vdW  Elec       q    Type
REMARK                         _______ _______ _______ _____ _____    ______ ____
ROOT
ATOM     16  C   UNL     1      -9.261  -9.724  14.189  0.00  0.00    +0.205 A 
ATOM     17  N   UNL     1      -9.871 -10.201  14.476  0.00  0.00    -0.056 NA
ATOM     18  O   UNL     1     -10.008  -9.994  15.263  0.00  0.00    -0.336 OA
ATOM     19  C   UNL     1      -9.484  -9.390  15.463  0.00  0.00    +0.251 A 
ATOM     20  N   UNL     1      -9.022  -9.223  14.799  0.00  0.00    -0.190 NA
ENDROOT
BRANCH  16  13
ATOM     10  C   UNL     1      -8.316  -9.788  11.903  0.00  0.00    +0.132 A 
ATOM     11  C   UNL     1      -7.820  -9.865  12.557  0.00  0.00    +0.034 A 
ATOM     12  C   UNL     1      -8.135  -9.843  13.319  0.00  0.00    +0.008 A 
ATOM     13  C   UNL     1      -8.946  -9.746  13.427  0.00  0.00    +0.058 A 
ATOM     14  C   UNL     1      -9.444  -9.669  12.773  0.00  0.00    +0.103 A 
ATOM     15  N   UNL     1      -9.129  -9.691  12.011  0.00  0.00    -0.229 NA
BRANCH  10   7
ATOM      4  C   UNL     1      -7.372  -9.852   9.616  0.00  0.00    +0.083 C 
ATOM      5  C   UNL     1      -7.107  -9.289  10.156  0.00  0.00    +0.031 C 
ATOM      6  C   UNL     1      -7.422  -9.267  10.919  0.00  0.00    +0.093 C 
ATOM      7  N   UNL     1      -8.002  -9.810  11.140  0.00  0.00    -0.293 N 
ATOM      8  C   UNL     1      -8.268 -10.374  10.600  0.00  0.00    +0.093 C 
ATOM      9  C   UNL     1      -7.953 -10.396   9.838  0.00  0.00    +0.031 C 
BRANCH   4   2
ATOM      1  N   UNL     1      -7.476  -9.540   8.225  0.00  0.00    -0.088 NA
ATOM      2  C   UNL     1      -7.057  -9.874   8.854  0.00  0.00    +0.260 C 
ATOM      3  O   UNL     1      -6.325 -10.228   8.720  0.00  0.00    -0.272 OA
ENDBRANCH   4   2
ENDBRANCH  10   7
ENDBRANCH  16  13
BRANCH  19  21
ATOM     21  C   UNL     1      -9.430  -9.017  16.196  0.00  0.00    +0.138 C 
ATOM     22  C   UNL     1      -9.790  -8.305  16.406  0.00  0.00    +0.027 C 
ATOM     23  C   UNL     1      -9.589  -8.138  17.188  0.00  0.00    +0.019 C 
ATOM     24  C   UNL     1      -9.105  -8.748  17.463  0.00  0.00    +0.073 C 
ATOM     25  N   UNL     1      -9.007  -9.291  16.850  0.00  0.00    -0.263 NA
BRANCH  25  26
ATOM     26  C   UNL     1      -8.564  -9.986  16.884  0.00  0.00    +0.099 C 
BRANCH  26  27
ATOM     27  C   UNL     1      -8.095 -10.144  17.544  0.00  0.00    -0.006 A 
ATOM     28  C   UNL     1      -7.293  -9.954  17.536  0.00  0.00    -0.002 A 
ATOM     29  C   UNL     1      -6.824 -10.113  18.197  0.00  0.00    +0.010 A 
ATOM     30  C   UNL     1      -7.159 -10.462  18.865  0.00  0.00    +0.068 A 
ATOM     31  C   UNL     1      -7.962 -10.652  18.873  0.00  0.00    +0.010 A 
ATOM     32  C   UNL     1      -8.430 -10.493  18.213  0.00  0.00    -0.002 A 
BRANCH  30  33
ATOM     33  C   UNL     1      -6.690 -10.620  19.526  0.00  0.00    +0.100 C 
ATOM     34  N   UNL     1      -6.222 -10.779  20.186  0.00  0.00    -0.191 NA
ENDBRANCH  30  33
ENDBRANCH  26  27
ENDBRANCH  25  26
ENDBRANCH  19  21
TORSDOF 7
ENDMDL
MODEL 8
REMARK VINA RESULT:      -5.7      1.506      6.794
REMARK  Name = 
REMARK  7 active torsions:
REMARK  status: ('A' for Active; 'I' for Inactive)
REMARK    1  A    between atoms: C_2  and  C_4
REMARK    2  A    between atoms: N_7  and  C_10
REMARK    3  A    between atoms: C_13  and  C_16
REMARK    4  A    between atoms: C_19  and  C_21
REMARK    5  A    between atoms: N_25  and  C_26
REMARK    6  A    between atoms: C_26  and  C_27
REMARK    7  A    between atoms: C_30  and  C_33
REMARK                            x       y       z     vdW  Elec       q    Type
REMARK                         _______ _______ _______ _____ _____    ______ ____
ROOT
ATOM     16  C   UNL     1      -2.764  -0.075  24.585  0.00  0.00    +0.205 A 
ATOM     17  N   UNL     1      -2.993  -0.753  24.173  0.00  0.00    -0.056 NA
ATOM     18  O   UNL     1      -2.351  -1.272  24.159  0.00  0.00    -0.336 OA
ATOM     19  C   UNL     1      -1.726  -0.914  24.561  0.00  0.00    +0.251 A 
ATOM     20  N   UNL     1      -1.982  -0.175  24.825  0.00  0.00    -0.190 NA
ENDROOT
BRANCH  16  13
ATOM     10  C   UNL     1      -4.179   1.907  25.023  0.00  0.00    +0.132 A 
ATOM     11  C   UNL     1      -4.521   1.158  24.981  0.00  0.00    +0.034 A 
ATOM     12  C   UNL     1      -4.049   0.497  24.835  0.00  0.00    +0.008 A 
ATOM     13  C   UNL     1      -3.236   0.586  24.731  0.00  0.00    +0.058 A 
ATOM     14  C   UNL     1      -2.893   1.335  24.773  0.00  0.00    +0.103 A 
ATOM     15  N   UNL     1      -3.365   1.996  24.919  0.00  0.00    -0.229 NA
BRANCH  10   7
ATOM      4  C   UNL     1      -5.594   3.890  25.461  0.00  0.00    +0.083 C 
ATOM      5  C   UNL     1      -5.922   3.134  25.493  0.00  0.00    +0.031 C 
ATOM      6  C   UNL     1      -5.450   2.473  25.347  0.00  0.00    +0.093 C 
ATOM      7  N   UNL     1      -4.651   2.568  25.169  0.00  0.00    -0.293 N 
ATOM      8  C   UNL     1      -4.322   3.325  25.137  0.00  0.00    +0.093 C 
ATOM      9  C   UNL     1      -4.794   3.985  25.283  0.00  0.00    +0.031 C 
BRANCH   4   2
ATOM      1  N   UNL     1      -5.911   5.262  25.218  0.00  0.00    -0.088 NA
ATOM      2  C   UNL     1      -6.066   4.551  25.607  0.00  0.00    +0.260 C 
ATOM      3  O   UNL     1      -6.692   4.501  26.142  0.00  0.00    -0.272 OA
ENDBRANCH   4   2
ENDBRANCH  10   7
ENDBRANCH  16  13
BRANCH  19  21
ATOM     21  C   UNL     1      -0.977  -1.239  24.680  0.00  0.00    +0.138 C 
ATOM     22  C   UNL     1      -0.783  -1.824  25.229  0.00  0.00    +0.027 C 
ATOM     23  C   UNL     1       0.023  -1.982  25.159  0.00  0.00    +0.019 C 
ATOM     24  C   UNL     1       0.328  -1.495  24.567  0.00  0.00    +0.073 C 
ATOM     25  N   UNL     1      -0.290  -1.036  24.271  0.00  0.00    -0.263 NA
BRANCH  25  26
ATOM     26  C   UNL     1      -0.231  -0.473  23.671  0.00  0.00    +0.099 C 
BRANCH  26  27
ATOM     27  C   UNL     1       0.510  -0.223  23.411  0.00  0.00    -0.006 A 
ATOM     28  C   UNL     1       0.880   0.418  23.775  0.00  0.00    -0.002 A 
ATOM     29  C   UNL     1       1.623   0.669  23.514  0.00  0.00    +0.010 A 
ATOM     30  C   UNL     1       1.994   0.278  22.890  0.00  0.00    +0.068 A 
ATOM     31  C   UNL     1       1.623  -0.363  22.526  0.00  0.00    +0.010 A 
ATOM     32  C   UNL     1       0.882  -0.614  22.786  0.00  0.00    -0.002 A 
BRANCH  30  33
ATOM     33  C   UNL     1       2.736   0.528  22.630  0.00  0.00    +0.100 C 
ATOM     34  N   UNL     1       3.477   0.778  22.370  0.00  0.00    -0.191 NA
ENDBRANCH  30  33
ENDBRANCH  26  27
ENDBRANCH  25  26
ENDBRANCH  19  21
TORSDOF 7
ENDMDL
MODEL 9
REMARK VINA RESULT:      -5.6      2.760      4.646
REMARK  Name = 
REMARK  7 active torsions:
REMARK  status: ('A' for Active; 'I' for Inactive)
REMARK    1  A    between atoms: C_2  and  C_4
REMARK    2  A    between atoms: N_7  and  C_10
REMARK    3  A    between atoms: C_13  and  C_16
REMARK    4  A    between atoms: C_19  and  C_21
REMARK    5  A    between atoms: N_25  and  C_26
REMARK    6  A    between atoms: C_26  and  C_27
REMARK    7  A    between atoms: C_30  and  C_33
REMARK                            x       y       z     vdW  Elec       q    Type
REMARK                         _______ _______ _______ _____ _____    ______ ____
ROOT
ATOM     16  C   UNL     1      -0.900   1.764  24.812  0.00  0.00    +0.205 A 
ATOM     17  N   UNL     1      -0.088   1.913  24.816  0.00  0.00    -0.056 NA
ATOM     18  O   UNL     1       0.022   2.729  24.864  0.00  0.00    -0.336 OA
ATOM     19  C   UNL     1      -0.722   3.085  24.890  0.00  0.00    +0.251 A 
ATOM     20  N   UNL     1      -1.292   2.489  24.858  0.00  0.00    -0.190 NA
ENDROOT
BRANCH  16  13
ATOM     10  C   UNL     1      -1.972  -0.463  24.686  0.00  0.00    +0.132 A 
ATOM     11  C   UNL     1      -1.621  -0.213  25.389  0.00  0.00    +0.034 A 
ATOM     12  C   UNL     1      -1.263   0.530  25.431  0.00  0.00    +0.008 A 
ATOM     13  C   UNL     1      -1.258   1.022  24.770  0.00  0.00    +0.058 A 
ATOM     14  C   UNL     1      -1.609   0.773  24.066  0.00  0.00    +0.103 A 
ATOM     15  N   UNL     1      -1.966   0.030  24.024  0.00  0.00    -0.229 NA
BRANCH  10   7
ATOM      4  C   UNL     1      -3.043  -2.691  24.560  0.00  0.00    +0.083 C 
ATOM      5  C   UNL     1      -3.507  -2.013  24.639  0.00  0.00    +0.031 C 
ATOM      6  C   UNL     1      -3.150  -1.271  24.682  0.00  0.00    +0.093 C 
ATOM      7  N   UNL     1      -2.329  -1.206  24.644  0.00  0.00    -0.293 N 
ATOM      8  C   UNL     1      -1.864  -1.883  24.564  0.00  0.00    +0.093 C 
ATOM      9  C   UNL     1      -2.221  -2.625  24.522  0.00  0.00    +0.031 C 
BRANCH   4   2
ATOM      1  N   UNL     1      -3.661  -3.724  23.791  0.00  0.00    -0.088 NA
ATOM      2  C   UNL     1      -3.400  -3.433  24.518  0.00  0.00    +0.260 C 
ATOM      3  O   UNL     1      -3.496  -3.884  25.201  0.00  0.00    -0.272 OA
ENDBRANCH   4   2
ENDBRANCH  10   7
ENDBRANCH  16  13
BRANCH  19  21
ATOM     21  C   UNL     1      -0.871   3.895  24.940  0.00  0.00    +0.138 C 
ATOM     22  C   UNL     1      -0.471   4.487  24.526  0.00  0.00    +0.027 C 
ATOM     23  C   UNL     1      -0.798   5.213  24.741  0.00  0.00    +0.019 C 
ATOM     24  C   UNL     1      -1.399   5.070  25.288  0.00  0.00    +0.073 C 
ATOM     25  N   UNL     1      -1.444   4.255  25.410  0.00  0.00    -0.263 NA
BRANCH  25  26
ATOM     26  C   UNL     1      -1.970   3.869  25.915  0.00  0.00    +0.099 C 
BRANCH  26  27
ATOM     27  C   UNL     1      -2.782   3.996  25.841  0.00  0.00    -0.006 A 
ATOM     28  C   UNL     1      -3.157   3.858  25.120  0.00  0.00    -0.002 A 
ATOM     29  C   UNL     1      -3.969   3.985  25.046  0.00  0.00    +0.010 A 
ATOM     30  C   UNL     1      -4.405   4.251  25.694  0.00  0.00    +0.068 A 
ATOM     31  C   UNL     1      -4.030   4.390  26.415  0.00  0.00    +0.010 A 
ATOM     32  C   UNL     1      -3.218   4.263  26.489  0.00  0.00    -0.002 A 
BRANCH  30  33
ATOM     33  C   UNL     1      -5.217   4.378  25.620  0.00  0.00    +0.100 C 
ATOM     34  N   UNL     1      -6.029   4.505  25.545  0.00  0.00    -0.191 NA
ENDBRANCH  30  33
ENDBRANCH  26  27
ENDBRANCH  25  26
ENDBRANCH  19  21
TORSDOF 7
ENDMDL
MODEL 10
REMARK VINA RESULT:      -5.3     15.657     17.923
REMARK  Name = 
REMARK  7 active torsions:
REMARK  status: ('A' for Active; 'I' for Inactive)
REMARK    1  A    between atoms: C_2  and  C_4
REMARK    2  A    between atoms: N_7  and  C_10
REMARK    3  A    between atoms: C_13  and  C_16
REMARK    4  A    between atoms: C_19  and  C_21
REMARK    5  A    between atoms: N_25  and  C_26
REMARK    6  A    between atoms: C_26  and  C_27
REMARK    7  A    between atoms: C_30  and  C_33
REMARK                            x       y       z     vdW  Elec       q    Type
REMARK                         _______ _______ _______ _____ _____    ______ ____
ROOT
ATOM     16  C   UNL     1      -7.845  -9.798  11.886  0.00  0.00    +0.205 A 
ATOM     17  N   UNL     1      -7.998 -10.373  11.315  0.00  0.00    -0.056 NA
ATOM     18  O   UNL     1      -7.535 -10.204  10.652  0.00  0.00    -0.336 OA
ATOM     19  C   UNL     1      -7.096  -9.524  10.815  0.00  0.00    +0.251 A 
ATOM     20  N   UNL     1      -7.288  -9.274  11.578  0.00  0.00    -0.190 NA
ENDROOT
BRANCH  16  13
ATOM     10  C   UNL     1      -8.877  -9.668  14.132  0.00  0.00    +0.132 A 
ATOM     11  C   UNL     1      -8.056  -9.714  14.057  0.00  0.00    +0.034 A 
ATOM     12  C   UNL     1      -7.713  -9.757  13.308  0.00  0.00    +0.008 A 
ATOM     13  C   UNL     1      -8.189  -9.754  12.635  0.00  0.00    +0.058 A 
ATOM     14  C   UNL     1      -9.009  -9.709  12.710  0.00  0.00    +0.103 A 
ATOM     15  N   UNL     1      -9.353  -9.666  13.458  0.00  0.00    -0.229 NA
BRANCH  10   7
ATOM      4  C   UNL     1      -9.908  -9.539  16.379  0.00  0.00    +0.083 C 
ATOM      5  C   UNL     1      -9.983  -8.908  15.853  0.00  0.00    +0.031 C 
ATOM      6  C   UNL     1      -9.639  -8.951  15.104  0.00  0.00    +0.093 C 
ATOM      7  N   UNL     1      -9.220  -9.625  14.881  0.00  0.00    -0.293 N 
ATOM      8  C   UNL     1      -9.145 -10.258  15.406  0.00  0.00    +0.093 C 
ATOM      9  C   UNL     1      -9.489 -10.215  16.155  0.00  0.00    +0.031 C 
BRANCH   4   2
ATOM      1  N   UNL     1     -10.720 -10.118  17.402  0.00  0.00    -0.088 NA
ATOM      2  C   UNL     1     -10.252  -9.496  17.127  0.00  0.00    +0.260 C 
ATOM      3  O   UNL     1     -10.128  -8.832  17.600  0.00  0.00    -0.272 OA
ENDBRANCH   4   2
ENDBRANCH  10   7
ENDBRANCH  16  13
BRANCH  19  21
ATOM     21  C   UNL     1      -6.560  -9.160  10.305  0.00  0.00    +0.138 C 
ATOM     22  C   UNL     1      -6.718  -8.514   9.817  0.00  0.00    +0.027 C 
ATOM     23  C   UNL     1      -6.028  -8.331   9.404  0.00  0.00    +0.019 C 
ATOM     24  C   UNL     1      -5.443  -8.865   9.637  0.00  0.00    +0.073 C 
ATOM     25  N   UNL     1      -5.772  -9.377  10.194  0.00  0.00    -0.263 NA
BRANCH  25  26
ATOM     26  C   UNL     1      -5.382  -9.997  10.573  0.00  0.00    +0.099 C 
BRANCH  26  27
ATOM     27  C   UNL     1      -4.571  -9.948  10.715  0.00  0.00    -0.006 A 
ATOM     28  C   UNL     1      -4.295  -9.715  11.456  0.00  0.00    -0.002 A 
ATOM     29  C   UNL     1      -3.484  -9.667  11.599  0.00  0.00    +0.010 A 
ATOM     30  C   UNL     1      -2.948  -9.851  10.998  0.00  0.00    +0.068 A 
ATOM     31  C   UNL     1      -3.224 -10.084  10.257  0.00  0.00    +0.010 A 
ATOM     32  C   UNL     1      -4.035 -10.132  10.115  0.00  0.00    -0.002 A 
BRANCH  30  33
ATOM     33  C   UNL     1      -2.137  -9.802  11.141  0.00  0.00    +0.100 C 
ATOM     34  N   UNL     1      -1.326  -9.754  11.283  0.00  0.00    -0.191 NA
ENDBRANCH  30  33
ENDBRANCH  26  27
ENDBRANCH  25  26
ENDBRANCH  19  21
TORSDOF 7
ENDMDL
