MODEL 1
REMARK VINA RESULT:      -9.8      0.000      0.000
REMARK  Name = 
REMARK  6 active torsions:
REMARK  status: ('A' for Active; 'I' for Inactive)
REMARK    1  A    between atoms: O_2  and  C_3
REMARK    2  A    between atoms: C_3  and  C_4
REMARK    3  A    between atoms: N_6  and  C_7
REMARK    4  A    between atoms: C_7  and  C_8
REMARK    5  A    between atoms: C_15  and  C_16
REMARK    6  A    between atoms: C_18  and  C_22
REMARK                            x       y       z     vdW  Elec       q    Type
REMARK                         _______ _______ _______ _____ _____    ______ ____
ROOT
ATOM      8  C   UNL     1      -0.135   0.350  23.616  0.00  0.00    +0.079 C 
ATOM      9  C   UNL     1      -0.509   0.326  24.298  0.00  0.00    +0.018 C 
ATOM     10  C   UNL     1      -1.136   0.794  24.508  0.00  0.00    +0.010 C 
ATOM     11  C   UNL     1      -1.426   0.611  25.337  0.00  0.00    +0.018 C 
ATOM     12  C   UNL     1      -1.044   0.543  24.812  0.00  0.00    +0.072 C 
ATOM     13  N   UNL     1      -0.775   0.823  23.838  0.00  0.00    -0.272 NA
ATOM     14  C   UNL     1      -1.228   1.482  23.399  0.00  0.00    +0.078 C 
ATOM     15  C   UNL     1      -1.568   1.427  24.080  0.00  0.00    +0.056 C 
ENDROOT
BRANCH  15  16
ATOM     16  C   UNL     1      -2.207   1.870  24.356  0.00  0.00    +0.058 A 
ATOM     17  C   UNL     1      -2.968   1.585  24.498  0.00  0.00    +0.035 A 
ATOM     18  C   UNL     1      -3.429   2.214  24.767  0.00  0.00    +0.102 A 
ATOM     19  N   UNL     1      -2.953   2.887  24.792  0.00  0.00    -0.170 NA
ATOM     20  N   UNL     1      -2.197   2.674  24.537  0.00  0.00    -0.253 N 
ATOM     21  C   UNL     1      -1.546   3.177  24.475  0.00  0.00    +0.153 C 
BRANCH  18  22
ATOM     22  C   UNL     1      -4.226   2.177  24.976  0.00  0.00    +0.019 A 
ATOM     23  C   UNL     1      -4.557   2.768  25.448  0.00  0.00    +0.002 A 
ATOM     24  C   UNL     1      -5.354   2.731  25.657  0.00  0.00    +0.000 A 
ATOM     25  C   UNL     1      -5.821   2.104  25.394  0.00  0.00    +0.000 A 
ATOM     26  C   UNL     1      -5.490   1.513  24.922  0.00  0.00    +0.000 A 
ATOM     27  C   UNL     1      -4.693   1.550  24.714  0.00  0.00    +0.002 A 
ENDBRANCH  18  22
ENDBRANCH  15  16
BRANCH   8   7
ATOM      7  C   UNL     1       0.445   0.100  23.087  0.00  0.00    +0.131 C 
BRANCH   7   6
ATOM      4  C   UNL     1       1.823   0.033  22.711  0.00  0.00    +0.272 C 
ATOM      5  O   UNL     1       1.605  -0.201  21.951  0.00  0.00    -0.271 OA
ATOM      6  N   UNL     1       1.244   0.184  23.280  0.00  0.00    -0.202 NA
BRANCH   4   3
ATOM      3  C   UNL     1       2.621   0.117  22.905  0.00  0.00    +0.229 C 
BRANCH   3   2
ATOM      1  C   UNL     1       3.897   0.701  22.633  0.00  0.00    +0.175 C 
ATOM      2  O   UNL     1       3.128   0.524  22.395  0.00  0.00    -0.342 OA
ENDBRANCH   3   2
ENDBRANCH   4   3
ENDBRANCH   7   6
ENDBRANCH   8   7
TORSDOF 6
ENDMDL
MODEL 2
REMARK VINA RESULT:      -9.6      3.328      4.588
REMARK  Name = 
REMARK  6 active torsions:
REMARK  status: ('A' for Active; 'I' for Inactive)
REMARK    1  A    between atoms: O_2  and  C_3
REMARK    2  A    between atoms: C_3  and  C_4
REMARK    3  A    between atoms: N_6  and  C_7
REMARK    4  A    between atoms: C_7  and  C_8
REMARK    5  A    between atoms: C_15  and  C_16
REMARK    6  A    between atoms: C_18  and  C_22
REMARK                            x       y       z     vdW  Elec       q    Type
REMARK                         _______ _______ _______ _____ _____    ______ ____
ROOT
ATOM      8  C   UNL     1      -3.162   3.187  24.612  0.00  0.00    +0.079 C 
ATOM      9  C   UNL     1      -3.139   2.652  24.048  0.00  0.00    +0.018 C 
ATOM     10  C   UNL     1      -3.439   1.901  24.098  0.00  0.00    +0.010 C 
ATOM     11  C   UNL     1      -3.312   1.439  23.340  0.00  0.00    +0.018 C 
ATOM     12  C   UNL     1      -3.273   1.959  23.734  0.00  0.00    +0.072 C 
ATOM     13  N   UNL     1      -3.466   2.421  24.655  0.00  0.00    -0.272 NA
ATOM     14  C   UNL     1      -3.897   1.972  25.322  0.00  0.00    +0.078 C 
ATOM     15  C   UNL     1      -3.854   1.476  24.744  0.00  0.00    +0.056 C 
ENDROOT
BRANCH  15  16
ATOM     16  C   UNL     1      -4.138   0.700  24.729  0.00  0.00    +0.058 A 
ATOM     17  C   UNL     1      -3.687   0.022  24.600  0.00  0.00    +0.035 A 
ATOM     18  C   UNL     1      -4.192  -0.629  24.632  0.00  0.00    +0.102 A 
ATOM     19  N   UNL     1      -4.955  -0.353  24.781  0.00  0.00    -0.170 NA
ATOM     20  N   UNL     1      -4.921   0.469  24.841  0.00  0.00    -0.253 N 
ATOM     21  C   UNL     1      -5.559   0.972  24.988  0.00  0.00    +0.153 C 
BRANCH  18  22
ATOM     22  C   UNL     1      -3.973  -1.418  24.533  0.00  0.00    +0.019 A 
ATOM     23  C   UNL     1      -3.497  -1.789  25.096  0.00  0.00    +0.002 A 
ATOM     24  C   UNL     1      -3.278  -2.578  24.997  0.00  0.00    +0.000 A 
ATOM     25  C   UNL     1      -3.536  -2.997  24.335  0.00  0.00    +0.000 A 
ATOM     26  C   UNL     1      -4.012  -2.627  23.771  0.00  0.00    +0.000 A 
ATOM     27  C   UNL     1      -4.231  -1.838  23.871  0.00  0.00    +0.002 A 
ENDBRANCH  18  22
ENDBRANCH  15  16
BRANCH   8   7
ATOM      7  C   UNL     1      -3.006   3.935  24.923  0.00  0.00    +0.131 C 
BRANCH   7   6
ATOM      4  C   UNL     1      -1.979   4.887  25.212  0.00  0.00    +0.272 C 
ATOM      5  O   UNL     1      -2.314   5.025  25.953  0.00  0.00    -0.271 OA
ATOM      6  N   UNL     1      -2.325   4.342  24.697  0.00  0.00    -0.202 NA
BRANCH   4   3
ATOM      3  C   UNL     1      -1.298   5.294  24.984  0.00  0.00    +0.229 C 
BRANCH   3   2
ATOM      1  C   UNL     1       0.017   5.133  24.448  0.00  0.00    +0.175 C 
ATOM      2  O   UNL     1      -0.569   4.907  24.983  0.00  0.00    -0.342 OA
ENDBRANCH   3   2
ENDBRANCH   4   3
ENDBRANCH   7   6
ENDBRANCH   8   7
TORSDOF 6
ENDMDL
MODEL 3
REMARK VINA RESULT:      -9.5      0.923      1.269
REMARK  Name = 
REMARK  6 active torsions:
REMARK  status: ('A' for Active; 'I' for Inactive)
REMARK    1  A    between atoms: O_2  and  C_3
REMARK    2  A    between atoms: C_3  and  C_4
REMARK    3  A    between atoms: N_6  and  C_7
REMARK    4  A    between atoms: C_7  and  C_8
REMARK    5  A    between atoms: C_15  and  C_16
REMARK    6  A    between atoms: C_18  and  C_22
REMARK                            x       y       z     vdW  Elec       q    Type
REMARK                         _______ _______ _______ _____ _____    ______ ____
ROOT
ATOM      8  C   UNL     1      -0.240   0.391  23.735  0.00  0.00    +0.079 C 
ATOM      9  C   UNL     1      -0.505   0.662  24.415  0.00  0.00    +0.018 C 
ATOM     10  C   UNL     1      -1.279   0.824  24.588  0.00  0.00    +0.010 C 
ATOM     11  C   UNL     1      -1.376   1.127  25.427  0.00  0.00    +0.018 C 
ATOM     12  C   UNL     1      -1.046   0.904  24.909  0.00  0.00    +0.072 C 
ATOM     13  N   UNL     1      -1.027   0.559  23.919  0.00  0.00    -0.272 NA
ATOM     14  C   UNL     1      -1.796   0.492  23.433  0.00  0.00    +0.078 C 
ATOM     15  C   UNL     1      -2.014   0.756  24.115  0.00  0.00    +0.056 C 
ENDROOT
BRANCH  15  16
ATOM     16  C   UNL     1      -2.782   0.941  24.356  0.00  0.00    +0.058 A 
ATOM     17  C   UNL     1      -3.055   1.688  24.574  0.00  0.00    +0.035 A 
ATOM     18  C   UNL     1      -3.852   1.619  24.774  0.00  0.00    +0.102 A 
ATOM     19  N   UNL     1      -4.072   0.830  24.678  0.00  0.00    -0.170 NA
ATOM     20  N   UNL     1      -3.410   0.410  24.420  0.00  0.00    -0.253 N 
ATOM     21  C   UNL     1      -3.382  -0.398  24.254  0.00  0.00    +0.153 C 
BRANCH  18  22
ATOM     22  C   UNL     1      -4.344   2.232  25.025  0.00  0.00    +0.019 A 
ATOM     23  C   UNL     1      -5.025   2.063  25.459  0.00  0.00    +0.002 A 
ATOM     24  C   UNL     1      -5.517   2.676  25.710  0.00  0.00    +0.000 A 
ATOM     25  C   UNL     1      -5.329   3.458  25.527  0.00  0.00    +0.000 A 
ATOM     26  C   UNL     1      -4.647   3.627  25.093  0.00  0.00    +0.000 A 
ATOM     27  C   UNL     1      -4.155   3.014  24.842  0.00  0.00    +0.002 A 
ENDBRANCH  18  22
ENDBRANCH  15  16
BRANCH   8   7
ATOM      7  C   UNL     1       0.358   0.137  23.227  0.00  0.00    +0.131 C 
BRANCH   7   6
ATOM      4  C   UNL     1       1.737   0.132  22.848  0.00  0.00    +0.272 C 
ATOM      5  O   UNL     1       1.539  -0.225  22.132  0.00  0.00    -0.271 OA
ATOM      6  N   UNL     1       1.146   0.314  23.396  0.00  0.00    -0.202 NA
BRANCH   4   3
ATOM      3  C   UNL     1       2.525   0.309  23.018  0.00  0.00    +0.229 C 
BRANCH   3   2
ATOM      1  C   UNL     1       3.823   0.713  22.577  0.00  0.00    +0.175 C 
ATOM      2  O   UNL     1       3.048   0.489  22.405  0.00  0.00    -0.342 OA
ENDBRANCH   3   2
ENDBRANCH   4   3
ENDBRANCH   7   6
ENDBRANCH   8   7
TORSDOF 6
ENDMDL
MODEL 4
REMARK VINA RESULT:      -9.5      3.292      4.311
REMARK  Name = 
REMARK  6 active torsions:
REMARK  status: ('A' for Active; 'I' for Inactive)
REMARK    1  A    between atoms: O_2  and  C_3
REMARK    2  A    between atoms: C_3  and  C_4
REMARK    3  A    between atoms: N_6  and  C_7
REMARK    4  A    between atoms: C_7  and  C_8
REMARK    5  A    between atoms: C_15  and  C_16
REMARK    6  A    between atoms: C_18  and  C_22
REMARK                            x       y       z     vdW  Elec       q    Type
REMARK                         _______ _______ _______ _____ _____    ______ ____
ROOT
ATOM      8  C   UNL     1      -3.935   0.028  24.103  0.00  0.00    +0.079 C 
ATOM      9  C   UNL     1      -3.645   0.602  23.665  0.00  0.00    +0.018 C 
ATOM     10  C   UNL     1      -3.470   1.349  23.922  0.00  0.00    +0.010 C 
ATOM     11  C   UNL     1      -3.145   1.862  23.262  0.00  0.00    +0.018 C 
ATOM     12  C   UNL     1      -3.384   1.316  23.528  0.00  0.00    +0.072 C 
ATOM     13  N   UNL     1      -3.754   0.792  24.358  0.00  0.00    -0.272 NA
ATOM     14  C   UNL     1      -3.825   1.196  25.173  0.00  0.00    +0.078 C 
ATOM     15  C   UNL     1      -3.541   1.732  24.709  0.00  0.00    +0.056 C 
ENDROOT
BRANCH  15  16
ATOM     16  C   UNL     1      -3.342   2.508  24.906  0.00  0.00    +0.058 A 
ATOM     17  C   UNL     1      -2.606   2.863  24.794  0.00  0.00    +0.035 A 
ATOM     18  C   UNL     1      -2.653   3.639  25.068  0.00  0.00    +0.102 A 
ATOM     19  N   UNL     1      -3.418   3.765  25.350  0.00  0.00    -0.170 NA
ATOM     20  N   UNL     1      -3.845   3.065  25.249  0.00  0.00    -0.253 N 
ATOM     21  C   UNL     1      -4.634   2.944  25.456  0.00  0.00    +0.153 C 
BRANCH  18  22
ATOM     22  C   UNL     1      -2.042   4.194  25.063  0.00  0.00    +0.019 A 
ATOM     23  C   UNL     1      -2.217   5.000  25.095  0.00  0.00    +0.002 A 
ATOM     24  C   UNL     1      -1.606   5.555  25.090  0.00  0.00    +0.000 A 
ATOM     25  C   UNL     1      -0.821   5.305  25.051  0.00  0.00    +0.000 A 
ATOM     26  C   UNL     1      -0.647   4.498  25.019  0.00  0.00    +0.000 A 
ATOM     27  C   UNL     1      -1.257   3.944  25.024  0.00  0.00    +0.002 A 
ENDBRANCH  18  22
ENDBRANCH  15  16
BRANCH   8   7
ATOM      7  C   UNL     1      -4.209  -0.741  24.221  0.00  0.00    +0.131 C 
BRANCH   7   6
ATOM      4  C   UNL     1      -3.841  -2.120  24.303  0.00  0.00    +0.272 C 
ATOM      5  O   UNL     1      -4.510  -2.325  23.866  0.00  0.00    -0.271 OA
ATOM      6  N   UNL     1      -3.690  -1.328  24.481  0.00  0.00    -0.202 NA
BRANCH   4   3
ATOM      3  C   UNL     1      -3.322  -2.707  24.564  0.00  0.00    +0.229 C 
BRANCH   3   2
ATOM      1  C   UNL     1      -1.927  -3.009  24.511  0.00  0.00    +0.175 C 
ATOM      2  O   UNL     1      -2.644  -2.880  24.126  0.00  0.00    -0.342 OA
ENDBRANCH   3   2
ENDBRANCH   4   3
ENDBRANCH   7   6
ENDBRANCH   8   7
TORSDOF 6
ENDMDL
MODEL 5
REMARK VINA RESULT:      -9.3      2.937      3.941
REMARK  Name = 
REMARK  6 active torsions:
REMARK  status: ('A' for Active; 'I' for Inactive)
REMARK    1  A    between atoms: O_2  and  C_3
REMARK    2  A    between atoms: C_3  and  C_4
REMARK    3  A    between atoms: N_6  and  C_7
REMARK    4  A    between atoms: C_7  and  C_8
REMARK    5  A    between atoms: C_15  and  C_16
REMARK    6  A    between atoms: C_18  and  C_22
REMARK                            x       y       z     vdW  Elec       q    Type
REMARK                         _______ _______ _______ _____ _____    ______ ____
ROOT
ATOM      8  C   UNL     1      -0.758  -0.425  24.668  0.00  0.00    +0.079 C 
ATOM      9  C   UNL     1      -0.503   0.191  24.266  0.00  0.00    +0.018 C 
ATOM     10  C   UNL     1      -0.497   0.956  24.530  0.00  0.00    +0.010 C 
ATOM     11  C   UNL     1      -0.164   1.518  23.915  0.00  0.00    +0.018 C 
ATOM     12  C   UNL     1      -0.347   0.939  24.154  0.00  0.00    +0.072 C 
ATOM     13  N   UNL     1      -0.748   0.358  24.930  0.00  0.00    -0.272 NA
ATOM     14  C   UNL     1      -1.010   0.743  25.715  0.00  0.00    +0.078 C 
ATOM     15  C   UNL     1      -0.751   1.320  25.287  0.00  0.00    +0.056 C 
ENDROOT
BRANCH  15  16
ATOM     16  C   UNL     1      -0.717   2.118  25.494  0.00  0.00    +0.058 A 
ATOM     17  C   UNL     1      -1.133   2.731  25.131  0.00  0.00    +0.035 A 
ATOM     18  C   UNL     1      -0.934   3.434  25.512  0.00  0.00    +0.102 A 
ATOM     19  N   UNL     1      -0.396   3.257  26.112  0.00  0.00    -0.170 NA
ATOM     20  N   UNL     1      -0.262   2.442  26.101  0.00  0.00    -0.253 N 
ATOM     21  C   UNL     1       0.239   2.026  26.607  0.00  0.00    +0.153 C 
BRANCH  18  22
ATOM     22  C   UNL     1      -1.223   4.184  25.327  0.00  0.00    +0.019 A 
ATOM     23  C   UNL     1      -0.734   4.734  24.952  0.00  0.00    +0.002 A 
ATOM     24  C   UNL     1      -1.023   5.484  24.767  0.00  0.00    +0.000 A 
ATOM     25  C   UNL     1      -1.800   5.686  24.957  0.00  0.00    +0.000 A 
ATOM     26  C   UNL     1      -2.288   5.137  25.333  0.00  0.00    +0.000 A 
ATOM     27  C   UNL     1      -2.000   4.387  25.517  0.00  0.00    +0.002 A 
ENDBRANCH  18  22
ENDBRANCH  15  16
BRANCH   8   7
ATOM      7  C   UNL     1      -0.914  -1.229  24.762  0.00  0.00    +0.131 C 
BRANCH   7   6
ATOM      4  C   UNL     1      -1.806  -2.335  24.597  0.00  0.00    +0.272 C 
ATOM      5  O   UNL     1      -1.367  -2.771  25.142  0.00  0.00    -0.271 OA
ATOM      6  N   UNL     1      -1.580  -1.564  24.406  0.00  0.00    -0.202 NA
BRANCH   4   3
ATOM      3  C   UNL     1      -2.472  -2.668  24.242  0.00  0.00    +0.229 C 
BRANCH   3   2
ATOM      1  C   UNL     1      -3.893  -2.824  24.260  0.00  0.00    +0.175 C 
ATOM      2  O   UNL     1      -3.181  -2.722  24.663  0.00  0.00    -0.342 OA
ENDBRANCH   3   2
ENDBRANCH   4   3
ENDBRANCH   7   6
ENDBRANCH   8   7
TORSDOF 6
ENDMDL
MODEL 6
REMARK VINA RESULT:      -9.2      1.143      1.621
REMARK  Name = 
REMARK  6 active torsions:
REMARK  status: ('A' for Active; 'I' for Inactive)
REMARK    1  A    between atoms: O_2  and  C_3
REMARK    2  A    between atoms: C_3  and  C_4
REMARK    3  A    between atoms: N_6  and  C_7
REMARK    4  A    between atoms: C_7  and  C_8
REMARK    5  A    between atoms: C_15  and  C_16
REMARK    6  A    between atoms: C_18  and  C_22
REMARK                            x       y       z     vdW  Elec       q    Type
REMARK                         _______ _______ _______ _____ _____    ______ ____
ROOT
ATOM      8  C   UNL     1       1.063   0.033  23.158  0.00  0.00    +0.079 C 
ATOM      9  C   UNL     1       0.541  -0.415  23.521  0.00  0.00    +0.018 C 
ATOM     10  C   UNL     1      -0.119  -0.151  23.909  0.00  0.00    +0.010 C 
ATOM     11  C   UNL     1      -0.592  -0.826  24.261  0.00  0.00    +0.018 C 
ATOM     12  C   UNL     1      -0.098  -0.554  23.931  0.00  0.00    +0.072 C 
ATOM     13  N   UNL     1       0.388   0.295  23.555  0.00  0.00    -0.272 NA
ATOM     14  C   UNL     1       0.048   1.130  23.695  0.00  0.00    +0.078 C 
ATOM     15  C   UNL     1      -0.441   0.655  24.039  0.00  0.00    +0.056 C 
ENDROOT
BRANCH  15  16
ATOM     16  C   UNL     1      -1.128   0.857  24.449  0.00  0.00    +0.058 A 
ATOM     17  C   UNL     1      -1.896   0.637  24.245  0.00  0.00    +0.035 A 
ATOM     18  C   UNL     1      -2.410   0.959  24.804  0.00  0.00    +0.102 A 
ATOM     19  N   UNL     1      -1.960   1.378  25.354  0.00  0.00    -0.170 NA
ATOM     20  N   UNL     1      -1.167   1.315  25.134  0.00  0.00    -0.253 N 
ATOM     21  C   UNL     1      -0.526   1.651  25.530  0.00  0.00    +0.153 C 
BRANCH  18  22
ATOM     22  C   UNL     1      -3.231   0.876  24.813  0.00  0.00    +0.019 A 
ATOM     23  C   UNL     1      -3.710   1.482  24.519  0.00  0.00    +0.002 A 
ATOM     24  C   UNL     1      -4.531   1.399  24.528  0.00  0.00    +0.000 A 
ATOM     25  C   UNL     1      -4.874   0.713  24.830  0.00  0.00    +0.000 A 
ATOM     26  C   UNL     1      -4.395   0.107  25.123  0.00  0.00    +0.000 A 
ATOM     27  C   UNL     1      -3.574   0.190  25.115  0.00  0.00    +0.002 A 
ENDBRANCH  18  22
ENDBRANCH  15  16
BRANCH   8   7
ATOM      7  C   UNL     1       1.752   0.154  22.720  0.00  0.00    +0.131 C 
BRANCH   7   6
ATOM      4  C   UNL     1       3.179   0.148  22.646  0.00  0.00    +0.272 C 
ATOM      5  O   UNL     1       3.146   0.602  21.959  0.00  0.00    -0.271 OA
ATOM      6  N   UNL     1       2.482  -0.077  23.027  0.00  0.00    -0.202 NA
BRANCH   4   3
ATOM      3  C   UNL     1       3.909  -0.083  22.955  0.00  0.00    +0.229 C 
BRANCH   3   2
ATOM      1  C   UNL     1       5.247   0.244  23.335  0.00  0.00    +0.175 C 
ATOM      2  O   UNL     1       4.536   0.455  22.977  0.00  0.00    -0.342 OA
ENDBRANCH   3   2
ENDBRANCH   4   3
ENDBRANCH   7   6
ENDBRANCH   8   7
TORSDOF 6
ENDMDL
