MODEL 1
REMARK VINA RESULT:     -12.8      0.000      0.000
REMARK  Name = 
REMARK  6 active torsions:
REMARK  status: ('A' for Active; 'I' for Inactive)
REMARK    1  A    between atoms: C_5  and  C_6
REMARK    2  A    between atoms: C_6  and  C_7
REMARK    3  A    between atoms: N_12  and  C_15
REMARK    4  A    between atoms: C_23  and  C_24
REMARK    5  A    between atoms: C_24  and  N_25
REMARK    6  A    between atoms: N_28  and  C_29
REMARK                            x       y       z     vdW  Elec       q    Type
REMARK                         _______ _______ _______ _____ _____    ______ ____
ROOT
ATOM      1  O   UNL     1      -0.652   4.610  24.616  0.00  0.00    -0.218 OA
ATOM      2  C   UNL     1      -0.849   3.813  24.696  0.00  0.00    +0.213 C 
ATOM      3  C   UNL     1      -0.332   3.175  24.612  0.00  0.00    +0.212 C 
ATOM      4  O   UNL     1       0.472   3.223  24.433  0.00  0.00    -0.218 OA
ATOM      5  C   UNL     1      -0.761   2.482  24.738  0.00  0.00    +0.157 C 
ATOM     22  O   UNL     1      -1.542   2.691  24.899  0.00  0.00    -0.351 OA
ATOM     23  C   UNL     1      -1.596   3.514  24.873  0.00  0.00    +0.170 C 
ENDROOT
BRANCH   5   6
ATOM      6  C   UNL     1      -0.461   1.714  24.707  0.00  0.00    +0.117 C 
BRANCH   6   7
ATOM      7  C   UNL     1      -0.632   1.179  25.311  0.00  0.00    +0.228 C 
ATOM      8  O   UNL     1      -0.332   1.303  26.069  0.00  0.00    -0.275 OA
ATOM      9  N   UNL     1      -1.104   0.520  25.157  0.00  0.00    -0.276 N 
ATOM     10  C   UNL     1      -1.275  -0.015  25.762  0.00  0.00    +0.115 C 
ATOM     11  C   UNL     1      -1.747  -0.674  25.608  0.00  0.00    +0.112 C 
ATOM     12  N   UNL     1      -2.048  -0.798  24.849  0.00  0.00    -0.304 N 
ATOM     13  C   UNL     1      -1.877  -0.264  24.245  0.00  0.00    +0.112 C 
ATOM     14  C   UNL     1      -1.405   0.395  24.399  0.00  0.00    +0.115 C 
BRANCH  12  15
ATOM     15  C   UNL     1      -2.519  -1.457  24.696  0.00  0.00    +0.048 A 
ATOM     16  C   UNL     1      -2.176  -2.205  24.628  0.00  0.00    +0.017 A 
ATOM     17  C   UNL     1      -2.647  -2.863  24.475  0.00  0.00    +0.031 A 
ATOM     18  C   UNL     1      -3.463  -2.776  24.389  0.00  0.00    +0.140 A 
ATOM     19  F   UNL     1      -3.935  -3.435  24.235  0.00  0.00    -0.204 F 
ATOM     20  C   UNL     1      -3.807  -2.028  24.457  0.00  0.00    +0.031 A 
ATOM     21  C   UNL     1      -3.336  -1.369  24.610  0.00  0.00    +0.017 A 
ENDBRANCH  12  15
ENDBRANCH   6   7
ENDBRANCH   5   6
BRANCH  23  24
ATOM     24  C   UNL     1      -2.279   3.960  25.003  0.00  0.00    +0.149 C 
BRANCH  24  25
ATOM     25  N   UNL     1      -2.976   3.773  24.601  0.00  0.00    -0.184 NA
ATOM     26  C   UNL     1      -3.601   3.420  25.006  0.00  0.00    +0.344 C 
ATOM     27  O   UNL     1      -3.532   3.254  25.811  0.00  0.00    -0.249 OA
ATOM     28  N   UNL     1      -4.298   3.232  24.605  0.00  0.00    -0.159 NA
BRANCH  28  29
ATOM     29  C   UNL     1      -4.924   2.879  25.010  0.00  0.00    +0.102 A 
ATOM     30  C   UNL     1      -5.287   3.276  25.636  0.00  0.00    +0.021 A 
ATOM     31  C   UNL     1      -5.913   2.923  26.041  0.00  0.00    +0.031 A 
ATOM     32  C   UNL     1      -6.177   2.173  25.819  0.00  0.00    +0.142 A 
ATOM     33  F   UNL     1      -6.804   1.820  26.224  0.00  0.00    -0.204 F 
ATOM     34  C   UNL     1      -5.815   1.777  25.193  0.00  0.00    +0.061 A 
ATOM     35  C   UNL     1      -5.189   2.130  24.789  0.00  0.00    +0.158 A 
ATOM     36  F   UNL     1      -4.827   1.733  24.162  0.00  0.00    -0.203 F 
ENDBRANCH  28  29
ENDBRANCH  24  25
ENDBRANCH  23  24
TORSDOF 6
ENDMDL
MODEL 2
REMARK VINA RESULT:     -12.7      2.111      4.032
REMARK  Name = 
REMARK  6 active torsions:
REMARK  status: ('A' for Active; 'I' for Inactive)
REMARK    1  A    between atoms: C_5  and  C_6
REMARK    2  A    between atoms: C_6  and  C_7
REMARK    3  A    between atoms: N_12  and  C_15
REMARK    4  A    between atoms: C_23  and  C_24
REMARK    5  A    between atoms: C_24  and  N_25
REMARK    6  A    between atoms: N_28  and  C_29
REMARK                            x       y       z     vdW  Elec       q    Type
REMARK                         _______ _______ _______ _____ _____    ______ ____
ROOT
ATOM      1  O   UNL     1      -6.259   3.507  26.111  0.00  0.00    -0.218 OA
ATOM      2  C   UNL     1      -5.748   2.922  25.837  0.00  0.00    +0.213 C 
ATOM      3  C   UNL     1      -5.937   2.127  25.724  0.00  0.00    +0.212 C 
ATOM      4  O   UNL     1      -6.670   1.778  25.867  0.00  0.00    -0.218 OA
ATOM      5  C   UNL     1      -5.262   1.742  25.444  0.00  0.00    +0.157 C 
ATOM     22  O   UNL     1      -4.657   2.299  25.383  0.00  0.00    -0.351 OA
ATOM     23  C   UNL     1      -4.957   3.029  25.626  0.00  0.00    +0.170 C 
ENDROOT
BRANCH   5   6
ATOM      6  C   UNL     1      -5.204   0.940  25.258  0.00  0.00    +0.117 C 
BRANCH   6   7
ATOM      7  C   UNL     1      -4.791   0.702  24.585  0.00  0.00    +0.228 C 
ATOM      8  O   UNL     1      -4.986   1.016  23.848  0.00  0.00    -0.275 OA
ATOM      9  N   UNL     1      -4.181   0.149  24.650  0.00  0.00    -0.276 N 
ATOM     10  C   UNL     1      -3.768  -0.089  23.976  0.00  0.00    +0.115 C 
ATOM     11  C   UNL     1      -3.158  -0.642  24.040  0.00  0.00    +0.112 C 
ATOM     12  N   UNL     1      -2.963  -0.956  24.778  0.00  0.00    -0.304 N 
ATOM     13  C   UNL     1      -3.376  -0.718  25.450  0.00  0.00    +0.112 C 
ATOM     14  C   UNL     1      -3.986  -0.165  25.386  0.00  0.00    +0.115 C 
BRANCH  12  15
ATOM     15  C   UNL     1      -2.354  -1.509  24.842  0.00  0.00    +0.048 A 
ATOM     16  C   UNL     1      -2.495  -2.302  24.664  0.00  0.00    +0.017 A 
ATOM     17  C   UNL     1      -1.886  -2.854  24.728  0.00  0.00    +0.031 A 
ATOM     18  C   UNL     1      -1.135  -2.614  24.970  0.00  0.00    +0.140 A 
ATOM     19  F   UNL     1      -0.526  -3.166  25.034  0.00  0.00    -0.204 F 
ATOM     20  C   UNL     1      -0.993  -1.820  25.148  0.00  0.00    +0.031 A 
ATOM     21  C   UNL     1      -1.602  -1.268  25.084  0.00  0.00    +0.017 A 
ENDBRANCH  12  15
ENDBRANCH   6   7
ENDBRANCH   5   6
BRANCH  23  24
ATOM     24  C   UNL     1      -4.540   3.740  25.653  0.00  0.00    +0.149 C 
BRANCH  24  25
ATOM     25  N   UNL     1      -3.786   3.763  25.989  0.00  0.00    -0.184 NA
ATOM     26  C   UNL     1      -3.157   4.088  25.567  0.00  0.00    +0.344 C 
ATOM     27  O   UNL     1      -3.280   4.390  24.809  0.00  0.00    -0.249 OA
ATOM     28  N   UNL     1      -2.404   4.112  25.902  0.00  0.00    -0.159 NA
BRANCH  28  29
ATOM     29  C   UNL     1      -1.774   4.437  25.480  0.00  0.00    +0.102 A 
ATOM     30  C   UNL     1      -1.797   5.228  25.247  0.00  0.00    +0.021 A 
ATOM     31  C   UNL     1      -1.167   5.553  24.825  0.00  0.00    +0.031 A 
ATOM     32  C   UNL     1      -0.514   5.086  24.635  0.00  0.00    +0.142 A 
ATOM     33  F   UNL     1       0.116   5.411  24.212  0.00  0.00    -0.204 F 
ATOM     34  C   UNL     1      -0.491   4.295  24.867  0.00  0.00    +0.061 A 
ATOM     35  C   UNL     1      -1.120   3.970  25.289  0.00  0.00    +0.158 A 
ATOM     36  F   UNL     1      -1.097   3.179  25.522  0.00  0.00    -0.203 F 
ENDBRANCH  28  29
ENDBRANCH  24  25
ENDBRANCH  23  24
TORSDOF 6
ENDMDL
MODEL 3
REMARK VINA RESULT:     -12.4      1.899      4.450
REMARK  Name = 
REMARK  6 active torsions:
REMARK  status: ('A' for Active; 'I' for Inactive)
REMARK    1  A    between atoms: C_5  and  C_6
REMARK    2  A    between atoms: C_6  and  C_7
REMARK    3  A    between atoms: N_12  and  C_15
REMARK    4  A    between atoms: C_23  and  C_24
REMARK    5  A    between atoms: C_24  and  N_25
REMARK    6  A    between atoms: N_28  and  C_29
REMARK                            x       y       z     vdW  Elec       q    Type
REMARK                         _______ _______ _______ _____ _____    ______ ____
ROOT
ATOM      1  O   UNL     1      -2.283  -2.526  25.043  0.00  0.00    -0.218 OA
ATOM      2  C   UNL     1      -2.031  -1.743  24.998  0.00  0.00    +0.213 C 
ATOM      3  C   UNL     1      -1.249  -1.482  25.038  0.00  0.00    +0.212 C 
ATOM      4  O   UNL     1      -0.583  -1.959  25.129  0.00  0.00    -0.218 OA
ATOM      5  C   UNL     1      -1.251  -0.659  24.969  0.00  0.00    +0.157 C 
ATOM     22  O   UNL     1      -2.034  -0.412  24.888  0.00  0.00    -0.351 OA
ATOM     23  C   UNL     1      -2.516  -1.082  24.905  0.00  0.00    +0.170 C 
ENDROOT
BRANCH   5   6
ATOM      6  C   UNL     1      -0.587  -0.171  24.981  0.00  0.00    +0.117 C 
BRANCH   6   7
ATOM      7  C   UNL     1      -0.464   0.373  24.374  0.00  0.00    +0.228 C 
ATOM      8  O   UNL     1      -0.206   0.114  23.634  0.00  0.00    -0.275 OA
ATOM      9  N   UNL     1      -0.599   1.177  24.506  0.00  0.00    -0.276 N 
ATOM     10  C   UNL     1      -0.475   1.720  23.897  0.00  0.00    +0.115 C 
ATOM     11  C   UNL     1      -0.610   2.524  24.029  0.00  0.00    +0.112 C 
ATOM     12  N   UNL     1      -0.868   2.783  24.769  0.00  0.00    -0.304 N 
ATOM     13  C   UNL     1      -0.991   2.239  25.376  0.00  0.00    +0.112 C 
ATOM     14  C   UNL     1      -0.856   1.436  25.244  0.00  0.00    +0.115 C 
BRANCH  12  15
ATOM     15  C   UNL     1      -1.003   3.586  24.900  0.00  0.00    +0.048 A 
ATOM     16  C   UNL     1      -1.669   3.830  25.322  0.00  0.00    +0.017 A 
ATOM     17  C   UNL     1      -1.803   4.633  25.452  0.00  0.00    +0.031 A 
ATOM     18  C   UNL     1      -1.272   5.193  25.162  0.00  0.00    +0.140 A 
ATOM     19  F   UNL     1      -1.406   5.996  25.293  0.00  0.00    -0.204 F 
ATOM     20  C   UNL     1      -0.605   4.949  24.741  0.00  0.00    +0.031 A 
ATOM     21  C   UNL     1      -0.471   4.146  24.609  0.00  0.00    +0.017 A 
ENDBRANCH  12  15
ENDBRANCH   6   7
ENDBRANCH   5   6
BRANCH  23  24
ATOM     24  C   UNL     1      -3.339  -1.089  24.842  0.00  0.00    +0.149 C 
BRANCH  24  25
ATOM     25  N   UNL     1      -3.722  -0.513  24.392  0.00  0.00    -0.184 NA
ATOM     26  C   UNL     1      -4.139   0.092  24.766  0.00  0.00    +0.344 C 
ATOM     27  O   UNL     1      -4.172   0.122  25.590  0.00  0.00    -0.249 OA
ATOM     28  N   UNL     1      -4.522   0.668  24.317  0.00  0.00    -0.159 NA
BRANCH  28  29
ATOM     29  C   UNL     1      -4.939   1.274  24.692  0.00  0.00    +0.102 A 
ATOM     30  C   UNL     1      -5.563   1.092  25.201  0.00  0.00    +0.021 A 
ATOM     31  C   UNL     1      -5.980   1.697  25.576  0.00  0.00    +0.031 A 
ATOM     32  C   UNL     1      -5.773   2.484  25.441  0.00  0.00    +0.142 A 
ATOM     33  F   UNL     1      -6.190   3.090  25.816  0.00  0.00    -0.204 F 
ATOM     34  C   UNL     1      -5.149   2.666  24.932  0.00  0.00    +0.061 A 
ATOM     35  C   UNL     1      -4.733   2.061  24.558  0.00  0.00    +0.158 A 
ATOM     36  F   UNL     1      -4.110   2.243  24.049  0.00  0.00    -0.203 F 
ENDBRANCH  28  29
ENDBRANCH  24  25
ENDBRANCH  23  24
TORSDOF 6
ENDMDL
MODEL 4
REMARK VINA RESULT:     -12.3      2.952      4.430
REMARK  Name = 
REMARK  6 active torsions:
REMARK  status: ('A' for Active; 'I' for Inactive)
REMARK    1  A    between atoms: C_5  and  C_6
REMARK    2  A    between atoms: C_6  and  C_7
REMARK    3  A    between atoms: N_12  and  C_15
REMARK    4  A    between atoms: C_23  and  C_24
REMARK    5  A    between atoms: C_24  and  N_25
REMARK    6  A    between atoms: N_28  and  C_29
REMARK                            x       y       z     vdW  Elec       q    Type
REMARK                         _______ _______ _______ _____ _____    ______ ____
ROOT
ATOM      1  O   UNL     1      -3.731  -2.230  25.029  0.00  0.00    -0.218 OA
ATOM      2  C   UNL     1      -3.146  -1.678  24.852  0.00  0.00    +0.213 C 
ATOM      3  C   UNL     1      -2.344  -1.839  24.744  0.00  0.00    +0.212 C 
ATOM      4  O   UNL     1      -1.987  -2.581  24.795  0.00  0.00    -0.218 OA
ATOM      5  C   UNL     1      -1.961  -1.128  24.575  0.00  0.00    +0.157 C 
ATOM     22  O   UNL     1      -2.527  -0.527  24.579  0.00  0.00    -0.351 OA
ATOM     23  C   UNL     1      -3.259  -0.868  24.750  0.00  0.00    +0.170 C 
ENDROOT
BRANCH   5   6
ATOM      6  C   UNL     1      -1.155  -1.034  24.429  0.00  0.00    +0.117 C 
BRANCH   6   7
ATOM      7  C   UNL     1      -0.815  -0.283  24.459  0.00  0.00    +0.228 C 
ATOM      8  O   UNL     1      -1.187   0.322  24.877  0.00  0.00    -0.275 OA
ATOM      9  N   UNL     1      -0.101  -0.138  24.070  0.00  0.00    -0.276 N 
ATOM     10  C   UNL     1       0.238   0.614  24.101  0.00  0.00    +0.115 C 
ATOM     11  C   UNL     1       0.952   0.759  23.712  0.00  0.00    +0.112 C 
ATOM     12  N   UNL     1       1.325   0.153  23.294  0.00  0.00    -0.304 N 
ATOM     13  C   UNL     1       0.985  -0.597  23.264  0.00  0.00    +0.112 C 
ATOM     14  C   UNL     1       0.271  -0.742  23.652  0.00  0.00    +0.115 C 
BRANCH  12  15
ATOM     15  C   UNL     1       2.038   0.299  22.905  0.00  0.00    +0.048 A 
ATOM     16  C   UNL     1       2.196  -0.063  22.181  0.00  0.00    +0.017 A 
ATOM     17  C   UNL     1       2.908   0.083  21.794  0.00  0.00    +0.031 A 
ATOM     18  C   UNL     1       3.465   0.592  22.129  0.00  0.00    +0.140 A 
ATOM     19  F   UNL     1       4.178   0.737  21.741  0.00  0.00    -0.204 F 
ATOM     20  C   UNL     1       3.307   0.954  22.854  0.00  0.00    +0.031 A 
ATOM     21  C   UNL     1       2.594   0.808  23.242  0.00  0.00    +0.017 A 
ENDBRANCH  12  15
ENDBRANCH   6   7
ENDBRANCH   5   6
BRANCH  23  24
ATOM     24  C   UNL     1      -3.978  -0.467  24.809  0.00  0.00    +0.149 C 
BRANCH  24  25
ATOM     25  N   UNL     1      -4.091   0.241  24.399  0.00  0.00    -0.184 NA
ATOM     26  C   UNL     1      -4.445   0.883  24.776  0.00  0.00    +0.344 C 
ATOM     27  O   UNL     1      -4.686   0.818  25.562  0.00  0.00    -0.249 OA
ATOM     28  N   UNL     1      -4.557   1.590  24.367  0.00  0.00    -0.159 NA
BRANCH  28  29
ATOM     29  C   UNL     1      -4.912   2.233  24.744  0.00  0.00    +0.102 A 
ATOM     30  C   UNL     1      -5.629   2.136  25.139  0.00  0.00    +0.021 A 
ATOM     31  C   UNL     1      -5.984   2.778  25.516  0.00  0.00    +0.031 A 
ATOM     32  C   UNL     1      -5.619   3.518  25.498  0.00  0.00    +0.142 A 
ATOM     33  F   UNL     1      -5.974   4.161  25.875  0.00  0.00    -0.204 F 
ATOM     34  C   UNL     1      -4.902   3.616  25.103  0.00  0.00    +0.061 A 
ATOM     35  C   UNL     1      -4.548   2.974  24.727  0.00  0.00    +0.158 A 
ATOM     36  F   UNL     1      -3.830   3.071  24.332  0.00  0.00    -0.203 F 
ENDBRANCH  28  29
ENDBRANCH  24  25
ENDBRANCH  23  24
TORSDOF 6
ENDMDL
MODEL 5
REMARK VINA RESULT:     -12.3      1.946      4.172
REMARK  Name = 
REMARK  6 active torsions:
REMARK  status: ('A' for Active; 'I' for Inactive)
REMARK    1  A    between atoms: C_5  and  C_6
REMARK    2  A    between atoms: C_6  and  C_7
REMARK    3  A    between atoms: N_12  and  C_15
REMARK    4  A    between atoms: C_23  and  C_24
REMARK    5  A    between atoms: C_24  and  N_25
REMARK    6  A    between atoms: N_28  and  C_29
REMARK                            x       y       z     vdW  Elec       q    Type
REMARK                         _______ _______ _______ _____ _____    ______ ____
ROOT
ATOM      1  O   UNL     1      -5.401   3.083  25.243  0.00  0.00    -0.218 OA
ATOM      2  C   UNL     1      -4.604   2.906  25.130  0.00  0.00    +0.213 C 
ATOM      3  C   UNL     1      -3.987   3.452  25.085  0.00  0.00    +0.212 C 
ATOM      4  O   UNL     1      -4.060   4.271  25.146  0.00  0.00    -0.218 OA
ATOM      5  C   UNL     1      -3.285   3.034  24.968  0.00  0.00    +0.157 C 
ATOM     22  O   UNL     1      -3.468   2.231  24.940  0.00  0.00    -0.351 OA
ATOM     23  C   UNL     1      -4.284   2.151  25.040  0.00  0.00    +0.170 C 
ENDROOT
BRANCH   5   6
ATOM      6  C   UNL     1      -2.533   3.363  24.892  0.00  0.00    +0.117 C 
BRANCH   6   7
ATOM      7  C   UNL     1      -1.903   3.060  25.330  0.00  0.00    +0.228 C 
ATOM      8  O   UNL     1      -1.849   3.216  26.137  0.00  0.00    -0.275 OA
ATOM      9  N   UNL     1      -1.328   2.599  24.959  0.00  0.00    -0.276 N 
ATOM     10  C   UNL     1      -0.698   2.295  25.398  0.00  0.00    +0.115 C 
ATOM     11  C   UNL     1      -0.122   1.834  25.027  0.00  0.00    +0.112 C 
ATOM     12  N   UNL     1      -0.176   1.677  24.219  0.00  0.00    -0.304 N 
ATOM     13  C   UNL     1      -0.806   1.981  23.781  0.00  0.00    +0.112 C 
ATOM     14  C   UNL     1      -1.381   2.442  24.152  0.00  0.00    +0.115 C 
BRANCH  12  15
ATOM     15  C   UNL     1       0.399   1.216  23.849  0.00  0.00    +0.048 A 
ATOM     16  C   UNL     1       1.168   1.505  23.764  0.00  0.00    +0.017 A 
ATOM     17  C   UNL     1       1.742   1.044  23.395  0.00  0.00    +0.031 A 
ATOM     18  C   UNL     1       1.550   0.294  23.109  0.00  0.00    +0.140 A 
ATOM     19  F   UNL     1       2.126  -0.167  22.740  0.00  0.00    -0.204 F 
ATOM     20  C   UNL     1       0.782   0.005  23.194  0.00  0.00    +0.031 A 
ATOM     21  C   UNL     1       0.206   0.466  23.564  0.00  0.00    +0.017 A 
ENDBRANCH  12  15
ENDBRANCH   6   7
ENDBRANCH   5   6
BRANCH  23  24
ATOM     24  C   UNL     1      -4.704   1.441  25.049  0.00  0.00    +0.149 C 
BRANCH  24  25
ATOM     25  N   UNL     1      -4.535   0.855  24.493  0.00  0.00    -0.184 NA
ATOM     26  C   UNL     1      -4.338   0.095  24.744  0.00  0.00    +0.344 C 
ATOM     27  O   UNL     1      -4.310  -0.080  25.550  0.00  0.00    -0.249 OA
ATOM     28  N   UNL     1      -4.169  -0.492  24.189  0.00  0.00    -0.159 NA
BRANCH  28  29
ATOM     29  C   UNL     1      -3.972  -1.253  24.439  0.00  0.00    +0.102 A 
ATOM     30  C   UNL     1      -3.587  -1.363  25.160  0.00  0.00    +0.021 A 
ATOM     31  C   UNL     1      -3.390  -2.124  25.411  0.00  0.00    +0.031 A 
ATOM     32  C   UNL     1      -3.578  -2.775  24.940  0.00  0.00    +0.142 A 
ATOM     33  F   UNL     1      -3.381  -3.536  25.191  0.00  0.00    -0.204 F 
ATOM     34  C   UNL     1      -3.964  -2.665  24.219  0.00  0.00    +0.061 A 
ATOM     35  C   UNL     1      -4.160  -1.904  23.969  0.00  0.00    +0.158 A 
ATOM     36  F   UNL     1      -4.546  -1.794  23.248  0.00  0.00    -0.203 F 
ENDBRANCH  28  29
ENDBRANCH  24  25
ENDBRANCH  23  24
TORSDOF 6
ENDMDL
MODEL 6
REMARK VINA RESULT:     -12.2      1.422      4.730
REMARK  Name = 
REMARK  6 active torsions:
REMARK  status: ('A' for Active; 'I' for Inactive)
REMARK    1  A    between atoms: C_5  and  C_6
REMARK    2  A    between atoms: C_6  and  C_7
REMARK    3  A    between atoms: N_12  and  C_15
REMARK    4  A    between atoms: C_23  and  C_24
REMARK    5  A    between atoms: C_24  and  N_25
REMARK    6  A    between atoms: N_28  and  C_29
REMARK                            x       y       z     vdW  Elec       q    Type
REMARK                         _______ _______ _______ _____ _____    ______ ____
ROOT
ATOM      1  O   UNL     1       1.423   0.350  23.498  0.00  0.00    -0.218 OA
ATOM      2  C   UNL     1       0.805   0.775  23.841  0.00  0.00    +0.213 C 
ATOM      3  C   UNL     1       0.758   1.596  23.905  0.00  0.00    +0.212 C 
ATOM      4  O   UNL     1       1.321   2.136  23.638  0.00  0.00    -0.218 OA
ATOM      5  C   UNL     1       0.049   1.782  24.284  0.00  0.00    +0.157 C 
ATOM     22  O   UNL     1      -0.342   1.076  24.453  0.00  0.00    -0.351 OA
ATOM     23  C   UNL     1       0.125   0.454  24.180  0.00  0.00    +0.170 C 
ENDROOT
BRANCH   5   6
ATOM      6  C   UNL     1      -0.221   2.541  24.461  0.00  0.00    +0.117 C 
BRANCH   6   7
ATOM      7  C   UNL     1      -0.561   2.697  25.196  0.00  0.00    +0.228 C 
ATOM      8  O   UNL     1      -0.100   2.667  25.879  0.00  0.00    -0.275 OA
ATOM      9  N   UNL     1      -1.364   2.883  25.248  0.00  0.00    -0.276 N 
ATOM     10  C   UNL     1      -1.703   3.039  25.984  0.00  0.00    +0.115 C 
ATOM     11  C   UNL     1      -2.506   3.226  26.036  0.00  0.00    +0.112 C 
ATOM     12  N   UNL     1      -2.968   3.256  25.353  0.00  0.00    -0.304 N 
ATOM     13  C   UNL     1      -2.628   3.100  24.618  0.00  0.00    +0.112 C 
ATOM     14  C   UNL     1      -1.825   2.914  24.566  0.00  0.00    +0.115 C 
BRANCH  12  15
ATOM     15  C   UNL     1      -3.770   3.442  25.406  0.00  0.00    +0.048 A 
ATOM     16  C   UNL     1      -4.009   4.232  25.438  0.00  0.00    +0.017 A 
ATOM     17  C   UNL     1      -4.810   4.417  25.490  0.00  0.00    +0.031 A 
ATOM     18  C   UNL     1      -5.374   3.815  25.511  0.00  0.00    +0.140 A 
ATOM     19  F   UNL     1      -6.175   4.001  25.564  0.00  0.00    -0.204 F 
ATOM     20  C   UNL     1      -5.134   3.025  25.479  0.00  0.00    +0.031 A 
ATOM     21  C   UNL     1      -4.332   2.839  25.427  0.00  0.00    +0.017 A 
ENDBRANCH  12  15
ENDBRANCH   6   7
ENDBRANCH   5   6
BRANCH  23  24
ATOM     24  C   UNL     1      -0.056  -0.350  24.235  0.00  0.00    +0.149 C 
BRANCH  24  25
ATOM     25  N   UNL     1      -0.597  -0.612  24.801  0.00  0.00    -0.184 NA
ATOM     26  C   UNL     1      -1.205  -1.124  24.582  0.00  0.00    +0.344 C 
ATOM     27  O   UNL     1      -1.273  -1.375  23.799  0.00  0.00    -0.249 OA
ATOM     28  N   UNL     1      -1.746  -1.387  25.147  0.00  0.00    -0.159 NA
BRANCH  28  29
ATOM     29  C   UNL     1      -2.355  -1.900  24.928  0.00  0.00    +0.102 A 
ATOM     30  C   UNL     1      -2.190  -2.560  24.462  0.00  0.00    +0.021 A 
ATOM     31  C   UNL     1      -2.799  -3.073  24.244  0.00  0.00    +0.031 A 
ATOM     32  C   UNL     1      -3.571  -2.925  24.491  0.00  0.00    +0.142 A 
ATOM     33  F   UNL     1      -4.180  -3.437  24.272  0.00  0.00    -0.204 F 
ATOM     34  C   UNL     1      -3.736  -2.264  24.957  0.00  0.00    +0.061 A 
ATOM     35  C   UNL     1      -3.128  -1.752  25.175  0.00  0.00    +0.158 A 
ATOM     36  F   UNL     1      -3.293  -1.091  25.641  0.00  0.00    -0.203 F 
ENDBRANCH  28  29
ENDBRANCH  24  25
ENDBRANCH  23  24
TORSDOF 6
ENDMDL
MODEL 7
REMARK VINA RESULT:     -12.1      2.986      6.239
REMARK  Name = 
REMARK  6 active torsions:
REMARK  status: ('A' for Active; 'I' for Inactive)
REMARK    1  A    between atoms: C_5  and  C_6
REMARK    2  A    between atoms: C_6  and  C_7
REMARK    3  A    between atoms: N_12  and  C_15
REMARK    4  A    between atoms: C_23  and  C_24
REMARK    5  A    between atoms: C_24  and  N_25
REMARK    6  A    between atoms: N_28  and  C_29
REMARK                            x       y       z     vdW  Elec       q    Type
REMARK                         _______ _______ _______ _____ _____    ______ ____
ROOT
ATOM      1  O   UNL     1      -1.375  -2.916  24.838  0.00  0.00    -0.218 OA
ATOM      2  C   UNL     1      -1.800  -2.216  24.753  0.00  0.00    +0.213 C 
ATOM      3  C   UNL     1      -2.613  -2.125  24.863  0.00  0.00    +0.212 C 
ATOM      4  O   UNL     1      -3.142  -2.719  25.078  0.00  0.00    -0.218 OA
ATOM      5  C   UNL     1      -2.803  -1.335  24.720  0.00  0.00    +0.157 C 
ATOM     22  O   UNL     1      -2.108  -0.937  24.522  0.00  0.00    -0.351 OA
ATOM     23  C   UNL     1      -1.488  -1.482  24.542  0.00  0.00    +0.170 C 
ENDROOT
BRANCH   5   6
ATOM      6  C   UNL     1      -3.556  -1.001  24.768  0.00  0.00    +0.117 C 
BRANCH   6   7
ATOM      7  C   UNL     1      -3.803  -0.458  24.199  0.00  0.00    +0.228 C 
ATOM      8  O   UNL     1      -3.758  -0.650  23.398  0.00  0.00    -0.275 OA
ATOM      9  N   UNL     1      -4.096   0.278  24.431  0.00  0.00    -0.276 N 
ATOM     10  C   UNL     1      -4.344   0.821  23.860  0.00  0.00    +0.115 C 
ATOM     11  C   UNL     1      -4.637   1.557  24.092  0.00  0.00    +0.112 C 
ATOM     12  N   UNL     1      -4.683   1.749  24.893  0.00  0.00    -0.304 N 
ATOM     13  C   UNL     1      -4.435   1.206  25.463  0.00  0.00    +0.112 C 
ATOM     14  C   UNL     1      -4.142   0.470  25.231  0.00  0.00    +0.115 C 
BRANCH  12  15
ATOM     15  C   UNL     1      -4.976   2.485  25.124  0.00  0.00    +0.048 A 
ATOM     16  C   UNL     1      -4.501   3.157  25.064  0.00  0.00    +0.017 A 
ATOM     17  C   UNL     1      -4.794   3.891  25.295  0.00  0.00    +0.031 A 
ATOM     18  C   UNL     1      -5.563   3.956  25.587  0.00  0.00    +0.140 A 
ATOM     19  F   UNL     1      -5.856   4.691  25.818  0.00  0.00    -0.204 F 
ATOM     20  C   UNL     1      -6.039   3.284  25.647  0.00  0.00    +0.031 A 
ATOM     21  C   UNL     1      -5.746   2.549  25.416  0.00  0.00    +0.017 A 
ENDBRANCH  12  15
ENDBRANCH   6   7
ENDBRANCH   5   6
BRANCH  23  24
ATOM     24  C   UNL     1      -0.695  -1.321  24.379  0.00  0.00    +0.149 C 
BRANCH  24  25
ATOM     25  N   UNL     1      -0.488  -0.626  23.984  0.00  0.00    -0.184 NA
ATOM     26  C   UNL     1       0.291  -0.506  23.743  0.00  0.00    +0.344 C 
ATOM     27  O   UNL     1       0.864  -1.080  23.897  0.00  0.00    -0.249 OA
ATOM     28  N   UNL     1       0.498   0.188  23.348  0.00  0.00    -0.159 NA
BRANCH  28  29
ATOM     29  C   UNL     1       1.278   0.308  23.107  0.00  0.00    +0.102 A 
ATOM     30  C   UNL     1       1.639  -0.229  22.595  0.00  0.00    +0.021 A 
ATOM     31  C   UNL     1       2.420  -0.109  22.354  0.00  0.00    +0.031 A 
ATOM     32  C   UNL     1       2.838   0.549  22.624  0.00  0.00    +0.142 A 
ATOM     33  F   UNL     1       3.618   0.669  22.383  0.00  0.00    -0.204 F 
ATOM     34  C   UNL     1       2.477   1.086  23.136  0.00  0.00    +0.061 A 
ATOM     35  C   UNL     1       1.697   0.966  23.376  0.00  0.00    +0.158 A 
ATOM     36  F   UNL     1       1.336   1.503  23.888  0.00  0.00    -0.203 F 
ENDBRANCH  28  29
ENDBRANCH  24  25
ENDBRANCH  23  24
TORSDOF 6
ENDMDL
