MODEL 1
REMARK VINA RESULT:     -11.9      0.000      0.000
REMARK  Name = 
REMARK  4 active torsions:
REMARK  status: ('A' for Active; 'I' for Inactive)
REMARK    1  A    between atoms: C_6  and  C_7
REMARK    2  A    between atoms: C_7  and  N_8
REMARK    3  A    between atoms: N_14  and  C_15
REMARK    4  A    between atoms: C_15  and  C_16
REMARK                            x       y       z     vdW  Elec       q    Type
REMARK                         _______ _______ _______ _____ _____    ______ ____
ROOT
ATOM      8  N   UNL     1      -2.460   2.272  24.010  0.00  0.00    -0.265 NA
ATOM      9  C   UNL     1      -3.202   2.631  23.986  0.00  0.00    +0.094 C 
ATOM     10  C   UNL     1      -3.873   2.207  24.211  0.00  0.00    +0.112 C 
ATOM     11  N   UNL     1      -3.802   1.424  24.461  0.00  0.00    -0.261 N 
ATOM     12  C   UNL     1      -3.059   1.065  24.485  0.00  0.00    +0.113 C 
ATOM     13  C   UNL     1      -3.159   0.292  24.754  0.00  0.00    +0.116 C 
ATOM     14  N   UNL     1      -3.962   0.173  24.895  0.00  0.00    -0.258 N 
ATOM     23  C   UNL     1      -4.359   0.872  24.714  0.00  0.00    +0.308 C 
ATOM     24  O   UNL     1      -5.173   0.999  24.776  0.00  0.00    -0.252 OA
ATOM     25  C   UNL     1      -2.388   1.489  24.260  0.00  0.00    +0.094 C 
ENDROOT
BRANCH   8   7
ATOM      7  C   UNL     1      -1.789   2.696  23.784  0.00  0.00    +0.119 C 
BRANCH   7   6
ATOM      1  C   UNL     1      -1.357   5.182  25.128  0.00  0.00    +0.052 C 
ATOM      2  C   UNL     1      -1.162   4.387  25.014  0.00  0.00    +0.059 A 
ATOM      3  C   UNL     1      -0.558   4.043  25.457  0.00  0.00    +0.015 A 
ATOM      4  C   UNL     1      -0.364   3.250  25.343  0.00  0.00    +0.002 A 
ATOM      5  C   UNL     1      -0.774   2.800  24.785  0.00  0.00    +0.016 A 
ATOM      6  C   UNL     1      -1.378   3.145  24.342  0.00  0.00    +0.075 A 
ATOM     26  N   UNL     1      -1.573   3.939  24.456  0.00  0.00    -0.253 NA
ENDBRANCH   7   6
ENDBRANCH   8   7
BRANCH  14  15
ATOM     15  C   UNL     1      -4.308  -0.524  25.170  0.00  0.00    +0.122 C 
BRANCH  15  16
ATOM     16  C   UNL     1      -4.056  -1.253  24.878  0.00  0.00    -0.002 A 
ATOM     17  C   UNL     1      -4.321  -1.518  24.143  0.00  0.00    -0.000 A 
ATOM     18  C   UNL     1      -4.067  -2.248  23.852  0.00  0.00    +0.029 A 
ATOM     19  C   UNL     1      -3.550  -2.712  24.296  0.00  0.00    +0.140 A 
ATOM     20  F   UNL     1      -3.297  -3.442  24.005  0.00  0.00    -0.204 F 
ATOM     21  C   UNL     1      -3.285  -2.447  25.031  0.00  0.00    +0.029 A 
ATOM     22  C   UNL     1      -3.538  -1.718  25.322  0.00  0.00    -0.000 A 
ENDBRANCH  15  16
ENDBRANCH  14  15
TORSDOF 4
ENDMDL
MODEL 2
REMARK VINA RESULT:     -11.8      1.406      1.784
REMARK  Name = 
REMARK  4 active torsions:
REMARK  status: ('A' for Active; 'I' for Inactive)
REMARK    1  A    between atoms: C_6  and  C_7
REMARK    2  A    between atoms: C_7  and  N_8
REMARK    3  A    between atoms: N_14  and  C_15
REMARK    4  A    between atoms: C_15  and  C_16
REMARK                            x       y       z     vdW  Elec       q    Type
REMARK                         _______ _______ _______ _____ _____    ______ ____
ROOT
ATOM      8  N   UNL     1      -1.316   1.887  24.497  0.00  0.00    -0.265 NA
ATOM      9  C   UNL     1      -0.677   1.598  24.931  0.00  0.00    +0.094 C 
ATOM     10  C   UNL     1      -0.742   0.881  25.333  0.00  0.00    +0.112 C 
ATOM     11  N   UNL     1      -1.447   0.453  25.303  0.00  0.00    -0.261 N 
ATOM     12  C   UNL     1      -2.086   0.742  24.869  0.00  0.00    +0.113 C 
ATOM     13  C   UNL     1      -2.707   0.204  24.939  0.00  0.00    +0.116 C 
ATOM     14  N   UNL     1      -2.451  -0.419  25.415  0.00  0.00    -0.258 N 
ATOM     23  C   UNL     1      -1.673  -0.264  25.640  0.00  0.00    +0.308 C 
ATOM     24  O   UNL     1      -1.202  -0.744  26.119  0.00  0.00    -0.252 OA
ATOM     25  C   UNL     1      -2.021   1.460  24.466  0.00  0.00    +0.094 C 
ENDROOT
BRANCH   8   7
ATOM      7  C   UNL     1      -1.251   2.605  24.094  0.00  0.00    +0.119 C 
BRANCH   7   6
ATOM      1  C   UNL     1      -2.899   4.483  25.481  0.00  0.00    +0.052 C 
ATOM      2  C   UNL     1      -2.158   4.255  25.197  0.00  0.00    +0.059 A 
ATOM      3  C   UNL     1      -1.501   4.738  25.323  0.00  0.00    +0.015 A 
ATOM      4  C   UNL     1      -0.762   4.510  25.040  0.00  0.00    +0.002 A 
ATOM      5  C   UNL     1      -0.677   3.799  24.630  0.00  0.00    +0.016 A 
ATOM      6  C   UNL     1      -1.334   3.316  24.504  0.00  0.00    +0.075 A 
ATOM     26  N   UNL     1      -2.075   3.544  24.788  0.00  0.00    -0.253 NA
ENDBRANCH   7   6
ENDBRANCH   8   7
BRANCH  14  15
ATOM     15  C   UNL     1      -2.896  -1.080  25.630  0.00  0.00    +0.122 C 
BRANCH  15  16
ATOM     16  C   UNL     1      -3.311  -1.502  25.056  0.00  0.00    -0.002 A 
ATOM     17  C   UNL     1      -3.999  -1.186  24.727  0.00  0.00    -0.000 A 
ATOM     18  C   UNL     1      -4.414  -1.609  24.153  0.00  0.00    +0.029 A 
ATOM     19  C   UNL     1      -4.142  -2.347  23.908  0.00  0.00    +0.140 A 
ATOM     20  F   UNL     1      -4.557  -2.771  23.334  0.00  0.00    -0.204 F 
ATOM     21  C   UNL     1      -3.455  -2.664  24.236  0.00  0.00    +0.029 A 
ATOM     22  C   UNL     1      -3.039  -2.242  24.810  0.00  0.00    -0.000 A 
ENDBRANCH  15  16
ENDBRANCH  14  15
TORSDOF 4
ENDMDL
MODEL 3
REMARK VINA RESULT:     -11.4      2.082      5.033
REMARK  Name = 
REMARK  4 active torsions:
REMARK  status: ('A' for Active; 'I' for Inactive)
REMARK    1  A    between atoms: C_6  and  C_7
REMARK    2  A    between atoms: C_7  and  N_8
REMARK    3  A    between atoms: N_14  and  C_15
REMARK    4  A    between atoms: C_15  and  C_16
REMARK                            x       y       z     vdW  Elec       q    Type
REMARK                         _______ _______ _______ _____ _____    ______ ____
ROOT
ATOM      8  N   UNL     1      -4.000   0.161  24.170  0.00  0.00    -0.265 NA
ATOM      9  C   UNL     1      -4.672   0.147  24.649  0.00  0.00    +0.094 C 
ATOM     10  C   UNL     1      -4.898   0.824  25.062  0.00  0.00    +0.112 C 
ATOM     11  N   UNL     1      -4.453   1.515  24.998  0.00  0.00    -0.261 N 
ATOM     12  C   UNL     1      -3.781   1.530  24.519  0.00  0.00    +0.113 C 
ATOM     13  C   UNL     1      -3.453   2.285  24.563  0.00  0.00    +0.116 C 
ATOM     14  N   UNL     1      -3.921   2.738  25.068  0.00  0.00    -0.258 N 
ATOM     23  C   UNL     1      -4.539   2.262  25.337  0.00  0.00    +0.308 C 
ATOM     24  O   UNL     1      -5.139   2.492  25.854  0.00  0.00    -0.252 OA
ATOM     25  C   UNL     1      -3.554   0.852  24.105  0.00  0.00    +0.094 C 
ENDROOT
BRANCH   8   7
ATOM      7  C   UNL     1      -3.774  -0.516  23.756  0.00  0.00    +0.119 C 
BRANCH   7   6
ATOM      1  C   UNL     1      -1.482  -1.807  24.873  0.00  0.00    +0.052 C 
ATOM      2  C   UNL     1      -2.293  -1.798  24.718  0.00  0.00    +0.059 A 
ATOM      3  C   UNL     1      -2.767  -2.425  24.967  0.00  0.00    +0.015 A 
ATOM      4  C   UNL     1      -3.577  -2.416  24.813  0.00  0.00    +0.002 A 
ATOM      5  C   UNL     1      -3.913  -1.780  24.409  0.00  0.00    +0.016 A 
ATOM      6  C   UNL     1      -3.439  -1.153  24.160  0.00  0.00    +0.075 A 
ATOM     26  N   UNL     1      -2.628  -1.162  24.315  0.00  0.00    -0.253 NA
ENDBRANCH   7   6
ENDBRANCH   8   7
BRANCH  14  15
ATOM     15  C   UNL     1      -3.795   3.527  25.270  0.00  0.00    +0.122 C 
BRANCH  15  16
ATOM     16  C   UNL     1      -3.029   3.834  25.277  0.00  0.00    -0.002 A 
ATOM     17  C   UNL     1      -2.561   3.763  25.953  0.00  0.00    -0.000 A 
ATOM     18  C   UNL     1      -1.796   4.070  25.959  0.00  0.00    +0.029 A 
ATOM     19  C   UNL     1      -1.497   4.448  25.290  0.00  0.00    +0.140 A 
ATOM     20  F   UNL     1      -0.732   4.755  25.295  0.00  0.00    -0.204 F 
ATOM     21  C   UNL     1      -1.965   4.519  24.613  0.00  0.00    +0.029 A 
ATOM     22  C   UNL     1      -2.730   4.213  24.607  0.00  0.00    -0.000 A 
ENDBRANCH  15  16
ENDBRANCH  14  15
TORSDOF 4
ENDMDL
MODEL 4
REMARK VINA RESULT:     -11.1      2.536      5.508
REMARK  Name = 
REMARK  4 active torsions:
REMARK  status: ('A' for Active; 'I' for Inactive)
REMARK    1  A    between atoms: C_6  and  C_7
REMARK    2  A    between atoms: C_7  and  N_8
REMARK    3  A    between atoms: N_14  and  C_15
REMARK    4  A    between atoms: C_15  and  C_16
REMARK                            x       y       z     vdW  Elec       q    Type
REMARK                         _______ _______ _______ _____ _____    ______ ____
ROOT
ATOM      8  N   UNL     1      -1.576  -0.948  25.115  0.00  0.00    -0.265 NA
ATOM      9  C   UNL     1      -1.055  -1.152  24.509  0.00  0.00    +0.094 C 
ATOM     10  C   UNL     1      -0.510  -0.599  24.231  0.00  0.00    +0.112 C 
ATOM     11  N   UNL     1      -0.486   0.159  24.557  0.00  0.00    -0.261 N 
ATOM     12  C   UNL     1      -1.008   0.363  25.163  0.00  0.00    +0.113 C 
ATOM     13  C   UNL     1      -0.857   1.145  25.376  0.00  0.00    +0.116 C 
ATOM     14  N   UNL     1      -0.243   1.424  24.903  0.00  0.00    -0.258 N 
ATOM     23  C   UNL     1      -0.014   0.814  24.397  0.00  0.00    +0.308 C 
ATOM     24  O   UNL     1       0.584   0.854  23.829  0.00  0.00    -0.252 OA
ATOM     25  C   UNL     1      -1.553  -0.191  25.442  0.00  0.00    +0.094 C 
ENDROOT
BRANCH   8   7
ATOM      7  C   UNL     1      -2.122  -1.501  25.395  0.00  0.00    +0.119 C 
BRANCH   7   6
ATOM      1  C   UNL     1      -4.626  -0.765  24.231  0.00  0.00    +0.052 C 
ATOM      2  C   UNL     1      -4.034  -1.326  24.358  0.00  0.00    +0.059 A 
ATOM      3  C   UNL     1      -4.103  -2.080  24.029  0.00  0.00    +0.015 A 
ATOM      4  C   UNL     1      -3.512  -2.640  24.155  0.00  0.00    +0.002 A 
ATOM      5  C   UNL     1      -2.851  -2.448  24.611  0.00  0.00    +0.016 A 
ATOM      6  C   UNL     1      -2.782  -1.694  24.939  0.00  0.00    +0.075 A 
ATOM     26  N   UNL     1      -3.374  -1.133  24.813  0.00  0.00    -0.253 NA
ENDBRANCH   7   6
ENDBRANCH   8   7
BRANCH  14  15
ATOM     15  C   UNL     1       0.085   2.181  24.930  0.00  0.00    +0.122 C 
BRANCH  15  16
ATOM     16  C   UNL     1      -0.401   2.838  25.040  0.00  0.00    -0.002 A 
ATOM     17  C   UNL     1      -0.607   3.076  25.802  0.00  0.00    -0.000 A 
ATOM     18  C   UNL     1      -1.094   3.734  25.911  0.00  0.00    +0.029 A 
ATOM     19  C   UNL     1      -1.373   4.153  25.258  0.00  0.00    +0.140 A 
ATOM     20  F   UNL     1      -1.859   4.811  25.366  0.00  0.00    -0.204 F 
ATOM     21  C   UNL     1      -1.166   3.915  24.496  0.00  0.00    +0.029 A 
ATOM     22  C   UNL     1      -0.680   3.258  24.386  0.00  0.00    -0.000 A 
ENDBRANCH  15  16
ENDBRANCH  14  15
TORSDOF 4
ENDMDL
MODEL 5
REMARK VINA RESULT:     -10.8      2.470      5.022
REMARK  Name = 
REMARK  4 active torsions:
REMARK  status: ('A' for Active; 'I' for Inactive)
REMARK    1  A    between atoms: C_6  and  C_7
REMARK    2  A    between atoms: C_7  and  N_8
REMARK    3  A    between atoms: N_14  and  C_15
REMARK    4  A    between atoms: C_15  and  C_16
REMARK                            x       y       z     vdW  Elec       q    Type
REMARK                         _______ _______ _______ _____ _____    ______ ____
ROOT
ATOM      8  N   UNL     1      -1.024   0.003  25.127  0.00  0.00    -0.265 NA
ATOM      9  C   UNL     1      -0.525   0.187  24.496  0.00  0.00    +0.094 C 
ATOM     10  C   UNL     1      -0.523   0.949  24.182  0.00  0.00    +0.112 C 
ATOM     11  N   UNL     1      -1.019   1.528  24.497  0.00  0.00    -0.261 N 
ATOM     12  C   UNL     1      -1.518   1.344  25.128  0.00  0.00    +0.113 C 
ATOM     13  C   UNL     1      -1.944   2.022  25.323  0.00  0.00    +0.116 C 
ATOM     14  N   UNL     1      -1.708   2.626  24.814  0.00  0.00    -0.258 N 
ATOM     23  C   UNL     1      -1.137   2.320  24.304  0.00  0.00    +0.308 C 
ATOM     24  O   UNL     1      -0.751   2.735  23.704  0.00  0.00    -0.252 OA
ATOM     25  C   UNL     1      -1.520   0.580  25.443  0.00  0.00    +0.094 C 
ENDROOT
BRANCH   8   7
ATOM      7  C   UNL     1      -1.026  -0.760  25.442  0.00  0.00    +0.119 C 
BRANCH   7   6
ATOM      1  C   UNL     1      -3.585  -2.013  25.221  0.00  0.00    +0.052 C 
ATOM      2  C   UNL     1      -2.791  -1.967  25.002  0.00  0.00    +0.059 A 
ATOM      3  C   UNL     1      -2.482  -2.500  24.453  0.00  0.00    +0.015 A 
ATOM      4  C   UNL     1      -1.688  -2.454  24.235  0.00  0.00    +0.002 A 
ATOM      5  C   UNL     1      -1.202  -1.874  24.564  0.00  0.00    +0.016 A 
ATOM      6  C   UNL     1      -1.511  -1.340  25.112  0.00  0.00    +0.075 A 
ATOM     26  N   UNL     1      -2.306  -1.387  25.331  0.00  0.00    -0.253 NA
ENDBRANCH   7   6
ENDBRANCH   8   7
BRANCH  14  15
ATOM     15  C   UNL     1      -1.993   3.400  24.814  0.00  0.00    +0.122 C 
BRANCH  15  16
ATOM     16  C   UNL     1      -2.785   3.548  24.991  0.00  0.00    -0.002 A 
ATOM     17  C   UNL     1      -3.362   3.462  24.407  0.00  0.00    -0.000 A 
ATOM     18  C   UNL     1      -4.154   3.610  24.584  0.00  0.00    +0.029 A 
ATOM     19  C   UNL     1      -4.370   3.845  25.345  0.00  0.00    +0.140 A 
ATOM     20  F   UNL     1      -5.162   3.993  25.522  0.00  0.00    -0.204 F 
ATOM     21  C   UNL     1      -3.793   3.931  25.929  0.00  0.00    +0.029 A 
ATOM     22  C   UNL     1      -3.001   3.783  25.752  0.00  0.00    -0.000 A 
ENDBRANCH  15  16
ENDBRANCH  14  15
TORSDOF 4
ENDMDL
MODEL 6
REMARK VINA RESULT:     -10.7      2.139      3.404
REMARK  Name = 
REMARK  4 active torsions:
REMARK  status: ('A' for Active; 'I' for Inactive)
REMARK    1  A    between atoms: C_6  and  C_7
REMARK    2  A    between atoms: C_7  and  N_8
REMARK    3  A    between atoms: N_14  and  C_15
REMARK    4  A    between atoms: C_15  and  C_16
REMARK                            x       y       z     vdW  Elec       q    Type
REMARK                         _______ _______ _______ _____ _____    ______ ____
ROOT
ATOM      8  N   UNL     1      -2.957   2.891  24.581  0.00  0.00    -0.265 NA
ATOM      9  C   UNL     1      -2.473   3.335  25.080  0.00  0.00    +0.094 C 
ATOM     10  C   UNL     1      -1.771   3.013  25.367  0.00  0.00    +0.112 C 
ATOM     11  N   UNL     1      -1.552   2.246  25.155  0.00  0.00    -0.261 N 
ATOM     12  C   UNL     1      -2.036   1.802  24.656  0.00  0.00    +0.113 C 
ATOM     13  C   UNL     1      -1.680   1.067  24.543  0.00  0.00    +0.116 C 
ATOM     14  N   UNL     1      -0.975   1.056  24.972  0.00  0.00    -0.258 N 
ATOM     23  C   UNL     1      -0.897   1.785  25.350  0.00  0.00    +0.308 C 
ATOM     24  O   UNL     1      -0.272   2.013  25.839  0.00  0.00    -0.252 OA
ATOM     25  C   UNL     1      -2.739   2.124  24.369  0.00  0.00    +0.094 C 
ENDROOT
BRANCH   8   7
ATOM      7  C   UNL     1      -3.661   3.214  24.294  0.00  0.00    +0.119 C 
BRANCH   7   6
ATOM      1  C   UNL     1      -6.012   1.721  24.935  0.00  0.00    +0.052 C 
ATOM      2  C   UNL     1      -5.534   2.385  25.046  0.00  0.00    +0.059 A 
ATOM      3  C   UNL     1      -5.755   2.965  25.590  0.00  0.00    +0.015 A 
ATOM      4  C   UNL     1      -5.277   3.628  25.701  0.00  0.00    +0.002 A 
ATOM      5  C   UNL     1      -4.579   3.711  25.269  0.00  0.00    +0.016 A 
ATOM      6  C   UNL     1      -4.359   3.131  24.726  0.00  0.00    +0.075 A 
ATOM     26  N   UNL     1      -4.837   2.467  24.614  0.00  0.00    -0.253 NA
ENDBRANCH   7   6
ENDBRANCH   8   7
BRANCH  14  15
ATOM     15  C   UNL     1      -0.443   0.427  25.016  0.00  0.00    +0.122 C 
BRANCH  15  16
ATOM     16  C   UNL     1      -0.718  -0.350  24.975  0.00  0.00    -0.002 A 
ATOM     17  C   UNL     1      -1.060  -0.702  25.639  0.00  0.00    -0.000 A 
ATOM     18  C   UNL     1      -1.334  -1.479  25.597  0.00  0.00    +0.029 A 
ATOM     19  C   UNL     1      -1.267  -1.904  24.894  0.00  0.00    +0.140 A 
ATOM     20  F   UNL     1      -1.541  -2.681  24.852  0.00  0.00    -0.204 F 
ATOM     21  C   UNL     1      -0.925  -1.551  24.230  0.00  0.00    +0.029 A 
ATOM     22  C   UNL     1      -0.650  -0.775  24.271  0.00  0.00    -0.000 A 
ENDBRANCH  15  16
ENDBRANCH  14  15
TORSDOF 4
ENDMDL
