MODEL 1
REMARK VINA RESULT:      -9.9      0.000      0.000
REMARK  Name = 
REMARK  5 active torsions:
REMARK  status: ('A' for Active; 'I' for Inactive)
REMARK    1  A    between atoms: C_2  and  C_4
REMARK    2  A    between atoms: C_4  and  C_5
REMARK    3  A    between atoms: N_7  and  C_8
REMARK    4  A    between atoms: C_11  and  C_14
REMARK    5  A    between atoms: CA_20  and  C_21
REMARK                            x       y       z     vdW  Elec       q    Type
REMARK                         _______ _______ _______ _____ _____    ______ ____
ROOT
ATOM      8  C   UNL     1      -3.832   1.685  24.456  0.00  0.00    +0.073 A 
ATOM      9  C   UNL     1      -3.356   1.298  23.903  0.00  0.00    +0.016 A 
ATOM     10  C   UNL     1      -3.345   0.474  23.873  0.00  0.00    -0.001 A 
ATOM     11  C   UNL     1      -3.810   0.036  24.396  0.00  0.00    +0.006 A 
ATOM     12  C   UNL     1      -4.286   0.422  24.947  0.00  0.00    -0.001 A 
ATOM     13  C   UNL     1      -4.297   1.246  24.978  0.00  0.00    +0.016 A 
ENDROOT
BRANCH  11  14
ATOM     14  C   UNL     1      -3.799  -0.789  24.365  0.00  0.00    +0.160 C 
ATOM     15  O   UNL     1      -4.314  -1.190  23.862  0.00  0.00    -0.341 OA
ATOM     16  C   UNL     1      -4.303  -2.015  23.831  0.00  0.00    +0.229 C 
ATOM     17  C   UNL     1      -3.775  -2.438  24.304  0.00  0.00    +0.272 C 
ATOM     18  O   UNL     1      -3.762  -3.262  24.274  0.00  0.00    -0.271 OA
ATOM     19  N   UNL     1      -3.259  -2.036  24.808  0.00  0.00    -0.199 NA
ATOM     20  CA  UNL     1      -3.271  -1.211  24.838  0.00  0.00    +0.159 C 
BRANCH  20  21
ATOM     21  C   UNL     1      -2.755  -0.809  25.342  0.00  0.00    +0.206 C 
ATOM     22  O   UNL     1      -2.197  -1.230  25.780  0.00  0.00    -0.218 OA
ENDBRANCH  20  21
ENDBRANCH  11  14
BRANCH   8   7
ATOM      5  C   UNL     1      -3.253   2.915  24.896  0.00  0.00    +0.246 C 
ATOM      6  O   UNL     1      -2.652   2.496  25.277  0.00  0.00    -0.273 OA
ATOM      7  N   UNL     1      -3.843   2.509  24.486  0.00  0.00    -0.179 NA
BRANCH   5   4
ATOM      4  C   UNL     1      -3.265   3.739  24.927  0.00  0.00    +0.087 C 
BRANCH   4   2
ATOM      1  C   UNL     1      -2.034   4.420  25.180  0.00  0.00    +0.001 C 
ATOM      2  C   UNL     1      -2.764   4.140  25.444  0.00  0.00    +0.009 C 
ATOM      3  C   UNL     1      -2.992   4.260  26.229  0.00  0.00    +0.001 C 
ENDBRANCH   4   2
ENDBRANCH   5   4
ENDBRANCH   8   7
TORSDOF 5
ENDMDL
MODEL 2
REMARK VINA RESULT:      -9.4      1.177      4.932
REMARK  Name = 
REMARK  5 active torsions:
REMARK  status: ('A' for Active; 'I' for Inactive)
REMARK    1  A    between atoms: C_2  and  C_4
REMARK    2  A    between atoms: C_4  and  C_5
REMARK    3  A    between atoms: N_7  and  C_8
REMARK    4  A    between atoms: C_11  and  C_14
REMARK    5  A    between atoms: CA_20  and  C_21
REMARK                            x       y       z     vdW  Elec       q    Type
REMARK                         _______ _______ _______ _____ _____    ______ ____
ROOT
ATOM      8  C   UNL     1      -3.739   0.505  24.324  0.00  0.00    +0.073 A 
ATOM      9  C   UNL     1      -3.171   0.826  23.820  0.00  0.00    +0.016 A 
ATOM     10  C   UNL     1      -2.826   1.554  23.996  0.00  0.00    -0.001 A 
ATOM     11  C   UNL     1      -3.050   1.962  24.679  0.00  0.00    +0.006 A 
ATOM     12  C   UNL     1      -3.618   1.641  25.183  0.00  0.00    -0.001 A 
ATOM     13  C   UNL     1      -3.963   0.913  25.007  0.00  0.00    +0.016 A 
ENDROOT
BRANCH  11  14
ATOM     14  C   UNL     1      -2.704   2.690  24.855  0.00  0.00    +0.160 C 
ATOM     15  O   UNL     1      -1.993   2.720  25.271  0.00  0.00    -0.341 OA
ATOM     16  C   UNL     1      -1.648   3.449  25.447  0.00  0.00    +0.229 C 
ATOM     17  C   UNL     1      -2.015   4.147  25.207  0.00  0.00    +0.272 C 
ATOM     18  O   UNL     1      -1.671   4.876  25.382  0.00  0.00    -0.271 OA
ATOM     19  N   UNL     1      -2.727   4.118  24.790  0.00  0.00    -0.199 NA
ATOM     20  CA  UNL     1      -3.071   3.389  24.614  0.00  0.00    +0.159 C 
BRANCH  20  21
ATOM     21  C   UNL     1      -3.783   3.359  24.197  0.00  0.00    +0.206 C 
ATOM     22  O   UNL     1      -4.145   4.058  23.949  0.00  0.00    -0.218 OA
ENDBRANCH  20  21
ENDBRANCH  11  14
BRANCH   8   7
ATOM      5  C   UNL     1      -3.728  -0.922  24.403  0.00  0.00    +0.246 C 
ATOM      6  O   UNL     1      -3.025  -0.892  24.836  0.00  0.00    -0.273 OA
ATOM      7  N   UNL     1      -4.084  -0.223  24.148  0.00  0.00    -0.179 NA
BRANCH   5   4
ATOM      4  C   UNL     1      -4.073  -1.650  24.227  0.00  0.00    +0.087 C 
BRANCH   4   2
ATOM      1  C   UNL     1      -3.548  -2.564  25.191  0.00  0.00    +0.001 C 
ATOM      2  C   UNL     1      -3.674  -2.349  24.405  0.00  0.00    +0.009 C 
ATOM      3  C   UNL     1      -3.401  -2.835  23.795  0.00  0.00    +0.001 C 
ENDBRANCH   4   2
ENDBRANCH   5   4
ENDBRANCH   8   7
TORSDOF 5
ENDMDL
MODEL 3
REMARK VINA RESULT:      -8.9      1.359      2.005
REMARK  Name = 
REMARK  5 active torsions:
REMARK  status: ('A' for Active; 'I' for Inactive)
REMARK    1  A    between atoms: C_2  and  C_4
REMARK    2  A    between atoms: C_4  and  C_5
REMARK    3  A    between atoms: N_7  and  C_8
REMARK    4  A    between atoms: C_11  and  C_14
REMARK    5  A    between atoms: CA_20  and  C_21
REMARK                            x       y       z     vdW  Elec       q    Type
REMARK                         _______ _______ _______ _____ _____    ______ ____
ROOT
ATOM      8  C   UNL     1      -4.435   0.570  24.709  0.00  0.00    +0.073 A 
ATOM      9  C   UNL     1      -3.958   0.463  24.044  0.00  0.00    +0.016 A 
ATOM     10  C   UNL     1      -3.390  -0.135  24.035  0.00  0.00    -0.001 A 
ATOM     11  C   UNL     1      -3.298  -0.626  24.692  0.00  0.00    +0.006 A 
ATOM     12  C   UNL     1      -3.774  -0.519  25.357  0.00  0.00    -0.001 A 
ATOM     13  C   UNL     1      -4.343   0.079  25.366  0.00  0.00    +0.016 A 
ENDROOT
BRANCH  11  14
ATOM     14  C   UNL     1      -2.729  -1.224  24.683  0.00  0.00    +0.160 C 
ATOM     15  O   UNL     1      -1.950  -1.056  24.894  0.00  0.00    -0.341 OA
ATOM     16  C   UNL     1      -1.382  -1.654  24.884  0.00  0.00    +0.229 C 
ATOM     17  C   UNL     1      -1.593  -2.420  24.664  0.00  0.00    +0.272 C 
ATOM     18  O   UNL     1      -1.026  -3.019  24.654  0.00  0.00    -0.271 OA
ATOM     19  N   UNL     1      -2.373  -2.589  24.453  0.00  0.00    -0.199 NA
ATOM     20  CA  UNL     1      -2.941  -1.990  24.463  0.00  0.00    +0.159 C 
BRANCH  20  21
ATOM     21  C   UNL     1      -3.721  -2.159  24.252  0.00  0.00    +0.206 C 
ATOM     22  O   UNL     1      -3.933  -2.926  24.035  0.00  0.00    -0.218 OA
ENDBRANCH  20  21
ENDBRANCH  11  14
BRANCH   8   7
ATOM      5  C   UNL     1      -4.796   1.931  24.953  0.00  0.00    +0.246 C 
ATOM      6  O   UNL     1      -4.020   2.097  25.180  0.00  0.00    -0.273 OA
ATOM      7  N   UNL     1      -5.003   1.168  24.718  0.00  0.00    -0.179 NA
BRANCH   5   4
ATOM      4  C   UNL     1      -5.364   2.528  24.962  0.00  0.00    +0.087 C 
BRANCH   4   2
ATOM      1  C   UNL     1      -4.750   3.819  24.983  0.00  0.00    +0.001 C 
ATOM      2  C   UNL     1      -5.210   3.239  25.350  0.00  0.00    +0.009 C 
ATOM      3  C   UNL     1      -5.515   3.372  26.106  0.00  0.00    +0.001 C 
ENDBRANCH   4   2
ENDBRANCH   5   4
ENDBRANCH   8   7
TORSDOF 5
ENDMDL
MODEL 4
REMARK VINA RESULT:      -8.8      1.521      4.835
REMARK  Name = 
REMARK  5 active torsions:
REMARK  status: ('A' for Active; 'I' for Inactive)
REMARK    1  A    between atoms: C_2  and  C_4
REMARK    2  A    between atoms: C_4  and  C_5
REMARK    3  A    between atoms: N_7  and  C_8
REMARK    4  A    between atoms: C_11  and  C_14
REMARK    5  A    between atoms: CA_20  and  C_21
REMARK                            x       y       z     vdW  Elec       q    Type
REMARK                         _______ _______ _______ _____ _____    ______ ____
ROOT
ATOM      8  C   UNL     1      -3.494   0.220  24.484  0.00  0.00    +0.073 A 
ATOM      9  C   UNL     1      -4.110   0.512  24.019  0.00  0.00    +0.016 A 
ATOM     10  C   UNL     1      -4.492   1.210  24.231  0.00  0.00    -0.001 A 
ATOM     11  C   UNL     1      -4.258   1.619  24.910  0.00  0.00    +0.006 A 
ATOM     12  C   UNL     1      -3.643   1.328  25.375  0.00  0.00    -0.001 A 
ATOM     13  C   UNL     1      -3.260   0.628  25.163  0.00  0.00    +0.016 A 
ENDROOT
BRANCH  11  14
ATOM     14  C   UNL     1      -4.641   2.319  25.122  0.00  0.00    +0.160 C 
ATOM     15  O   UNL     1      -5.327   2.292  25.579  0.00  0.00    -0.341 OA
ATOM     16  C   UNL     1      -5.710   2.992  25.790  0.00  0.00    +0.229 C 
ATOM     17  C   UNL     1      -5.406   3.718  25.545  0.00  0.00    +0.272 C 
ATOM     18  O   UNL     1      -5.788   4.418  25.756  0.00  0.00    -0.271 OA
ATOM     19  N   UNL     1      -4.719   3.745  25.087  0.00  0.00    -0.199 NA
ATOM     20  CA  UNL     1      -4.338   3.045  24.876  0.00  0.00    +0.159 C 
BRANCH  20  21
ATOM     21  C   UNL     1      -3.651   3.072  24.418  0.00  0.00    +0.206 C 
ATOM     22  O   UNL     1      -3.339   3.800  24.186  0.00  0.00    -0.218 OA
ENDBRANCH  20  21
ENDBRANCH  11  14
BRANCH   8   7
ATOM      5  C   UNL     1      -3.401  -1.205  24.536  0.00  0.00    +0.246 C 
ATOM      6  O   UNL     1      -4.075  -1.232  25.013  0.00  0.00    -0.273 OA
ATOM      7  N   UNL     1      -3.112  -0.479  24.272  0.00  0.00    -0.179 NA
BRANCH   5   4
ATOM      4  C   UNL     1      -3.019  -1.904  24.324  0.00  0.00    +0.087 C 
BRANCH   4   2
ATOM      1  C   UNL     1      -3.184  -3.009  25.216  0.00  0.00    +0.001 C 
ATOM      2  C   UNL     1      -3.362  -2.632  24.503  0.00  0.00    +0.009 C 
ATOM      3  C   UNL     1      -3.883  -2.986  23.969  0.00  0.00    +0.001 C 
ENDBRANCH   4   2
ENDBRANCH   5   4
ENDBRANCH   8   7
TORSDOF 5
ENDMDL
