MODEL 1
REMARK VINA RESULT:     -10.6      0.000      0.000
REMARK  Name = 
REMARK  2 active torsions:
REMARK  status: ('A' for Active; 'I' for Inactive)
REMARK    1  A    between atoms: C_2  and  N_4
REMARK    2  A    between atoms: N_13  and  C_14
REMARK                            x       y       z     vdW  Elec       q    Type
REMARK                         _______ _______ _______ _____ _____    ______ ____
ROOT
ATOM      4  N   UNL     1      -2.927  -1.315  24.491  0.00  0.00    -0.190 NA
ATOM      5  C   UNL     1      -2.473  -0.762  24.901  0.00  0.00    +0.323 C 
ATOM      6  O   UNL     1      -1.964  -1.010  25.502  0.00  0.00    -0.251 OA
ATOM      7  N   UNL     1      -2.527   0.039  24.711  0.00  0.00    -0.259 N 
ATOM      8  C   UNL     1      -3.036   0.287  24.110  0.00  0.00    +0.117 C 
ATOM      9  C   UNL     1      -3.090   1.087  23.920  0.00  0.00    +0.117 C 
ATOM     10  N   UNL     1      -2.637   1.641  24.330  0.00  0.00    -0.261 N 
ATOM     11  C   UNL     1      -2.128   1.394  24.931  0.00  0.00    +0.117 C 
ATOM     12  C   UNL     1      -1.752   2.060  25.237  0.00  0.00    +0.116 C 
ATOM     13  N   UNL     1      -2.028   2.720  24.827  0.00  0.00    -0.264 N 
ATOM     20  C   UNL     1      -2.574   2.461  24.266  0.00  0.00    +0.307 C 
ATOM     21  O   UNL     1      -2.987   2.938  23.734  0.00  0.00    -0.252 OA
ATOM     22  C   UNL     1      -2.073   0.592  25.122  0.00  0.00    +0.117 C 
ENDROOT
BRANCH  13  14
ATOM     14  C   UNL     1      -1.797   3.502  24.954  0.00  0.00    +0.077 C 
ATOM     15  C   UNL     1      -1.063   3.765  24.683  0.00  0.00    +0.020 C 
ATOM     16  C   UNL     1      -0.832   4.547  24.810  0.00  0.00    +0.002 C 
ATOM     17  C   UNL     1      -1.336   5.066  25.208  0.00  0.00    +0.000 C 
ATOM     18  C   UNL     1      -2.069   4.803  25.479  0.00  0.00    +0.002 C 
ATOM     19  C   UNL     1      -2.300   4.021  25.351  0.00  0.00    +0.020 C 
ENDBRANCH  13  14
BRANCH   4   2
ATOM      1  C   UNL     1      -2.234  -2.562  24.408  0.00  0.00    +0.023 C 
ATOM      2  C   UNL     1      -2.872  -2.116  24.681  0.00  0.00    +0.097 C 
ATOM      3  C   UNL     1      -3.455  -2.471  25.145  0.00  0.00    +0.023 C 
ENDBRANCH   4   2
TORSDOF 2
ENDMDL
MODEL 2
REMARK VINA RESULT:     -10.5      1.198      4.878
REMARK  Name = 
REMARK  2 active torsions:
REMARK  status: ('A' for Active; 'I' for Inactive)
REMARK    1  A    between atoms: C_2  and  N_4
REMARK    2  A    between atoms: N_13  and  C_14
REMARK                            x       y       z     vdW  Elec       q    Type
REMARK                         _______ _______ _______ _____ _____    ______ ____
ROOT
ATOM      4  N   UNL     1      -2.086   3.712  24.970  0.00  0.00    -0.190 NA
ATOM      5  C   UNL     1      -1.830   2.929  24.916  0.00  0.00    +0.323 C 
ATOM      6  O   UNL     1      -1.023   2.757  24.915  0.00  0.00    -0.251 OA
ATOM      7  N   UNL     1      -2.383   2.318  24.862  0.00  0.00    -0.259 N 
ATOM      8  C   UNL     1      -3.190   2.490  24.863  0.00  0.00    +0.117 C 
ATOM      9  C   UNL     1      -3.741   1.879  24.810  0.00  0.00    +0.117 C 
ATOM     10  N   UNL     1      -3.487   1.096  24.756  0.00  0.00    -0.261 N 
ATOM     11  C   UNL     1      -2.680   0.924  24.755  0.00  0.00    +0.117 C 
ATOM     12  C   UNL     1      -2.593   0.106  24.696  0.00  0.00    +0.116 C 
ATOM     13  N   UNL     1      -3.346  -0.228  24.661  0.00  0.00    -0.264 N 
ATOM     20  C   UNL     1      -3.898   0.384  24.697  0.00  0.00    +0.307 C 
ATOM     21  O   UNL     1      -4.719   0.299  24.679  0.00  0.00    -0.252 OA
ATOM     22  C   UNL     1      -2.127   1.535  24.809  0.00  0.00    +0.117 C 
ENDROOT
BRANCH  13  14
ATOM     14  C   UNL     1      -3.518  -1.032  24.599  0.00  0.00    +0.077 C 
ATOM     15  C   UNL     1      -3.883  -1.326  23.919  0.00  0.00    +0.020 C 
ATOM     16  C   UNL     1      -4.055  -2.130  23.857  0.00  0.00    +0.002 C 
ATOM     17  C   UNL     1      -3.860  -2.642  24.475  0.00  0.00    +0.000 C 
ATOM     18  C   UNL     1      -3.495  -2.349  25.154  0.00  0.00    +0.002 C 
ATOM     19  C   UNL     1      -3.324  -1.544  25.216  0.00  0.00    +0.020 C 
ENDBRANCH  13  14
BRANCH   4   2
ATOM      1  C   UNL     1      -1.716   5.007  25.445  0.00  0.00    +0.023 C 
ATOM      2  C   UNL     1      -1.533   4.323  25.023  0.00  0.00    +0.097 C 
ATOM      3  C   UNL     1      -0.799   4.249  24.654  0.00  0.00    +0.023 C 
ENDBRANCH   4   2
TORSDOF 2
ENDMDL
MODEL 3
REMARK VINA RESULT:      -9.1      2.384      3.237
REMARK  Name = 
REMARK  2 active torsions:
REMARK  status: ('A' for Active; 'I' for Inactive)
REMARK    1  A    between atoms: C_2  and  N_4
REMARK    2  A    between atoms: N_13  and  C_14
REMARK                            x       y       z     vdW  Elec       q    Type
REMARK                         _______ _______ _______ _____ _____    ______ ____
ROOT
ATOM      4  N   UNL     1      -0.136   0.852  23.339  0.00  0.00    -0.190 NA
ATOM      5  C   UNL     1      -0.679   0.791  23.957  0.00  0.00    +0.323 C 
ATOM      6  O   UNL     1      -0.500   0.335  24.621  0.00  0.00    -0.251 OA
ATOM      7  N   UNL     1      -1.403   1.186  23.910  0.00  0.00    -0.259 N 
ATOM      8  C   UNL     1      -1.581   1.641  23.245  0.00  0.00    +0.117 C 
ATOM      9  C   UNL     1      -2.304   2.036  23.199  0.00  0.00    +0.117 C 
ATOM     10  N   UNL     1      -2.849   1.975  23.816  0.00  0.00    -0.261 N 
ATOM     11  C   UNL     1      -2.670   1.520  24.480  0.00  0.00    +0.117 C 
ATOM     12  C   UNL     1      -3.310   1.562  24.998  0.00  0.00    +0.116 C 
ATOM     13  N   UNL     1      -3.884   2.044  24.654  0.00  0.00    -0.264 N 
ATOM     20  C   UNL     1      -3.599   2.299  23.924  0.00  0.00    +0.307 C 
ATOM     21  O   UNL     1      -3.995   2.792  23.394  0.00  0.00    -0.252 OA
ATOM     22  C   UNL     1      -1.946   1.125  24.527  0.00  0.00    +0.117 C 
ENDROOT
BRANCH  13  14
ATOM     14  C   UNL     1      -4.616   2.237  24.984  0.00  0.00    +0.077 C 
ATOM     15  C   UNL     1      -5.251   1.714  24.912  0.00  0.00    +0.020 C 
ATOM     16  C   UNL     1      -5.983   1.907  25.242  0.00  0.00    +0.002 C 
ATOM     17  C   UNL     1      -6.079   2.622  25.642  0.00  0.00    +0.000 C 
ATOM     18  C   UNL     1      -5.445   3.144  25.713  0.00  0.00    +0.002 C 
ATOM     19  C   UNL     1      -4.713   2.951  25.384  0.00  0.00    +0.020 C 
ENDBRANCH  13  14
BRANCH   4   2
ATOM      1  C   UNL     1       1.247   0.841  23.701  0.00  0.00    +0.023 C 
ATOM      2  C   UNL     1       0.588   0.457  23.387  0.00  0.00    +0.097 C 
ATOM      3  C   UNL     1       0.651  -0.321  23.120  0.00  0.00    +0.023 C 
ENDBRANCH   4   2
TORSDOF 2
ENDMDL
MODEL 4
REMARK VINA RESULT:      -8.9      2.034      2.384
REMARK  Name = 
REMARK  2 active torsions:
REMARK  status: ('A' for Active; 'I' for Inactive)
REMARK    1  A    between atoms: C_2  and  N_4
REMARK    2  A    between atoms: N_13  and  C_14
REMARK                            x       y       z     vdW  Elec       q    Type
REMARK                         _______ _______ _______ _____ _____    ______ ____
ROOT
ATOM      4  N   UNL     1      -3.016  -1.888  24.250  0.00  0.00    -0.190 NA
ATOM      5  C   UNL     1      -3.411  -1.416  24.799  0.00  0.00    +0.323 C 
ATOM      6  O   UNL     1      -3.653  -1.736  25.520  0.00  0.00    -0.251 OA
ATOM      7  N   UNL     1      -3.564  -0.623  24.627  0.00  0.00    -0.259 N 
ATOM      8  C   UNL     1      -3.322  -0.303  23.906  0.00  0.00    +0.117 C 
ATOM      9  C   UNL     1      -3.475   0.488  23.735  0.00  0.00    +0.117 C 
ATOM     10  N   UNL     1      -3.870   0.961  24.284  0.00  0.00    -0.261 N 
ATOM     11  C   UNL     1      -4.112   0.641  25.004  0.00  0.00    +0.117 C 
ATOM     12  C   UNL     1      -4.487   1.236  25.434  0.00  0.00    +0.116 C 
ATOM     13  N   UNL     1      -4.478   1.924  24.980  0.00  0.00    -0.264 N 
ATOM     20  C   UNL     1      -4.096   1.754  24.269  0.00  0.00    +0.307 C 
ATOM     21  O   UNL     1      -3.963   2.284  23.650  0.00  0.00    -0.252 OA
ATOM     22  C   UNL     1      -3.959  -0.152  25.177  0.00  0.00    +0.117 C 
ENDROOT
BRANCH  13  14
ATOM     14  C   UNL     1      -4.794   2.654  25.197  0.00  0.00    +0.077 C 
ATOM     15  C   UNL     1      -4.298   3.307  25.293  0.00  0.00    +0.020 C 
ATOM     16  C   UNL     1      -4.614   4.038  25.511  0.00  0.00    +0.002 C 
ATOM     17  C   UNL     1      -5.427   4.115  25.633  0.00  0.00    +0.000 C 
ATOM     18  C   UNL     1      -5.922   3.463  25.538  0.00  0.00    +0.002 C 
ATOM     19  C   UNL     1      -5.606   2.733  25.320  0.00  0.00    +0.020 C 
ENDBRANCH  13  14
BRANCH   4   2
ATOM      1  C   UNL     1      -3.483  -3.225  24.441  0.00  0.00    +0.023 C 
ATOM      2  C   UNL     1      -2.863  -2.681  24.422  0.00  0.00    +0.097 C 
ATOM      3  C   UNL     1      -2.091  -2.929  24.574  0.00  0.00    +0.023 C 
ENDBRANCH   4   2
TORSDOF 2
ENDMDL
MODEL 5
REMARK VINA RESULT:      -8.5     15.924     17.666
REMARK  Name = 
REMARK  2 active torsions:
REMARK  status: ('A' for Active; 'I' for Inactive)
REMARK    1  A    between atoms: C_2  and  N_4
REMARK    2  A    between atoms: N_13  and  C_14
REMARK                            x       y       z     vdW  Elec       q    Type
REMARK                         _______ _______ _______ _____ _____    ______ ____
ROOT
ATOM      4  N   UNL     1      16.073   6.476  19.357  0.00  0.00    -0.190 NA
ATOM      5  C   UNL     1      15.649   6.512  20.064  0.00  0.00    +0.323 C 
ATOM      6  O   UNL     1      16.025   6.345  20.780  0.00  0.00    -0.251 OA
ATOM      7  N   UNL     1      14.849   6.714  20.056  0.00  0.00    -0.259 N 
ATOM      8  C   UNL     1      14.473   6.881  19.340  0.00  0.00    +0.117 C 
ATOM      9  C   UNL     1      13.674   7.083  19.332  0.00  0.00    +0.117 C 
ATOM     10  N   UNL     1      13.249   7.119  20.039  0.00  0.00    -0.261 N 
ATOM     11  C   UNL     1      13.625   6.952  20.754  0.00  0.00    +0.117 C 
ATOM     12  C   UNL     1      13.070   7.031  21.358  0.00  0.00    +0.116 C 
ATOM     13  N   UNL     1      12.351   7.247  21.017  0.00  0.00    -0.264 N 
ATOM     20  C   UNL     1      12.462   7.301  20.201  0.00  0.00    +0.307 C 
ATOM     21  O   UNL     1      11.886   7.501  19.645  0.00  0.00    -0.252 OA
ATOM     22  C   UNL     1      14.426   6.750  20.763  0.00  0.00    +0.117 C 
ENDROOT
BRANCH  13  14
ATOM     14  C   UNL     1      11.644   7.384  21.420  0.00  0.00    +0.077 C 
ATOM     15  C   UNL     1      11.484   8.133  21.730  0.00  0.00    +0.020 C 
ATOM     16  C   UNL     1      10.778   8.270  22.133  0.00  0.00    +0.002 C 
ATOM     17  C   UNL     1      10.231   7.659  22.226  0.00  0.00    +0.000 C 
ATOM     18  C   UNL     1      10.390   6.912  21.917  0.00  0.00    +0.002 C 
ATOM     19  C   UNL     1      11.097   6.774  21.514  0.00  0.00    +0.020 C 
ENDBRANCH  13  14
BRANCH   4   2
ATOM      1  C   UNL     1      17.140   5.631  18.923  0.00  0.00    +0.023 C 
ATOM      2  C   UNL     1      16.873   6.273  19.366  0.00  0.00    +0.097 C 
ATOM      3  C   UNL     1      17.405   6.714  19.817  0.00  0.00    +0.023 C 
ENDBRANCH   4   2
TORSDOF 2
ENDMDL
MODEL 6
REMARK VINA RESULT:      -8.0     16.485     18.336
REMARK  Name = 
REMARK  2 active torsions:
REMARK  status: ('A' for Active; 'I' for Inactive)
REMARK    1  A    between atoms: C_2  and  N_4
REMARK    2  A    between atoms: N_13  and  C_14
REMARK                            x       y       z     vdW  Elec       q    Type
REMARK                         _______ _______ _______ _____ _____    ______ ____
ROOT
ATOM      4  N   UNL     1      11.701   8.365  21.591  0.00  0.00    -0.190 NA
ATOM      5  C   UNL     1      12.226   7.729  21.572  0.00  0.00    +0.323 C 
ATOM      6  O   UNL     1      12.059   7.043  22.000  0.00  0.00    -0.251 OA
ATOM      7  N   UNL     1      12.917   7.778  21.123  0.00  0.00    -0.259 N 
ATOM      8  C   UNL     1      13.083   8.463  20.695  0.00  0.00    +0.117 C 
ATOM      9  C   UNL     1      13.774   8.512  20.247  0.00  0.00    +0.117 C 
ATOM     10  N   UNL     1      14.299   7.876  20.228  0.00  0.00    -0.261 N 
ATOM     11  C   UNL     1      14.133   7.190  20.656  0.00  0.00    +0.117 C 
ATOM     12  C   UNL     1      14.749   6.656  20.532  0.00  0.00    +0.116 C 
ATOM     13  N   UNL     1      15.296   7.011  20.027  0.00  0.00    -0.264 N 
ATOM     20  C   UNL     1      15.018   7.764  19.839  0.00  0.00    +0.307 C 
ATOM     21  O   UNL     1      15.393   8.311  19.348  0.00  0.00    -0.252 OA
ATOM     22  C   UNL     1      13.442   7.141  21.104  0.00  0.00    +0.117 C 
ENDROOT
BRANCH  13  14
ATOM     14  C   UNL     1      15.998   6.672  19.757  0.00  0.00    +0.077 C 
ATOM     15  C   UNL     1      16.683   6.719  20.216  0.00  0.00    +0.020 C 
ATOM     16  C   UNL     1      17.385   6.380  19.947  0.00  0.00    +0.002 C 
ATOM     17  C   UNL     1      17.402   5.994  19.217  0.00  0.00    +0.000 C 
ATOM     18  C   UNL     1      16.719   5.947  18.759  0.00  0.00    +0.002 C 
ATOM     19  C   UNL     1      16.017   6.286  19.028  0.00  0.00    +0.020 C 
ENDBRANCH  13  14
BRANCH   4   2
ATOM      1  C   UNL     1      10.382   7.848  21.778  0.00  0.00    +0.023 C 
ATOM      2  C   UNL     1      11.010   8.316  22.039  0.00  0.00    +0.097 C 
ATOM      3  C   UNL     1      10.946   8.734  22.747  0.00  0.00    +0.023 C 
ENDBRANCH   4   2
TORSDOF 2
ENDMDL
MODEL 7
REMARK VINA RESULT:      -8.0     16.983     18.791
REMARK  Name = 
REMARK  2 active torsions:
REMARK  status: ('A' for Active; 'I' for Inactive)
REMARK    1  A    between atoms: C_2  and  N_4
REMARK    2  A    between atoms: N_13  and  C_14
REMARK                            x       y       z     vdW  Elec       q    Type
REMARK                         _______ _______ _______ _____ _____    ______ ____
ROOT
ATOM      4  N   UNL     1      11.729   8.904  16.992  0.00  0.00    -0.190 NA
ATOM      5  C   UNL     1      12.059   8.218  17.310  0.00  0.00    +0.323 C 
ATOM      6  O   UNL     1      11.703   7.486  17.173  0.00  0.00    -0.251 OA
ATOM      7  N   UNL     1      12.747   8.264  17.765  0.00  0.00    -0.259 N 
ATOM      8  C   UNL     1      13.103   8.996  17.901  0.00  0.00    +0.117 C 
ATOM      9  C   UNL     1      13.789   9.042  18.356  0.00  0.00    +0.117 C 
ATOM     10  N   UNL     1      14.120   8.356  18.674  0.00  0.00    -0.261 N 
ATOM     11  C   UNL     1      13.764   7.625  18.538  0.00  0.00    +0.117 C 
ATOM     12  C   UNL     1      14.212   7.048  18.920  0.00  0.00    +0.116 C 
ATOM     13  N   UNL     1      14.846   7.422  19.293  0.00  0.00    -0.264 N 
ATOM     20  C   UNL     1      14.788   8.231  19.141  0.00  0.00    +0.307 C 
ATOM     21  O   UNL     1      15.309   8.813  19.408  0.00  0.00    -0.252 OA
ATOM     22  C   UNL     1      13.077   7.578  18.083  0.00  0.00    +0.117 C 
ENDROOT
BRANCH  13  14
ATOM     14  C   UNL     1      15.433   7.053  19.739  0.00  0.00    +0.077 C 
ATOM     15  C   UNL     1      16.132   6.803  19.377  0.00  0.00    +0.020 C 
ATOM     16  C   UNL     1      16.719   6.434  19.823  0.00  0.00    +0.002 C 
ATOM     17  C   UNL     1      16.608   6.315  20.632  0.00  0.00    +0.000 C 
ATOM     18  C   UNL     1      15.911   6.564  20.994  0.00  0.00    +0.002 C 
ATOM     19  C   UNL     1      15.323   6.933  20.548  0.00  0.00    +0.020 C 
ENDBRANCH  13  14
BRANCH   4   2
ATOM      1  C   UNL     1      11.062   9.061  15.738  0.00  0.00    +0.023 C 
ATOM      2  C   UNL     1      11.042   8.857  16.537  0.00  0.00    +0.097 C 
ATOM      3  C   UNL     1      10.335   8.607  16.881  0.00  0.00    +0.023 C 
ENDBRANCH   4   2
TORSDOF 2
ENDMDL
MODEL 8
REMARK VINA RESULT:      -7.3     17.201     18.240
REMARK  Name = 
REMARK  2 active torsions:
REMARK  status: ('A' for Active; 'I' for Inactive)
REMARK    1  A    between atoms: C_2  and  N_4
REMARK    2  A    between atoms: N_13  and  C_14
REMARK                            x       y       z     vdW  Elec       q    Type
REMARK                         _______ _______ _______ _____ _____    ______ ____
ROOT
ATOM      4  N   UNL     1      14.886   7.420  20.804  0.00  0.00    -0.190 NA
ATOM      5  C   UNL     1      14.597   8.029  20.330  0.00  0.00    +0.323 C 
ATOM      6  O   UNL     1      14.861   8.802  20.444  0.00  0.00    -0.251 OA
ATOM      7  N   UNL     1      14.042   7.866  19.741  0.00  0.00    -0.259 N 
ATOM      8  C   UNL     1      13.777   7.092  19.627  0.00  0.00    +0.117 C 
ATOM      9  C   UNL     1      13.223   6.929  19.039  0.00  0.00    +0.117 C 
ATOM     10  N   UNL     1      12.933   7.538  18.564  0.00  0.00    -0.261 N 
ATOM     11  C   UNL     1      13.197   8.311  18.678  0.00  0.00    +0.117 C 
ATOM     12  C   UNL     1      12.816   8.795  18.130  0.00  0.00    +0.116 C 
ATOM     13  N   UNL     1      12.315   8.321  17.677  0.00  0.00    -0.264 N 
ATOM     20  C   UNL     1      12.388   7.545  17.946  0.00  0.00    +0.307 C 
ATOM     21  O   UNL     1      11.986   6.889  17.647  0.00  0.00    -0.252 OA
ATOM     22  C   UNL     1      13.752   8.475  19.267  0.00  0.00    +0.117 C 
ENDROOT
BRANCH  13  14
ATOM     14  C   UNL     1      11.828   8.579  17.063  0.00  0.00    +0.077 C 
ATOM     15  C   UNL     1      11.008   8.585  17.162  0.00  0.00    +0.020 C 
ATOM     16  C   UNL     1      10.521   8.842  16.548  0.00  0.00    +0.002 C 
ATOM     17  C   UNL     1      10.853   9.094  15.836  0.00  0.00    +0.000 C 
ATOM     18  C   UNL     1      11.671   9.088  15.737  0.00  0.00    +0.002 C 
ATOM     19  C   UNL     1      12.159   8.830  16.351  0.00  0.00    +0.020 C 
ENDBRANCH  13  14
BRANCH   4   2
ATOM      1  C   UNL     1      15.197   7.910  22.110  0.00  0.00    +0.023 C 
ATOM      2  C   UNL     1      15.441   7.584  21.393  0.00  0.00    +0.097 C 
ATOM      3  C   UNL     1      16.240   7.420  21.265  0.00  0.00    +0.023 C 
ENDBRANCH   4   2
TORSDOF 2
ENDMDL
MODEL 9
REMARK VINA RESULT:      -7.1     15.454     17.418
REMARK  Name = 
REMARK  2 active torsions:
REMARK  status: ('A' for Active; 'I' for Inactive)
REMARK    1  A    between atoms: C_2  and  N_4
REMARK    2  A    between atoms: N_13  and  C_14
REMARK                            x       y       z     vdW  Elec       q    Type
REMARK                         _______ _______ _______ _____ _____    ______ ____
ROOT
ATOM      4  N   UNL     1      13.447   8.423  16.493  0.00  0.00    -0.190 NA
ATOM      5  C   UNL     1      13.553   8.337  17.306  0.00  0.00    +0.323 C 
ATOM      6  O   UNL     1      14.310   8.223  17.614  0.00  0.00    -0.251 OA
ATOM      7  N   UNL     1      12.901   8.364  17.812  0.00  0.00    -0.259 N 
ATOM      8  C   UNL     1      12.144   8.478  17.504  0.00  0.00    +0.117 C 
ATOM      9  C   UNL     1      11.494   8.506  18.009  0.00  0.00    +0.117 C 
ATOM     10  N   UNL     1      11.598   8.419  18.823  0.00  0.00    -0.261 N 
ATOM     11  C   UNL     1      12.355   8.306  19.131  0.00  0.00    +0.117 C 
ATOM     12  C   UNL     1      12.290   8.238  19.951  0.00  0.00    +0.116 C 
ATOM     13  N   UNL     1      11.492   8.310  20.149  0.00  0.00    -0.264 N 
ATOM     20  C   UNL     1      11.066   8.422  19.452  0.00  0.00    +0.307 C 
ATOM     21  O   UNL     1      10.248   8.520  19.395  0.00  0.00    -0.252 OA
ATOM     22  C   UNL     1      13.007   8.278  18.626  0.00  0.00    +0.117 C 
ENDROOT
BRANCH  13  14
ATOM     14  C   UNL     1      11.177   8.276  20.911  0.00  0.00    +0.077 C 
ATOM     15  C   UNL     1      10.964   7.548  21.237  0.00  0.00    +0.020 C 
ATOM     16  C   UNL     1      10.649   7.514  21.999  0.00  0.00    +0.002 C 
ATOM     17  C   UNL     1      10.547   8.208  22.434  0.00  0.00    +0.000 C 
ATOM     18  C   UNL     1      10.760   8.935  22.108  0.00  0.00    +0.002 C 
ATOM     19  C   UNL     1      11.075   8.969  21.347  0.00  0.00    +0.020 C 
ENDBRANCH  13  14
BRANCH   4   2
ATOM      1  C   UNL     1      14.442   7.670  15.797  0.00  0.00    +0.023 C 
ATOM      2  C   UNL     1      14.099   8.396  15.987  0.00  0.00    +0.097 C 
ATOM      3  C   UNL     1      14.407   9.094  15.673  0.00  0.00    +0.023 C 
ENDBRANCH   4   2
TORSDOF 2
ENDMDL
