MODEL 1
REMARK VINA RESULT:     -10.4      0.000      0.000
REMARK  Name = 
REMARK  10 active torsions:
REMARK  status: ('A' for Active; 'I' for Inactive)
REMARK    1  A    between atoms: C_2  and  C_4
REMARK    2  A    between atoms: C_4  and  C_5
REMARK    3  A    between atoms: C_10  and  C_11
REMARK    4  A    between atoms: C_11  and  C_12
REMARK    5  A    between atoms: C_12  and  N_13
REMARK    6  A    between atoms: N_13  and  C_14
REMARK    7  A    between atoms: N_13  and  C_22
REMARK    8  A    between atoms: C_14  and  C_15
REMARK    9  A    between atoms: C_15  and  N_16
REMARK   10  A    between atoms: C_28  and  C_30
REMARK                            x       y       z     vdW  Elec       q    Type
REMARK                         _______ _______ _______ _____ _____    ______ ____
ROOT
ATOM      5  C   UNL     1      -1.773   0.569  24.289  0.00  0.00    +0.015 C 
ATOM      6  C   UNL     1      -1.718  -0.253  24.251  0.00  0.00    +0.022 C 
ATOM      7  C   UNL     1      -2.386  -0.719  24.384  0.00  0.00    +0.094 C 
ATOM      8  N   UNL     1      -3.109  -0.362  24.557  0.00  0.00    -0.276 N 
ATOM      9  C   UNL     1      -3.165   0.461  24.595  0.00  0.00    +0.094 C 
ATOM     10  C   UNL     1      -2.497   0.926  24.461  0.00  0.00    +0.022 C 
ATOM     28  C   UNL     1      -3.778  -0.826  24.691  0.00  0.00    +0.249 C 
ATOM     29  O   UNL     1      -4.500  -0.470  24.863  0.00  0.00    -0.270 OA
ENDROOT
BRANCH  28  30
ATOM     30  C   UNL     1      -3.722  -1.649  24.652  0.00  0.00    +0.054 A 
ATOM     31  C   UNL     1      -3.429  -2.074  25.296  0.00  0.00    +0.005 A 
ATOM     32  C   UNL     1      -3.373  -2.895  25.258  0.00  0.00    +0.000 A 
ATOM     33  C   UNL     1      -3.611  -3.294  24.575  0.00  0.00    +0.000 A 
ATOM     34  C   UNL     1      -3.904  -2.869  23.931  0.00  0.00    +0.000 A 
ATOM     35  C   UNL     1      -3.959  -2.047  23.970  0.00  0.00    +0.005 A 
ENDBRANCH  28  30
BRANCH   5   4
ATOM      4  C   UNL     1      -1.106   1.034  24.155  0.00  0.00    +0.114 C 
BRANCH   4   2
ATOM      1  O   UNL     1      -0.115   0.472  23.291  0.00  0.00    -0.246 OA
ATOM      2  C   UNL     1      -0.369   0.677  24.049  0.00  0.00    +0.365 C 
ATOM      3  O   UNL     1       0.113   0.526  24.700  0.00  0.00    -0.246 OA
ENDBRANCH   4   2
ENDBRANCH   5   4
BRANCH  10  11
ATOM     11  C   UNL     1      -2.553   1.748  24.500  0.00  0.00    +0.023 C 
BRANCH  11  12
ATOM     12  C   UNL     1      -2.945   2.105  25.133  0.00  0.00    +0.091 C 
BRANCH  12  13
ATOM     13  N   UNL     1      -3.226   2.878  25.061  0.00  0.00    -0.306 N 
BRANCH  13  22
ATOM     22  C   UNL     1      -4.023   3.041  25.192  0.00  0.00    +0.048 A 
ATOM     23  C   UNL     1      -4.511   3.254  24.561  0.00  0.00    +0.015 A 
ATOM     24  C   UNL     1      -5.309   3.416  24.693  0.00  0.00    +0.001 A 
ATOM     25  C   UNL     1      -5.619   3.366  25.456  0.00  0.00    +0.000 A 
ATOM     26  C   UNL     1      -5.133   3.153  26.086  0.00  0.00    +0.001 A 
ATOM     27  C   UNL     1      -4.335   2.991  25.955  0.00  0.00    +0.015 A 
ENDBRANCH  13  22
BRANCH  13  14
ATOM     14  C   UNL     1      -2.709   3.487  24.857  0.00  0.00    +0.108 C 
BRANCH  14  15
ATOM     15  C   UNL     1      -2.217   3.818  25.431  0.00  0.00    +0.094 C 
BRANCH  15  16
ATOM     16  N   UNL     1      -1.674   4.403  25.220  0.00  0.00    -0.267 NA
ATOM     17  C   UNL     1      -0.902   4.195  25.019  0.00  0.00    +0.105 C 
ATOM     18  C   UNL     1      -0.359   4.780  24.808  0.00  0.00    +0.159 C 
ATOM     19  O   UNL     1      -0.588   5.573  24.800  0.00  0.00    -0.351 OA
ATOM     20  C   UNL     1      -1.361   5.780  25.002  0.00  0.00    +0.159 C 
ATOM     21  C   UNL     1      -1.904   5.196  25.212  0.00  0.00    +0.105 C 
ENDBRANCH  15  16
ENDBRANCH  14  15
ENDBRANCH  13  14
ENDBRANCH  12  13
ENDBRANCH  11  12
ENDBRANCH  10  11
TORSDOF 10
ENDMDL
MODEL 2
REMARK VINA RESULT:     -10.3      1.198      2.600
REMARK  Name = 
REMARK  10 active torsions:
REMARK  status: ('A' for Active; 'I' for Inactive)
REMARK    1  A    between atoms: C_2  and  C_4
REMARK    2  A    between atoms: C_4  and  C_5
REMARK    3  A    between atoms: C_10  and  C_11
REMARK    4  A    between atoms: C_11  and  C_12
REMARK    5  A    between atoms: C_12  and  N_13
REMARK    6  A    between atoms: N_13  and  C_14
REMARK    7  A    between atoms: N_13  and  C_22
REMARK    8  A    between atoms: C_14  and  C_15
REMARK    9  A    between atoms: C_15  and  N_16
REMARK   10  A    between atoms: C_28  and  C_30
REMARK                            x       y       z     vdW  Elec       q    Type
REMARK                         _______ _______ _______ _____ _____    ______ ____
ROOT
ATOM      5  C   UNL     1      -1.334   0.205  24.512  0.00  0.00    +0.015 C 
ATOM      6  C   UNL     1      -1.442  -0.590  24.321  0.00  0.00    +0.022 C 
ATOM      7  C   UNL     1      -2.177  -0.947  24.439  0.00  0.00    +0.094 C 
ATOM      8  N   UNL     1      -2.803  -0.508  24.748  0.00  0.00    -0.276 N 
ATOM      9  C   UNL     1      -2.695   0.288  24.939  0.00  0.00    +0.094 C 
ATOM     10  C   UNL     1      -1.960   0.643  24.821  0.00  0.00    +0.022 C 
ATOM     28  C   UNL     1      -3.538  -0.864  24.865  0.00  0.00    +0.249 C 
ATOM     29  O   UNL     1      -4.164  -0.426  25.174  0.00  0.00    -0.270 OA
ENDROOT
BRANCH  28  30
ATOM     30  C   UNL     1      -3.646  -1.660  24.674  0.00  0.00    +0.054 A 
ATOM     31  C   UNL     1      -3.390  -2.248  25.193  0.00  0.00    +0.005 A 
ATOM     32  C   UNL     1      -3.498  -3.042  25.002  0.00  0.00    +0.000 A 
ATOM     33  C   UNL     1      -3.862  -3.250  24.291  0.00  0.00    +0.000 A 
ATOM     34  C   UNL     1      -4.118  -2.663  23.772  0.00  0.00    +0.000 A 
ATOM     35  C   UNL     1      -4.010  -1.867  23.963  0.00  0.00    +0.005 A 
ENDBRANCH  28  30
BRANCH   5   4
ATOM      4  C   UNL     1      -0.600   0.561  24.395  0.00  0.00    +0.114 C 
BRANCH   4   2
ATOM      1  O   UNL     1       0.418  -0.442  24.353  0.00  0.00    -0.246 OA
ATOM      2  C   UNL     1      -0.007   0.160  23.982  0.00  0.00    +0.365 C 
ATOM      3  O   UNL     1       0.158   0.361  23.200  0.00  0.00    -0.246 OA
ENDBRANCH   4   2
ENDBRANCH   5   4
BRANCH  10  11
ATOM     11  C   UNL     1      -1.853   1.439  25.012  0.00  0.00    +0.023 C 
BRANCH  11  12
ATOM     12  C   UNL     1      -2.240   2.023  24.576  0.00  0.00    +0.091 C 
BRANCH  12  13
ATOM     13  N   UNL     1      -2.385   2.763  24.914  0.00  0.00    -0.306 N 
BRANCH  13  22
ATOM     22  C   UNL     1      -1.794   3.337  24.918  0.00  0.00    +0.048 A 
ATOM     23  C   UNL     1      -1.501   3.633  24.205  0.00  0.00    +0.015 A 
ATOM     24  C   UNL     1      -0.910   4.208  24.210  0.00  0.00    +0.001 A 
ATOM     25  C   UNL     1      -0.610   4.487  24.926  0.00  0.00    +0.000 A 
ATOM     26  C   UNL     1      -0.902   4.191  25.638  0.00  0.00    +0.001 A 
ATOM     27  C   UNL     1      -1.494   3.616  25.634  0.00  0.00    +0.015 A 
ENDBRANCH  13  22
BRANCH  13  14
ATOM     14  C   UNL     1      -3.121   2.925  25.248  0.00  0.00    +0.108 C 
BRANCH  14  15
ATOM     15  C   UNL     1      -3.778   3.035  24.761  0.00  0.00    +0.094 C 
BRANCH  15  16
ATOM     16  N   UNL     1      -4.521   3.168  25.096  0.00  0.00    -0.267 NA
ATOM     17  C   UNL     1      -4.706   3.910  25.406  0.00  0.00    +0.105 C 
ATOM     18  C   UNL     1      -5.449   4.043  25.740  0.00  0.00    +0.159 C 
ATOM     19  O   UNL     1      -6.006   3.435  25.764  0.00  0.00    -0.351 OA
ATOM     20  C   UNL     1      -5.820   2.694  25.453  0.00  0.00    +0.159 C 
ATOM     21  C   UNL     1      -5.078   2.560  25.119  0.00  0.00    +0.105 C 
ENDBRANCH  15  16
ENDBRANCH  14  15
ENDBRANCH  13  14
ENDBRANCH  12  13
ENDBRANCH  11  12
ENDBRANCH  10  11
TORSDOF 10
ENDMDL
MODEL 3
REMARK VINA RESULT:      -9.7      1.762      4.372
REMARK  Name = 
REMARK  10 active torsions:
REMARK  status: ('A' for Active; 'I' for Inactive)
REMARK    1  A    between atoms: C_2  and  C_4
REMARK    2  A    between atoms: C_4  and  C_5
REMARK    3  A    between atoms: C_10  and  C_11
REMARK    4  A    between atoms: C_11  and  C_12
REMARK    5  A    between atoms: C_12  and  N_13
REMARK    6  A    between atoms: N_13  and  C_14
REMARK    7  A    between atoms: N_13  and  C_22
REMARK    8  A    between atoms: C_14  and  C_15
REMARK    9  A    between atoms: C_15  and  N_16
REMARK   10  A    between atoms: C_28  and  C_30
REMARK                            x       y       z     vdW  Elec       q    Type
REMARK                         _______ _______ _______ _____ _____    ______ ____
ROOT
ATOM      5  C   UNL     1      -0.676   1.627  24.659  0.00  0.00    +0.015 C 
ATOM      6  C   UNL     1       0.077   1.713  24.335  0.00  0.00    +0.022 C 
ATOM      7  C   UNL     1       0.415   1.096  23.905  0.00  0.00    +0.094 C 
ATOM      8  N   UNL     1      -0.001   0.392  23.797  0.00  0.00    -0.276 N 
ATOM      9  C   UNL     1      -0.756   0.305  24.121  0.00  0.00    +0.094 C 
ATOM     10  C   UNL     1      -1.093   0.923  24.552  0.00  0.00    +0.022 C 
ATOM     28  C   UNL     1       0.335  -0.226  23.367  0.00  0.00    +0.249 C 
ATOM     29  O   UNL     1      -0.081  -0.929  23.260  0.00  0.00    -0.270 OA
ENDROOT
BRANCH  28  30
ATOM     30  C   UNL     1       1.090  -0.140  23.043  0.00  0.00    +0.054 A 
ATOM     31  C   UNL     1       1.753  -0.150  23.534  0.00  0.00    +0.005 A 
ATOM     32  C   UNL     1       2.506  -0.063  23.211  0.00  0.00    +0.000 A 
ATOM     33  C   UNL     1       2.598   0.034  22.396  0.00  0.00    +0.000 A 
ATOM     34  C   UNL     1       1.935   0.044  21.905  0.00  0.00    +0.000 A 
ATOM     35  C   UNL     1       1.180  -0.043  22.229  0.00  0.00    +0.005 A 
ENDBRANCH  28  30
BRANCH   5   4
ATOM      4  C   UNL     1      -1.014   2.244  25.089  0.00  0.00    +0.114 C 
BRANCH   4   2
ATOM      1  O   UNL     1      -0.595   3.573  24.770  0.00  0.00    -0.246 OA
ATOM      2  C   UNL     1      -0.567   2.915  25.267  0.00  0.00    +0.365 C 
ATOM      3  O   UNL     1      -0.093   2.927  25.942  0.00  0.00    -0.246 OA
ENDBRANCH   4   2
ENDBRANCH   5   4
BRANCH  10  11
ATOM     11  C   UNL     1      -1.847   0.836  24.875  0.00  0.00    +0.023 C 
BRANCH  11  12
ATOM     12  C   UNL     1      -2.449   0.491  24.428  0.00  0.00    +0.091 C 
BRANCH  12  13
ATOM     13  N   UNL     1      -3.152   0.256  24.794  0.00  0.00    -0.306 N 
BRANCH  13  22
ATOM     22  C   UNL     1      -3.340  -0.544  24.850  0.00  0.00    +0.048 A 
ATOM     23  C   UNL     1      -3.582  -0.959  24.179  0.00  0.00    +0.015 A 
ATOM     24  C   UNL     1      -3.771  -1.761  24.235  0.00  0.00    +0.001 A 
ATOM     25  C   UNL     1      -3.717  -2.146  24.963  0.00  0.00    +0.000 A 
ATOM     26  C   UNL     1      -3.475  -1.732  25.633  0.00  0.00    +0.001 A 
ATOM     27  C   UNL     1      -3.286  -0.931  25.577  0.00  0.00    +0.015 A 
ENDBRANCH  13  22
BRANCH  13  14
ATOM     14  C   UNL     1      -3.664   0.824  25.103  0.00  0.00    +0.108 C 
BRANCH  14  15
ATOM     15  C   UNL     1      -4.141   1.266  24.596  0.00  0.00    +0.094 C 
BRANCH  15  16
ATOM     16  N   UNL     1      -4.656   1.833  24.904  0.00  0.00    -0.267 NA
ATOM     17  C   UNL     1      -4.414   2.619  24.966  0.00  0.00    +0.105 C 
ATOM     18  C   UNL     1      -4.929   3.186  25.275  0.00  0.00    +0.159 C 
ATOM     19  O   UNL     1      -5.685   2.966  25.521  0.00  0.00    -0.351 OA
ATOM     20  C   UNL     1      -5.926   2.179  25.459  0.00  0.00    +0.159 C 
ATOM     21  C   UNL     1      -5.412   1.613  25.151  0.00  0.00    +0.105 C 
ENDBRANCH  15  16
ENDBRANCH  14  15
ENDBRANCH  13  14
ENDBRANCH  12  13
ENDBRANCH  11  12
ENDBRANCH  10  11
TORSDOF 10
ENDMDL
MODEL 4
REMARK VINA RESULT:      -9.6      1.930      4.980
REMARK  Name = 
REMARK  10 active torsions:
REMARK  status: ('A' for Active; 'I' for Inactive)
REMARK    1  A    between atoms: C_2  and  C_4
REMARK    2  A    between atoms: C_4  and  C_5
REMARK    3  A    between atoms: C_10  and  C_11
REMARK    4  A    between atoms: C_11  and  C_12
REMARK    5  A    between atoms: C_12  and  N_13
REMARK    6  A    between atoms: N_13  and  C_14
REMARK    7  A    between atoms: N_13  and  C_22
REMARK    8  A    between atoms: C_14  and  C_15
REMARK    9  A    between atoms: C_15  and  N_16
REMARK   10  A    between atoms: C_28  and  C_30
REMARK                            x       y       z     vdW  Elec       q    Type
REMARK                         _______ _______ _______ _____ _____    ______ ____
ROOT
ATOM      5  C   UNL     1      -1.131   2.082  25.417  0.00  0.00    +0.015 C 
ATOM      6  C   UNL     1      -1.650   2.709  25.548  0.00  0.00    +0.022 C 
ATOM      7  C   UNL     1      -2.438   2.650  25.311  0.00  0.00    +0.094 C 
ATOM      8  N   UNL     1      -2.707   1.962  24.943  0.00  0.00    -0.276 N 
ATOM      9  C   UNL     1      -2.187   1.334  24.811  0.00  0.00    +0.094 C 
ATOM     10  C   UNL     1      -1.400   1.395  25.048  0.00  0.00    +0.022 C 
ATOM     28  C   UNL     1      -3.494   1.902  24.705  0.00  0.00    +0.249 C 
ATOM     29  O   UNL     1      -3.763   1.215  24.337  0.00  0.00    -0.270 OA
ENDROOT
BRANCH  28  30
ATOM     30  C   UNL     1      -4.014   2.530  24.837  0.00  0.00    +0.054 A 
ATOM     31  C   UNL     1      -4.028   3.170  24.317  0.00  0.00    +0.005 A 
ATOM     32  C   UNL     1      -4.547   3.796  24.449  0.00  0.00    +0.000 A 
ATOM     33  C   UNL     1      -5.053   3.785  25.101  0.00  0.00    +0.000 A 
ATOM     34  C   UNL     1      -5.038   3.145  25.621  0.00  0.00    +0.000 A 
ATOM     35  C   UNL     1      -4.519   2.517  25.490  0.00  0.00    +0.005 A 
ENDBRANCH  28  30
BRANCH   5   4
ATOM      4  C   UNL     1      -0.344   2.142  25.653  0.00  0.00    +0.114 C 
BRANCH   4   2
ATOM      1  O   UNL     1      -0.045   2.625  26.965  0.00  0.00    -0.246 OA
ATOM      2  C   UNL     1      -0.108   2.756  26.153  0.00  0.00    +0.365 C 
ATOM      3  O   UNL     1       0.063   3.499  25.840  0.00  0.00    -0.246 OA
ENDBRANCH   4   2
ENDBRANCH   5   4
BRANCH  10  11
ATOM     11  C   UNL     1      -0.881   0.767  24.916  0.00  0.00    +0.023 C 
BRANCH  11  12
ATOM     12  C   UNL     1      -1.023   0.238  24.298  0.00  0.00    +0.091 C 
BRANCH  12  13
ATOM     13  N   UNL     1      -0.558  -0.440  24.221  0.00  0.00    -0.306 N 
BRANCH  13  22
ATOM     22  C   UNL     1      -0.853  -1.171  24.463  0.00  0.00    +0.048 A 
ATOM     23  C   UNL     1      -1.479  -1.520  24.054  0.00  0.00    +0.015 A 
ATOM     24  C   UNL     1      -1.774  -2.251  24.296  0.00  0.00    +0.001 A 
ATOM     25  C   UNL     1      -1.443  -2.633  24.948  0.00  0.00    +0.000 A 
ATOM     26  C   UNL     1      -0.818  -2.285  25.357  0.00  0.00    +0.001 A 
ATOM     27  C   UNL     1      -0.523  -1.554  25.114  0.00  0.00    +0.015 A 
ENDBRANCH  13  22
BRANCH  13  14
ATOM     14  C   UNL     1       0.200  -0.386  23.902  0.00  0.00    +0.108 C 
BRANCH  14  15
ATOM     15  C   UNL     1       0.310  -0.047  23.158  0.00  0.00    +0.094 C 
BRANCH  15  16
ATOM     16  N   UNL     1       1.065  -0.019  22.825  0.00  0.00    -0.267 NA
ATOM     17  C   UNL     1       1.673   0.377  23.217  0.00  0.00    +0.105 C 
ATOM     18  C   UNL     1       2.429   0.405  22.884  0.00  0.00    +0.159 C 
ATOM     19  O   UNL     1       2.574   0.036  22.160  0.00  0.00    -0.351 OA
ATOM     20  C   UNL     1       1.965  -0.360  21.769  0.00  0.00    +0.159 C 
ATOM     21  C   UNL     1       1.211  -0.388  22.101  0.00  0.00    +0.105 C 
ENDBRANCH  15  16
ENDBRANCH  14  15
ENDBRANCH  13  14
ENDBRANCH  12  13
ENDBRANCH  11  12
ENDBRANCH  10  11
TORSDOF 10
ENDMDL
MODEL 5
REMARK VINA RESULT:      -9.5      1.436      3.086
REMARK  Name = 
REMARK  10 active torsions:
REMARK  status: ('A' for Active; 'I' for Inactive)
REMARK    1  A    between atoms: C_2  and  C_4
REMARK    2  A    between atoms: C_4  and  C_5
REMARK    3  A    between atoms: C_10  and  C_11
REMARK    4  A    between atoms: C_11  and  C_12
REMARK    5  A    between atoms: C_12  and  N_13
REMARK    6  A    between atoms: N_13  and  C_14
REMARK    7  A    between atoms: N_13  and  C_22
REMARK    8  A    between atoms: C_14  and  C_15
REMARK    9  A    between atoms: C_15  and  N_16
REMARK   10  A    between atoms: C_28  and  C_30
REMARK                            x       y       z     vdW  Elec       q    Type
REMARK                         _______ _______ _______ _____ _____    ______ ____
ROOT
ATOM      5  C   UNL     1      -4.382   1.149  24.824  0.00  0.00    +0.015 C 
ATOM      6  C   UNL     1      -4.762   0.417  24.816  0.00  0.00    +0.022 C 
ATOM      7  C   UNL     1      -4.334  -0.270  24.656  0.00  0.00    +0.094 C 
ATOM      8  N   UNL     1      -3.524  -0.224  24.504  0.00  0.00    -0.276 N 
ATOM      9  C   UNL     1      -3.143   0.508  24.511  0.00  0.00    +0.094 C 
ATOM     10  C   UNL     1      -3.572   1.194  24.671  0.00  0.00    +0.022 C 
ATOM     28  C   UNL     1      -3.095  -0.910  24.344  0.00  0.00    +0.249 C 
ATOM     29  O   UNL     1      -2.286  -0.865  24.192  0.00  0.00    -0.270 OA
ENDROOT
BRANCH  28  30
ATOM     30  C   UNL     1      -3.476  -1.643  24.336  0.00  0.00    +0.054 A 
ATOM     31  C   UNL     1      -3.975  -1.842  23.710  0.00  0.00    +0.005 A 
ATOM     32  C   UNL     1      -4.356  -2.573  23.703  0.00  0.00    +0.000 A 
ATOM     33  C   UNL     1      -4.238  -3.106  24.321  0.00  0.00    +0.000 A 
ATOM     34  C   UNL     1      -3.739  -2.907  24.948  0.00  0.00    +0.000 A 
ATOM     35  C   UNL     1      -3.358  -2.175  24.955  0.00  0.00    +0.005 A 
ENDBRANCH  28  30
BRANCH   5   4
ATOM      4  C   UNL     1      -4.810   1.835  24.983  0.00  0.00    +0.114 C 
BRANCH   4   2
ATOM      1  O   UNL     1      -6.193   1.783  24.622  0.00  0.00    -0.246 OA
ATOM      2  C   UNL     1      -5.605   1.784  25.202  0.00  0.00    +0.365 C 
ATOM      3  O   UNL     1      -5.811   1.733  25.998  0.00  0.00    -0.246 OA
ENDBRANCH   4   2
ENDBRANCH   5   4
BRANCH  10  11
ATOM     11  C   UNL     1      -3.191   1.926  24.679  0.00  0.00    +0.023 C 
BRANCH  11  12
ATOM     12  C   UNL     1      -2.539   2.045  25.170  0.00  0.00    +0.091 C 
BRANCH  12  13
ATOM     13  N   UNL     1      -1.989   2.635  24.991  0.00  0.00    -0.306 N 
BRANCH  13  22
ATOM     22  C   UNL     1      -2.122   3.410  25.237  0.00  0.00    +0.048 A 
ATOM     23  C   UNL     1      -2.257   3.572  26.035  0.00  0.00    +0.015 A 
ATOM     24  C   UNL     1      -2.390   4.348  26.282  0.00  0.00    +0.001 A 
ATOM     25  C   UNL     1      -2.386   4.962  25.731  0.00  0.00    +0.000 A 
ATOM     26  C   UNL     1      -2.251   4.801  24.934  0.00  0.00    +0.001 A 
ATOM     27  C   UNL     1      -2.119   4.024  24.687  0.00  0.00    +0.015 A 
ENDBRANCH  13  22
BRANCH  13  14
ATOM     14  C   UNL     1      -1.308   2.447  24.565  0.00  0.00    +0.108 C 
BRANCH  14  15
ATOM     15  C   UNL     1      -0.703   2.019  24.925  0.00  0.00    +0.094 C 
BRANCH  15  16
ATOM     16  N   UNL     1      -0.055   1.766  24.480  0.00  0.00    -0.267 NA
ATOM     17  C   UNL     1       0.528   2.306  24.258  0.00  0.00    +0.105 C 
ATOM     18  C   UNL     1       1.176   2.053  23.813  0.00  0.00    +0.159 C 
ATOM     19  O   UNL     1       1.239   1.261  23.589  0.00  0.00    -0.351 OA
ATOM     20  C   UNL     1       0.655   0.722  23.812  0.00  0.00    +0.159 C 
ATOM     21  C   UNL     1       0.008   0.974  24.257  0.00  0.00    +0.105 C 
ENDBRANCH  15  16
ENDBRANCH  14  15
ENDBRANCH  13  14
ENDBRANCH  12  13
ENDBRANCH  11  12
ENDBRANCH  10  11
TORSDOF 10
ENDMDL
MODEL 6
REMARK VINA RESULT:      -9.4      1.296      5.318
REMARK  Name = 
REMARK  10 active torsions:
REMARK  status: ('A' for Active; 'I' for Inactive)
REMARK    1  A    between atoms: C_2  and  C_4
REMARK    2  A    between atoms: C_4  and  C_5
REMARK    3  A    between atoms: C_10  and  C_11
REMARK    4  A    between atoms: C_11  and  C_12
REMARK    5  A    between atoms: C_12  and  N_13
REMARK    6  A    between atoms: N_13  and  C_14
REMARK    7  A    between atoms: N_13  and  C_22
REMARK    8  A    between atoms: C_14  and  C_15
REMARK    9  A    between atoms: C_15  and  N_16
REMARK   10  A    between atoms: C_28  and  C_30
REMARK                            x       y       z     vdW  Elec       q    Type
REMARK                         _______ _______ _______ _____ _____    ______ ____
ROOT
ATOM      5  C   UNL     1      -4.095   1.880  24.808  0.00  0.00    +0.015 C 
ATOM      6  C   UNL     1      -4.142   2.690  24.956  0.00  0.00    +0.022 C 
ATOM      7  C   UNL     1      -3.453   3.130  25.067  0.00  0.00    +0.094 C 
ATOM      8  N   UNL     1      -2.716   2.760  25.031  0.00  0.00    -0.276 N 
ATOM      9  C   UNL     1      -2.669   1.949  24.882  0.00  0.00    +0.094 C 
ATOM     10  C   UNL     1      -3.358   1.510  24.771  0.00  0.00    +0.022 C 
ATOM     28  C   UNL     1      -2.027   3.199  25.142  0.00  0.00    +0.249 C 
ATOM     29  O   UNL     1      -1.292   2.829  25.105  0.00  0.00    -0.270 OA
ENDROOT
BRANCH  28  30
ATOM     30  C   UNL     1      -2.075   4.010  25.290  0.00  0.00    +0.054 A 
ATOM     31  C   UNL     1      -2.473   4.284  25.958  0.00  0.00    +0.005 A 
ATOM     32  C   UNL     1      -2.520   5.094  26.106  0.00  0.00    +0.000 A 
ATOM     33  C   UNL     1      -2.169   5.630  25.586  0.00  0.00    +0.000 A 
ATOM     34  C   UNL     1      -1.771   5.356  24.918  0.00  0.00    +0.000 A 
ATOM     35  C   UNL     1      -1.723   4.545  24.770  0.00  0.00    +0.005 A 
ENDBRANCH  28  30
BRANCH   5   4
ATOM      4  C   UNL     1      -4.783   1.440  24.696  0.00  0.00    +0.114 C 
BRANCH   4   2
ATOM      1  O   UNL     1      -5.693   1.588  25.789  0.00  0.00    -0.246 OA
ATOM      2  C   UNL     1      -5.502   1.716  24.996  0.00  0.00    +0.365 C 
ATOM      3  O   UNL     1      -6.027   2.118  24.504  0.00  0.00    -0.246 OA
ENDBRANCH   4   2
ENDBRANCH   5   4
BRANCH  10  11
ATOM     11  C   UNL     1      -3.311   0.700  24.623  0.00  0.00    +0.023 C 
BRANCH  11  12
ATOM     12  C   UNL     1      -2.737   0.244  25.004  0.00  0.00    +0.091 C 
BRANCH  12  13
ATOM     13  N   UNL     1      -2.479  -0.463  24.665  0.00  0.00    -0.306 N 
BRANCH  13  22
ATOM     22  C   UNL     1      -2.898  -1.160  24.794  0.00  0.00    +0.048 A 
ATOM     23  C   UNL     1      -2.967  -1.465  25.558  0.00  0.00    +0.015 A 
ATOM     24  C   UNL     1      -3.387  -2.163  25.688  0.00  0.00    +0.001 A 
ATOM     25  C   UNL     1      -3.739  -2.556  25.053  0.00  0.00    +0.000 A 
ATOM     26  C   UNL     1      -3.670  -2.252  24.290  0.00  0.00    +0.001 A 
ATOM     27  C   UNL     1      -3.250  -1.554  24.160  0.00  0.00    +0.015 A 
ENDBRANCH  13  22
BRANCH  13  14
ATOM     14  C   UNL     1      -1.800  -0.470  24.196  0.00  0.00    +0.108 C 
BRANCH  14  15
ATOM     15  C   UNL     1      -1.059  -0.367  24.543  0.00  0.00    +0.094 C 
BRANCH  15  16
ATOM     16  N   UNL     1      -0.382  -0.345  24.071  0.00  0.00    -0.267 NA
ATOM     17  C   UNL     1       0.092  -1.016  23.999  0.00  0.00    +0.105 C 
ATOM     18  C   UNL     1       0.769  -0.994  23.527  0.00  0.00    +0.159 C 
ATOM     19  O   UNL     1       0.971  -0.301  23.128  0.00  0.00    -0.351 OA
ATOM     20  C   UNL     1       0.496   0.370  23.201  0.00  0.00    +0.159 C 
ATOM     21  C   UNL     1      -0.180   0.348  23.672  0.00  0.00    +0.105 C 
ENDBRANCH  15  16
ENDBRANCH  14  15
ENDBRANCH  13  14
ENDBRANCH  12  13
ENDBRANCH  11  12
ENDBRANCH  10  11
TORSDOF 10
ENDMDL
MODEL 7
REMARK VINA RESULT:      -9.1      1.297      4.886
REMARK  Name = 
REMARK  10 active torsions:
REMARK  status: ('A' for Active; 'I' for Inactive)
REMARK    1  A    between atoms: C_2  and  C_4
REMARK    2  A    between atoms: C_4  and  C_5
REMARK    3  A    between atoms: C_10  and  C_11
REMARK    4  A    between atoms: C_11  and  C_12
REMARK    5  A    between atoms: C_12  and  N_13
REMARK    6  A    between atoms: N_13  and  C_14
REMARK    7  A    between atoms: N_13  and  C_22
REMARK    8  A    between atoms: C_14  and  C_15
REMARK    9  A    between atoms: C_15  and  N_16
REMARK   10  A    between atoms: C_28  and  C_30
REMARK                            x       y       z     vdW  Elec       q    Type
REMARK                         _______ _______ _______ _____ _____    ______ ____
ROOT
ATOM      5  C   UNL     1      -1.242   1.017  24.230  0.00  0.00    +0.015 C 
ATOM      6  C   UNL     1      -0.788   1.696  24.118  0.00  0.00    +0.022 C 
ATOM      7  C   UNL     1      -1.029   2.413  24.447  0.00  0.00    +0.094 C 
ATOM      8  N   UNL     1      -1.724   2.451  24.889  0.00  0.00    -0.276 N 
ATOM      9  C   UNL     1      -2.179   1.771  25.002  0.00  0.00    +0.094 C 
ATOM     10  C   UNL     1      -1.937   1.055  24.673  0.00  0.00    +0.022 C 
ATOM     28  C   UNL     1      -1.966   3.167  25.219  0.00  0.00    +0.249 C 
ATOM     29  O   UNL     1      -2.660   3.205  25.661  0.00  0.00    -0.270 OA
ENDROOT
BRANCH  28  30
ATOM     30  C   UNL     1      -1.511   3.847  25.106  0.00  0.00    +0.054 A 
ATOM     31  C   UNL     1      -1.830   4.495  24.706  0.00  0.00    +0.005 A 
ATOM     32  C   UNL     1      -1.376   5.174  24.594  0.00  0.00    +0.000 A 
ATOM     33  C   UNL     1      -0.602   5.206  24.880  0.00  0.00    +0.000 A 
ATOM     34  C   UNL     1      -0.284   4.558  25.279  0.00  0.00    +0.000 A 
ATOM     35  C   UNL     1      -0.738   3.878  25.393  0.00  0.00    +0.005 A 
ENDBRANCH  28  30
BRANCH   5   4
ATOM      4  C   UNL     1      -1.001   0.301  23.901  0.00  0.00    +0.114 C 
BRANCH   4   2
ATOM      1  O   UNL     1       0.192  -0.282  24.432  0.00  0.00    -0.246 OA
ATOM      2  C   UNL     1      -0.196   0.129  23.831  0.00  0.00    +0.365 C 
ATOM      3  O   UNL     1       0.218   0.368  23.159  0.00  0.00    -0.246 OA
ENDBRANCH   4   2
ENDBRANCH   5   4
BRANCH  10  11
ATOM     11  C   UNL     1      -2.392   0.376  24.786  0.00  0.00    +0.023 C 
BRANCH  11  12
ATOM     12  C   UNL     1      -3.109   0.289  24.387  0.00  0.00    +0.091 C 
BRANCH  12  13
ATOM     13  N   UNL     1      -3.722  -0.145  24.730  0.00  0.00    -0.306 N 
BRANCH  13  22
ATOM     22  C   UNL     1      -3.736  -0.966  24.658  0.00  0.00    +0.048 A 
ATOM     23  C   UNL     1      -3.974  -1.315  23.948  0.00  0.00    +0.015 A 
ATOM     24  C   UNL     1      -3.988  -2.136  23.876  0.00  0.00    +0.001 A 
ATOM     25  C   UNL     1      -3.764  -2.610  24.514  0.00  0.00    +0.000 A 
ATOM     26  C   UNL     1      -3.527  -2.262  25.223  0.00  0.00    +0.001 A 
ATOM     27  C   UNL     1      -3.513  -1.440  25.295  0.00  0.00    +0.015 A 
ENDBRANCH  13  22
BRANCH  13  14
ATOM     14  C   UNL     1      -4.321   0.243  25.144  0.00  0.00    +0.108 C 
BRANCH  14  15
ATOM     15  C   UNL     1      -4.912   0.644  24.732  0.00  0.00    +0.094 C 
BRANCH  15  16
ATOM     16  N   UNL     1      -5.358   1.225  25.114  0.00  0.00    -0.267 NA
ATOM     17  C   UNL     1      -5.522   1.937  24.731  0.00  0.00    +0.105 C 
ATOM     18  C   UNL     1      -5.968   2.517  25.112  0.00  0.00    +0.159 C 
ATOM     19  O   UNL     1      -6.250   2.385  25.876  0.00  0.00    -0.351 OA
ATOM     20  C   UNL     1      -6.086   1.673  26.259  0.00  0.00    +0.159 C 
ATOM     21  C   UNL     1      -5.640   1.093  25.878  0.00  0.00    +0.105 C 
ENDBRANCH  15  16
ENDBRANCH  14  15
ENDBRANCH  13  14
ENDBRANCH  12  13
ENDBRANCH  11  12
ENDBRANCH  10  11
TORSDOF 10
ENDMDL
MODEL 8
REMARK VINA RESULT:      -9.0      1.838      4.316
REMARK  Name = 
REMARK  10 active torsions:
REMARK  status: ('A' for Active; 'I' for Inactive)
REMARK    1  A    between atoms: C_2  and  C_4
REMARK    2  A    between atoms: C_4  and  C_5
REMARK    3  A    between atoms: C_10  and  C_11
REMARK    4  A    between atoms: C_11  and  C_12
REMARK    5  A    between atoms: C_12  and  N_13
REMARK    6  A    between atoms: N_13  and  C_14
REMARK    7  A    between atoms: N_13  and  C_22
REMARK    8  A    between atoms: C_14  and  C_15
REMARK    9  A    between atoms: C_15  and  N_16
REMARK   10  A    between atoms: C_28  and  C_30
REMARK                            x       y       z     vdW  Elec       q    Type
REMARK                         _______ _______ _______ _____ _____    ______ ____
ROOT
ATOM      5  C   UNL     1      -3.072  -0.197  24.924  0.00  0.00    +0.015 C 
ATOM      6  C   UNL     1      -3.888  -0.206  25.040  0.00  0.00    +0.022 C 
ATOM      7  C   UNL     1      -4.308   0.503  25.083  0.00  0.00    +0.094 C 
ATOM      8  N   UNL     1      -3.910   1.222  25.009  0.00  0.00    -0.276 N 
ATOM      9  C   UNL     1      -3.092   1.232  24.893  0.00  0.00    +0.094 C 
ATOM     10  C   UNL     1      -2.674   0.522  24.850  0.00  0.00    +0.022 C 
ATOM     28  C   UNL     1      -4.328   1.932  25.051  0.00  0.00    +0.249 C 
ATOM     29  O   UNL     1      -3.930   2.650  24.978  0.00  0.00    -0.270 OA
ENDROOT
BRANCH  28  30
ATOM     30  C   UNL     1      -5.145   1.923  25.168  0.00  0.00    +0.054 A 
ATOM     31  C   UNL     1      -5.652   1.800  24.528  0.00  0.00    +0.005 A 
ATOM     32  C   UNL     1      -6.468   1.791  24.644  0.00  0.00    +0.000 A 
ATOM     33  C   UNL     1      -6.779   1.904  25.400  0.00  0.00    +0.000 A 
ATOM     34  C   UNL     1      -6.272   2.026  26.040  0.00  0.00    +0.000 A 
ATOM     35  C   UNL     1      -5.455   2.036  25.924  0.00  0.00    +0.005 A 
ENDBRANCH  28  30
BRANCH   5   4
ATOM      4  C   UNL     1      -2.654  -0.906  24.881  0.00  0.00    +0.114 C 
BRANCH   4   2
ATOM      1  O   UNL     1      -3.279  -1.992  25.570  0.00  0.00    -0.246 OA
ATOM      2  C   UNL     1      -3.060  -1.625  24.864  0.00  0.00    +0.365 C 
ATOM      3  O   UNL     1      -3.248  -1.975  24.142  0.00  0.00    -0.246 OA
ENDBRANCH   4   2
ENDBRANCH   5   4
BRANCH  10  11
ATOM     11  C   UNL     1      -1.858   0.532  24.734  0.00  0.00    +0.023 C 
BRANCH  11  12
ATOM     12  C   UNL     1      -1.485   1.225  24.486  0.00  0.00    +0.091 C 
BRANCH  12  13
ATOM     13  N   UNL     1      -0.691   1.356  24.672  0.00  0.00    -0.306 N 
BRANCH  13  22
ATOM     22  C   UNL     1      -0.482   1.970  25.181  0.00  0.00    +0.048 A 
ATOM     23  C   UNL     1      -0.189   1.800  25.934  0.00  0.00    +0.015 A 
ATOM     24  C   UNL     1       0.020   2.414  26.443  0.00  0.00    +0.001 A 
ATOM     25  C   UNL     1      -0.065   3.198  26.200  0.00  0.00    +0.000 A 
ATOM     26  C   UNL     1      -0.358   3.368  25.448  0.00  0.00    +0.001 A 
ATOM     27  C   UNL     1      -0.567   2.754  24.939  0.00  0.00    +0.015 A 
ENDBRANCH  13  22
BRANCH  13  14
ATOM     14  C   UNL     1      -0.107   0.872  24.347  0.00  0.00    +0.108 C 
BRANCH  14  15
ATOM     15  C   UNL     1       0.123   0.976  23.562  0.00  0.00    +0.094 C 
BRANCH  15  16
ATOM     16  N   UNL     1       0.774   0.564  23.266  0.00  0.00    -0.267 NA
ATOM     17  C   UNL     1       0.669  -0.171  22.906  0.00  0.00    +0.105 C 
ATOM     18  C   UNL     1       1.321  -0.582  22.610  0.00  0.00    +0.159 C 
ATOM     19  O   UNL     1       2.077  -0.258  22.674  0.00  0.00    -0.351 OA
ATOM     20  C   UNL     1       2.181   0.477  23.033  0.00  0.00    +0.159 C 
ATOM     21  C   UNL     1       1.530   0.888  23.329  0.00  0.00    +0.105 C 
ENDBRANCH  15  16
ENDBRANCH  14  15
ENDBRANCH  13  14
ENDBRANCH  12  13
ENDBRANCH  11  12
ENDBRANCH  10  11
TORSDOF 10
ENDMDL
