MODEL 1
REMARK VINA RESULT:     -10.2      0.000      0.000
REMARK  Name = 
REMARK  4 active torsions:
REMARK  status: ('A' for Active; 'I' for Inactive)
REMARK    1  A    between atoms: C_3  and  C_4
REMARK    2  A    between atoms: C_6  and  C_11
REMARK    3  A    between atoms: C_14  and  N_15
REMARK    4  A    between atoms: C_16  and  C_18
REMARK                            x       y       z     vdW  Elec       q    Type
REMARK                         _______ _______ _______ _____ _____    ______ ____
ROOT
ATOM     11  C   UNL     1      -3.444   0.008  24.433  0.00  0.00    +0.006 A 
ATOM     12  C   UNL     1      -3.677   0.367  25.138  0.00  0.00    -0.001 A 
ATOM     13  C   UNL     1      -3.541   1.173  25.255  0.00  0.00    +0.016 A 
ATOM     14  C   UNL     1      -3.173   1.619  24.665  0.00  0.00    +0.074 A 
ATOM     24  C   UNL     1      -2.941   1.259  23.960  0.00  0.00    +0.016 A 
ATOM     25  C   UNL     1      -3.077   0.453  23.844  0.00  0.00    -0.001 A 
ENDROOT
BRANCH  11   6
ATOM      1  C   UNL     1      -2.570  -2.705  24.642  0.00  0.00    +0.115 C 
ATOM      2  N   UNL     1      -3.142  -2.154  24.421  0.00  0.00    -0.272 N 
ATOM      3  C   UNL     1      -3.007  -1.349  24.538  0.00  0.00    +0.140 C 
ATOM      6  C   UNL     1      -3.580  -0.797  24.316  0.00  0.00    +0.159 C 
ATOM      7  O   UNL     1      -4.288  -1.052  23.979  0.00  0.00    -0.341 OA
ATOM      8  C   UNL     1      -4.424  -1.858  23.862  0.00  0.00    +0.227 C 
ATOM      9  C   UNL     1      -3.851  -2.408  24.083  0.00  0.00    +0.256 C 
ATOM     10  O   UNL     1      -3.987  -3.214  23.967  0.00  0.00    -0.272 OA
BRANCH   3   4
ATOM      4  C   UNL     1      -2.299  -1.094  24.875  0.00  0.00    +0.205 C 
ATOM      5  O   UNL     1      -1.623  -1.565  24.824  0.00  0.00    -0.218 OA
ENDBRANCH   3   4
ENDBRANCH  11   6
BRANCH  14  15
ATOM     15  N   UNL     1      -3.037   2.424  24.782  0.00  0.00    -0.174 NA
ATOM     16  C   UNL     1      -2.342   2.677  25.146  0.00  0.00    +0.290 C 
ATOM     17  O   UNL     1      -1.783   2.124  25.394  0.00  0.00    -0.266 OA
BRANCH  16  18
ATOM     18  C   UNL     1      -2.207   3.482  25.262  0.00  0.00    +0.178 A 
ATOM     19  N   UNL     1      -2.666   3.990  25.722  0.00  0.00    -0.073 NA
ATOM     20  O   UNL     1      -2.331   4.743  25.683  0.00  0.00    -0.358 OA
ATOM     21  C   UNL     1      -1.664   4.701  25.199  0.00  0.00    +0.155 A 
ATOM     22  C   UNL     1      -1.163   5.327  25.008  0.00  0.00    +0.075 C 
ATOM     23  C   UNL     1      -1.587   3.921  24.939  0.00  0.00    +0.063 A 
ENDBRANCH  16  18
ENDBRANCH  14  15
TORSDOF 4
ENDMDL
MODEL 2
REMARK VINA RESULT:      -9.8      1.190      5.476
REMARK  Name = 
REMARK  4 active torsions:
REMARK  status: ('A' for Active; 'I' for Inactive)
REMARK    1  A    between atoms: C_3  and  C_4
REMARK    2  A    between atoms: C_6  and  C_11
REMARK    3  A    between atoms: C_14  and  N_15
REMARK    4  A    between atoms: C_16  and  C_18
REMARK                            x       y       z     vdW  Elec       q    Type
REMARK                         _______ _______ _______ _____ _____    ______ ____
ROOT
ATOM     11  C   UNL     1      -1.981   2.284  24.579  0.00  0.00    +0.006 A 
ATOM     12  C   UNL     1      -1.777   1.684  25.107  0.00  0.00    -0.001 A 
ATOM     13  C   UNL     1      -2.020   0.909  24.964  0.00  0.00    +0.016 A 
ATOM     14  C   UNL     1      -2.467   0.733  24.293  0.00  0.00    +0.074 A 
ATOM     24  C   UNL     1      -2.670   1.334  23.765  0.00  0.00    +0.016 A 
ATOM     25  C   UNL     1      -2.427   2.109  23.908  0.00  0.00    -0.001 A 
ENDROOT
BRANCH  11   6
ATOM      1  C   UNL     1      -2.499   4.882  25.650  0.00  0.00    +0.115 C 
ATOM      2  N   UNL     1      -1.997   4.359  25.258  0.00  0.00    -0.272 N 
ATOM      3  C   UNL     1      -2.240   3.584  25.115  0.00  0.00    +0.140 C 
ATOM      6  C   UNL     1      -1.738   3.059  24.722  0.00  0.00    +0.159 C 
ATOM      7  O   UNL     1      -0.993   3.311  24.473  0.00  0.00    -0.341 OA
ATOM      8  C   UNL     1      -0.750   4.087  24.616  0.00  0.00    +0.227 C 
ATOM      9  C   UNL     1      -1.252   4.610  25.008  0.00  0.00    +0.256 C 
ATOM     10  O   UNL     1      -1.009   5.385  25.151  0.00  0.00    -0.272 OA
BRANCH   3   4
ATOM      4  C   UNL     1      -2.985   3.332  25.364  0.00  0.00    +0.205 C 
ATOM      5  O   UNL     1      -3.426   3.797  25.883  0.00  0.00    -0.218 OA
ENDBRANCH   3   4
ENDBRANCH  11   6
BRANCH  14  15
ATOM     15  N   UNL     1      -2.710  -0.042  24.150  0.00  0.00    -0.174 NA
ATOM     16  C   UNL     1      -3.414  -0.320  24.475  0.00  0.00    +0.290 C 
ATOM     17  O   UNL     1      -3.876   0.177  24.944  0.00  0.00    -0.266 OA
BRANCH  16  18
ATOM     18  C   UNL     1      -3.657  -1.095  24.332  0.00  0.00    +0.178 A 
ATOM     19  N   UNL     1      -4.279  -1.326  23.842  0.00  0.00    -0.073 NA
ATOM     20  O   UNL     1      -4.327  -2.150  23.861  0.00  0.00    -0.358 OA
ATOM     21  C   UNL     1      -3.734  -2.428  24.363  0.00  0.00    +0.155 A 
ATOM     22  C   UNL     1      -3.583  -3.218  24.543  0.00  0.00    +0.075 C 
ATOM     23  C   UNL     1      -3.320  -1.776  24.655  0.00  0.00    +0.063 A 
ENDBRANCH  16  18
ENDBRANCH  14  15
TORSDOF 4
ENDMDL
MODEL 3
REMARK VINA RESULT:      -9.1      2.605      4.460
REMARK  Name = 
REMARK  4 active torsions:
REMARK  status: ('A' for Active; 'I' for Inactive)
REMARK    1  A    between atoms: C_3  and  C_4
REMARK    2  A    between atoms: C_6  and  C_11
REMARK    3  A    between atoms: C_14  and  N_15
REMARK    4  A    between atoms: C_16  and  C_18
REMARK                            x       y       z     vdW  Elec       q    Type
REMARK                         _______ _______ _______ _____ _____    ______ ____
ROOT
ATOM     11  C   UNL     1      -3.336   2.057  24.665  0.00  0.00    +0.006 A 
ATOM     12  C   UNL     1      -2.917   1.580  25.193  0.00  0.00    -0.001 A 
ATOM     13  C   UNL     1      -2.303   1.102  24.917  0.00  0.00    +0.016 A 
ATOM     14  C   UNL     1      -2.108   1.103  24.115  0.00  0.00    +0.074 A 
ATOM     24  C   UNL     1      -2.527   1.580  23.589  0.00  0.00    +0.016 A 
ATOM     25  C   UNL     1      -3.142   2.057  23.864  0.00  0.00    -0.001 A 
ENDROOT
BRANCH  11   6
ATOM      1  C   UNL     1      -6.053   2.358  25.499  0.00  0.00    +0.115 C 
ATOM      2  N   UNL     1      -5.310   2.685  25.358  0.00  0.00    -0.272 N 
ATOM      3  C   UNL     1      -4.695   2.207  25.083  0.00  0.00    +0.140 C 
ATOM      6  C   UNL     1      -3.950   2.534  24.941  0.00  0.00    +0.159 C 
ATOM      7  O   UNL     1      -3.821   3.338  25.075  0.00  0.00    -0.341 OA
ATOM      8  C   UNL     1      -4.435   3.815  25.350  0.00  0.00    +0.227 C 
ATOM      9  C   UNL     1      -5.179   3.488  25.491  0.00  0.00    +0.256 C 
ATOM     10  O   UNL     1      -5.793   3.966  25.767  0.00  0.00    -0.272 OA
BRANCH   3   4
ATOM      4  C   UNL     1      -4.825   1.404  24.949  0.00  0.00    +0.205 C 
ATOM      5  O   UNL     1      -5.584   1.131  24.773  0.00  0.00    -0.218 OA
ENDBRANCH   3   4
ENDBRANCH  11   6
BRANCH  14  15
ATOM     15  N   UNL     1      -1.494   0.625  23.840  0.00  0.00    -0.174 NA
ATOM     16  C   UNL     1      -0.710   0.846  23.970  0.00  0.00    +0.290 C 
ATOM     17  O   UNL     1      -0.540   1.543  24.376  0.00  0.00    -0.266 OA
BRANCH  16  18
ATOM     18  C   UNL     1      -0.096   0.369  23.695  0.00  0.00    +0.178 A 
ATOM     19  N   UNL     1       0.006  -0.433  23.860  0.00  0.00    -0.073 NA
ATOM     20  O   UNL     1       0.689  -0.687  23.473  0.00  0.00    -0.358 OA
ATOM     21  C   UNL     1       1.009  -0.043  23.069  0.00  0.00    +0.155 A 
ATOM     22  C   UNL     1       1.694  -0.050  22.609  0.00  0.00    +0.075 C 
ATOM     23  C   UNL     1       0.524   0.610  23.206  0.00  0.00    +0.063 A 
ENDBRANCH  16  18
ENDBRANCH  14  15
TORSDOF 4
ENDMDL
MODEL 4
REMARK VINA RESULT:      -8.6      2.049      2.338
REMARK  Name = 
REMARK  4 active torsions:
REMARK  status: ('A' for Active; 'I' for Inactive)
REMARK    1  A    between atoms: C_3  and  C_4
REMARK    2  A    between atoms: C_6  and  C_11
REMARK    3  A    between atoms: C_14  and  N_15
REMARK    4  A    between atoms: C_16  and  C_18
REMARK                            x       y       z     vdW  Elec       q    Type
REMARK                         _______ _______ _______ _____ _____    ______ ____
ROOT
ATOM     11  C   UNL     1      -3.422  -0.558  24.733  0.00  0.00    +0.006 A 
ATOM     12  C   UNL     1      -3.858  -0.496  25.431  0.00  0.00    -0.001 A 
ATOM     13  C   UNL     1      -4.363   0.145  25.546  0.00  0.00    +0.016 A 
ATOM     14  C   UNL     1      -4.433   0.726  24.963  0.00  0.00    +0.074 A 
ATOM     24  C   UNL     1      -3.997   0.663  24.265  0.00  0.00    +0.016 A 
ATOM     25  C   UNL     1      -3.492   0.021  24.151  0.00  0.00    -0.001 A 
ENDROOT
BRANCH  11   6
ATOM      1  C   UNL     1      -0.813  -1.714  24.897  0.00  0.00    +0.115 C 
ATOM      2  N   UNL     1      -1.611  -1.778  24.700  0.00  0.00    -0.272 N 
ATOM      3  C   UNL     1      -2.117  -1.136  24.815  0.00  0.00    +0.140 C 
ATOM      6  C   UNL     1      -2.916  -1.200  24.618  0.00  0.00    +0.159 C 
ATOM      7  O   UNL     1      -3.209  -1.905  24.307  0.00  0.00    -0.341 OA
ATOM      8  C   UNL     1      -2.703  -2.547  24.192  0.00  0.00    +0.227 C 
ATOM      9  C   UNL     1      -1.905  -2.483  24.389  0.00  0.00    +0.256 C 
ATOM     10  O   UNL     1      -1.399  -3.125  24.274  0.00  0.00    -0.272 OA
BRANCH   3   4
ATOM      4  C   UNL     1      -1.825  -0.430  25.126  0.00  0.00    +0.205 C 
ATOM      5  O   UNL     1      -1.196  -0.443  25.661  0.00  0.00    -0.218 OA
ENDBRANCH   3   4
ENDBRANCH  11   6
BRANCH  14  15
ATOM     15  N   UNL     1      -4.939   1.367  25.078  0.00  0.00    -0.174 NA
ATOM     16  C   UNL     1      -4.636   2.090  25.334  0.00  0.00    +0.290 C 
ATOM     17  O   UNL     1      -3.828   2.171  25.476  0.00  0.00    -0.266 OA
BRANCH  16  18
ATOM     18  C   UNL     1      -5.142   2.731  25.449  0.00  0.00    +0.178 A 
ATOM     19  N   UNL     1      -5.922   2.693  25.712  0.00  0.00    -0.073 NA
ATOM     20  O   UNL     1      -6.219   3.462  25.746  0.00  0.00    -0.358 OA
ATOM     21  C   UNL     1      -5.621   3.977  25.505  0.00  0.00    +0.155 A 
ATOM     22  C   UNL     1      -5.678   4.798  25.456  0.00  0.00    +0.075 C 
ATOM     23  C   UNL     1      -4.955   3.525  25.321  0.00  0.00    +0.063 A 
ENDBRANCH  16  18
ENDBRANCH  14  15
TORSDOF 4
ENDMDL
