MODEL 1
REMARK VINA RESULT:      -9.0      0.000      0.000
REMARK  Name = 
REMARK  6 active torsions:
REMARK  status: ('A' for Active; 'I' for Inactive)
REMARK    1  A    between atoms: C_2  and  C_3
REMARK    2  A    between atoms: C_8  and  C_9
REMARK    3  A    between atoms: C_9  and  C_10
REMARK    4  A    between atoms: N_12  and  C_14
REMARK    5  A    between atoms: C_14  and  C_15
REMARK    6  A    between atoms: C_17  and  C_19
REMARK                            x       y       z     vdW  Elec       q    Type
REMARK                         _______ _______ _______ _____ _____    ______ ____
ROOT
ATOM      3  C   UNL     1      -2.063   0.248  25.017  0.00  0.00    +0.020 C 
ATOM      4  C   UNL     1      -2.559  -0.407  24.949  0.00  0.00    +0.093 C 
ATOM      5  N   UNL     1      -3.320  -0.317  24.642  0.00  0.00    -0.280 N 
ATOM      6  C   UNL     1      -3.584   0.428  24.404  0.00  0.00    +0.093 C 
ATOM      7  C   UNL     1      -3.087   1.082  24.473  0.00  0.00    +0.022 C 
ATOM      8  C   UNL     1      -2.326   0.993  24.780  0.00  0.00    +0.012 C 
ATOM     17  C   UNL     1      -3.817  -0.973  24.573  0.00  0.00    +0.225 C 
ATOM     18  O   UNL     1      -4.577  -0.883  24.267  0.00  0.00    -0.275 OA
ENDROOT
BRANCH  17  19
ATOM     19  C   UNL     1      -3.553  -1.717  24.811  0.00  0.00    +0.069 C 
ATOM     20  C   UNL     1      -3.289  -2.461  25.050  0.00  0.00    +0.009 C 
ATOM     21  C   UNL     1      -3.363  -1.898  24.029  0.00  0.00    +0.009 C 
ATOM     22  C   UNL     1      -3.743  -1.535  25.593  0.00  0.00    +0.009 C 
ENDBRANCH  17  19
BRANCH   3   2
ATOM      1  C   UNL     1      -0.762  -0.341  24.951  0.00  0.00    +0.000 C 
ATOM      2  C   UNL     1      -1.301   0.159  25.324  0.00  0.00    +0.002 C 
ENDBRANCH   3   2
BRANCH   8   9
ATOM      9  C   UNL     1      -1.830   1.647  24.848  0.00  0.00    +0.085 C 
BRANCH   9  10
ATOM     10  C   UNL     1      -2.138   2.377  25.079  0.00  0.00    +0.226 C 
ATOM     11  O   UNL     1      -2.855   2.412  25.485  0.00  0.00    -0.275 OA
ATOM     12  N   UNL     1      -1.729   3.072  24.904  0.00  0.00    -0.265 N 
ATOM     13  C   UNL     1      -1.011   3.037  24.498  0.00  0.00    +0.116 C 
BRANCH  12  14
ATOM     14  C   UNL     1      -2.037   3.801  25.135  0.00  0.00    +0.200 C 
BRANCH  14  15
ATOM     15  C   UNL     1      -1.567   4.478  25.102  0.00  0.00    +0.095 C 
ATOM     16  N   UNL     1      -1.096   5.155  25.067  0.00  0.00    -0.194 NA
ENDBRANCH  14  15
ENDBRANCH  12  14
ENDBRANCH   9  10
ENDBRANCH   8   9
TORSDOF 6
ENDMDL
MODEL 2
REMARK VINA RESULT:      -9.0      1.567      4.816
REMARK  Name = 
REMARK  6 active torsions:
REMARK  status: ('A' for Active; 'I' for Inactive)
REMARK    1  A    between atoms: C_2  and  C_3
REMARK    2  A    between atoms: C_8  and  C_9
REMARK    3  A    between atoms: C_9  and  C_10
REMARK    4  A    between atoms: N_12  and  C_14
REMARK    5  A    between atoms: C_14  and  C_15
REMARK    6  A    between atoms: C_17  and  C_19
REMARK                            x       y       z     vdW  Elec       q    Type
REMARK                         _______ _______ _______ _____ _____    ______ ____
ROOT
ATOM      3  C   UNL     1      -4.402   1.463  25.011  0.00  0.00    +0.020 C 
ATOM      4  C   UNL     1      -4.100   2.231  25.017  0.00  0.00    +0.093 C 
ATOM      5  N   UNL     1      -3.321   2.369  24.783  0.00  0.00    -0.280 N 
ATOM      6  C   UNL     1      -2.844   1.738  24.544  0.00  0.00    +0.093 C 
ATOM      7  C   UNL     1      -3.147   0.971  24.539  0.00  0.00    +0.022 C 
ATOM      8  C   UNL     1      -3.926   0.834  24.772  0.00  0.00    +0.012 C 
ATOM     17  C   UNL     1      -3.018   3.137  24.789  0.00  0.00    +0.225 C 
ATOM     18  O   UNL     1      -2.240   3.274  24.555  0.00  0.00    -0.275 OA
ENDROOT
BRANCH  17  19
ATOM     19  C   UNL     1      -3.495   3.766  25.028  0.00  0.00    +0.069 C 
ATOM     20  C   UNL     1      -3.972   4.395  25.267  0.00  0.00    +0.009 C 
ATOM     21  C   UNL     1      -3.232   3.668  25.804  0.00  0.00    +0.009 C 
ATOM     22  C   UNL     1      -3.756   3.863  24.252  0.00  0.00    +0.009 C 
ENDBRANCH  17  19
BRANCH   3   2
ATOM      1  C   UNL     1      -5.801   1.724  24.873  0.00  0.00    +0.000 C 
ATOM      2  C   UNL     1      -5.182   1.325  25.245  0.00  0.00    +0.002 C 
ENDBRANCH   3   2
BRANCH   8   9
ATOM      9  C   UNL     1      -4.229   0.067  24.767  0.00  0.00    +0.085 C 
BRANCH   9  10
ATOM     10  C   UNL     1      -3.767  -0.561  25.038  0.00  0.00    +0.226 C 
ATOM     11  O   UNL     1      -3.245  -0.447  25.666  0.00  0.00    -0.275 OA
ATOM     12  N   UNL     1      -3.828  -1.302  24.682  0.00  0.00    -0.265 N 
ATOM     13  C   UNL     1      -4.352  -1.417  24.053  0.00  0.00    +0.116 C 
BRANCH  12  14
ATOM     14  C   UNL     1      -3.367  -1.931  24.953  0.00  0.00    +0.200 C 
BRANCH  14  15
ATOM     15  C   UNL     1      -3.456  -2.681  24.624  0.00  0.00    +0.095 C 
ATOM     16  N   UNL     1      -3.544  -3.432  24.293  0.00  0.00    -0.194 NA
ENDBRANCH  14  15
ENDBRANCH  12  14
ENDBRANCH   9  10
ENDBRANCH   8   9
TORSDOF 6
ENDMDL
MODEL 3
REMARK VINA RESULT:      -8.9      1.285      4.806
REMARK  Name = 
REMARK  6 active torsions:
REMARK  status: ('A' for Active; 'I' for Inactive)
REMARK    1  A    between atoms: C_2  and  C_3
REMARK    2  A    between atoms: C_8  and  C_9
REMARK    3  A    between atoms: C_9  and  C_10
REMARK    4  A    between atoms: N_12  and  C_14
REMARK    5  A    between atoms: C_14  and  C_15
REMARK    6  A    between atoms: C_17  and  C_19
REMARK                            x       y       z     vdW  Elec       q    Type
REMARK                         _______ _______ _______ _____ _____    ______ ____
ROOT
ATOM      3  C   UNL     1      -2.861   2.328  24.318  0.00  0.00    +0.020 C 
ATOM      4  C   UNL     1      -2.381   2.917  24.639  0.00  0.00    +0.093 C 
ATOM      5  N   UNL     1      -1.817   2.724  25.209  0.00  0.00    -0.280 N 
ATOM      6  C   UNL     1      -1.733   1.942  25.459  0.00  0.00    +0.093 C 
ATOM      7  C   UNL     1      -2.213   1.353  25.138  0.00  0.00    +0.022 C 
ATOM      8  C   UNL     1      -2.777   1.546  24.567  0.00  0.00    +0.012 C 
ATOM     17  C   UNL     1      -1.336   3.314  25.530  0.00  0.00    +0.225 C 
ATOM     18  O   UNL     1      -0.772   3.121  26.099  0.00  0.00    -0.275 OA
ENDROOT
BRANCH  17  19
ATOM     19  C   UNL     1      -1.420   4.095  25.280  0.00  0.00    +0.069 C 
ATOM     20  C   UNL     1      -1.504   4.877  25.030  0.00  0.00    +0.009 C 
ATOM     21  C   UNL     1      -2.003   4.214  25.852  0.00  0.00    +0.009 C 
ATOM     22  C   UNL     1      -0.837   3.976  24.709  0.00  0.00    +0.009 C 
ENDBRANCH  17  19
BRANCH   3   2
ATOM      1  C   UNL     1      -4.027   3.056  23.926  0.00  0.00    +0.000 C 
ATOM      2  C   UNL     1      -3.426   2.521  23.747  0.00  0.00    +0.002 C 
ENDBRANCH   3   2
BRANCH   8   9
ATOM      9  C   UNL     1      -3.257   0.958  24.247  0.00  0.00    +0.085 C 
BRANCH   9  10
ATOM     10  C   UNL     1      -2.996   0.175  24.229  0.00  0.00    +0.226 C 
ATOM     11  O   UNL     1      -2.190   0.012  24.157  0.00  0.00    -0.275 OA
ATOM     12  N   UNL     1      -3.538  -0.443  24.282  0.00  0.00    -0.265 N 
ATOM     13  C   UNL     1      -4.345  -0.280  24.353  0.00  0.00    +0.116 C 
BRANCH  12  14
ATOM     14  C   UNL     1      -3.276  -1.225  24.264  0.00  0.00    +0.200 C 
BRANCH  14  15
ATOM     15  C   UNL     1      -3.804  -1.834  24.088  0.00  0.00    +0.095 C 
ATOM     16  N   UNL     1      -4.334  -2.442  23.912  0.00  0.00    -0.194 NA
ENDBRANCH  14  15
ENDBRANCH  12  14
ENDBRANCH   9  10
ENDBRANCH   8   9
TORSDOF 6
ENDMDL
MODEL 4
REMARK VINA RESULT:      -8.7      1.914      2.293
REMARK  Name = 
REMARK  6 active torsions:
REMARK  status: ('A' for Active; 'I' for Inactive)
REMARK    1  A    between atoms: C_2  and  C_3
REMARK    2  A    between atoms: C_8  and  C_9
REMARK    3  A    between atoms: C_9  and  C_10
REMARK    4  A    between atoms: N_12  and  C_14
REMARK    5  A    between atoms: C_14  and  C_15
REMARK    6  A    between atoms: C_17  and  C_19
REMARK                            x       y       z     vdW  Elec       q    Type
REMARK                         _______ _______ _______ _____ _____    ______ ____
ROOT
ATOM      3  C   UNL     1      -3.172  -0.054  24.934  0.00  0.00    +0.020 C 
ATOM      4  C   UNL     1      -3.098  -0.868  24.821  0.00  0.00    +0.093 C 
ATOM      5  N   UNL     1      -3.702  -1.288  24.448  0.00  0.00    -0.280 N 
ATOM      6  C   UNL     1      -4.380  -0.894  24.188  0.00  0.00    +0.093 C 
ATOM      7  C   UNL     1      -4.452  -0.080  24.302  0.00  0.00    +0.022 C 
ATOM      8  C   UNL     1      -3.848   0.340  24.675  0.00  0.00    +0.012 C 
ATOM     17  C   UNL     1      -3.629  -2.102  24.334  0.00  0.00    +0.225 C 
ATOM     18  O   UNL     1      -4.232  -2.522  23.961  0.00  0.00    -0.275 OA
ENDROOT
BRANCH  17  19
ATOM     19  C   UNL     1      -2.951  -2.495  24.593  0.00  0.00    +0.069 C 
ATOM     20  C   UNL     1      -2.274  -2.888  24.852  0.00  0.00    +0.009 C 
ATOM     21  C   UNL     1      -2.602  -2.377  23.855  0.00  0.00    +0.009 C 
ATOM     22  C   UNL     1      -3.302  -2.613  25.330  0.00  0.00    +0.009 C 
ENDBRANCH  17  19
BRANCH   3   2
ATOM      1  C   UNL     1      -1.812   0.384  24.978  0.00  0.00    +0.000 C 
ATOM      2  C   UNL     1      -2.567   0.367  25.308  0.00  0.00    +0.002 C 
ENDBRANCH   3   2
BRANCH   8   9
ATOM      9  C   UNL     1      -3.922   1.153  24.789  0.00  0.00    +0.085 C 
BRANCH   9  10
ATOM     10  C   UNL     1      -4.629   1.468  25.075  0.00  0.00    +0.226 C 
ATOM     11  O   UNL     1      -5.158   0.987  25.485  0.00  0.00    -0.275 OA
ATOM     12  N   UNL     1      -4.806   2.264  24.950  0.00  0.00    -0.265 N 
ATOM     13  C   UNL     1      -4.276   2.746  24.540  0.00  0.00    +0.116 C 
BRANCH  12  14
ATOM     14  C   UNL     1      -5.513   2.579  25.236  0.00  0.00    +0.200 C 
BRANCH  14  15
ATOM     15  C   UNL     1      -5.544   3.365  25.484  0.00  0.00    +0.095 C 
ATOM     16  N   UNL     1      -5.576   4.151  25.733  0.00  0.00    -0.194 NA
ENDBRANCH  14  15
ENDBRANCH  12  14
ENDBRANCH   9  10
ENDBRANCH   8   9
TORSDOF 6
ENDMDL
MODEL 5
REMARK VINA RESULT:      -8.6      1.994      2.811
REMARK  Name = 
REMARK  6 active torsions:
REMARK  status: ('A' for Active; 'I' for Inactive)
REMARK    1  A    between atoms: C_2  and  C_3
REMARK    2  A    between atoms: C_8  and  C_9
REMARK    3  A    between atoms: C_9  and  C_10
REMARK    4  A    between atoms: N_12  and  C_14
REMARK    5  A    between atoms: C_14  and  C_15
REMARK    6  A    between atoms: C_17  and  C_19
REMARK                            x       y       z     vdW  Elec       q    Type
REMARK                         _______ _______ _______ _____ _____    ______ ____
ROOT
ATOM      3  C   UNL     1      -3.341  -0.255  24.763  0.00  0.00    +0.020 C 
ATOM      4  C   UNL     1      -2.593  -0.600  24.813  0.00  0.00    +0.093 C 
ATOM      5  N   UNL     1      -1.921  -0.123  24.852  0.00  0.00    -0.280 N 
ATOM      6  C   UNL     1      -1.997   0.699  24.841  0.00  0.00    +0.093 C 
ATOM      7  C   UNL     1      -2.746   1.043  24.792  0.00  0.00    +0.022 C 
ATOM      8  C   UNL     1      -3.417   0.566  24.753  0.00  0.00    +0.012 C 
ATOM     17  C   UNL     1      -1.172  -0.467  24.901  0.00  0.00    +0.225 C 
ATOM     18  O   UNL     1      -0.501   0.010  24.940  0.00  0.00    -0.275 OA
ENDROOT
BRANCH  17  19
ATOM     19  C   UNL     1      -1.096  -1.288  24.911  0.00  0.00    +0.069 C 
ATOM     20  C   UNL     1      -1.021  -2.109  24.922  0.00  0.00    +0.009 C 
ATOM     21  C   UNL     1      -1.003  -1.289  24.092  0.00  0.00    +0.009 C 
ATOM     22  C   UNL     1      -1.189  -1.286  25.731  0.00  0.00    +0.009 C 
ENDBRANCH  17  19
BRANCH   3   2
ATOM      1  C   UNL     1      -4.113  -1.253  24.093  0.00  0.00    +0.000 C 
ATOM      2  C   UNL     1      -4.013  -0.733  24.724  0.00  0.00    +0.002 C 
ENDBRANCH   3   2
BRANCH   8   9
ATOM      9  C   UNL     1      -4.165   0.910  24.703  0.00  0.00    +0.085 C 
BRANCH   9  10
ATOM     10  C   UNL     1      -4.239   1.720  24.568  0.00  0.00    +0.226 C 
ATOM     11  O   UNL     1      -3.710   2.103  24.064  0.00  0.00    -0.275 OA
ATOM     12  N   UNL     1      -4.840   2.147  24.936  0.00  0.00    -0.265 N 
ATOM     13  C   UNL     1      -5.370   1.764  25.441  0.00  0.00    +0.116 C 
BRANCH  12  14
ATOM     14  C   UNL     1      -4.914   2.958  24.800  0.00  0.00    +0.200 C 
BRANCH  14  15
ATOM     15  C   UNL     1      -5.351   3.425  25.320  0.00  0.00    +0.095 C 
ATOM     16  N   UNL     1      -5.789   3.894  25.840  0.00  0.00    -0.194 NA
ENDBRANCH  14  15
ENDBRANCH  12  14
ENDBRANCH   9  10
ENDBRANCH   8   9
TORSDOF 6
ENDMDL
MODEL 6
REMARK VINA RESULT:      -8.6      1.184      4.551
REMARK  Name = 
REMARK  6 active torsions:
REMARK  status: ('A' for Active; 'I' for Inactive)
REMARK    1  A    between atoms: C_2  and  C_3
REMARK    2  A    between atoms: C_8  and  C_9
REMARK    3  A    between atoms: C_9  and  C_10
REMARK    4  A    between atoms: N_12  and  C_14
REMARK    5  A    between atoms: C_14  and  C_15
REMARK    6  A    between atoms: C_17  and  C_19
REMARK                            x       y       z     vdW  Elec       q    Type
REMARK                         _______ _______ _______ _____ _____    ______ ____
ROOT
ATOM      3  C   UNL     1      -2.153   1.690  24.954  0.00  0.00    +0.020 C 
ATOM      4  C   UNL     1      -2.246   2.503  25.060  0.00  0.00    +0.093 C 
ATOM      5  N   UNL     1      -3.002   2.834  25.060  0.00  0.00    -0.280 N 
ATOM      6  C   UNL     1      -3.664   2.352  24.955  0.00  0.00    +0.093 C 
ATOM      7  C   UNL     1      -3.570   1.540  24.850  0.00  0.00    +0.022 C 
ATOM      8  C   UNL     1      -2.814   1.209  24.849  0.00  0.00    +0.012 C 
ATOM     17  C   UNL     1      -3.096   3.648  25.166  0.00  0.00    +0.225 C 
ATOM     18  O   UNL     1      -3.851   3.979  25.166  0.00  0.00    -0.275 OA
ENDROOT
BRANCH  17  19
ATOM     19  C   UNL     1      -2.434   4.129  25.271  0.00  0.00    +0.069 C 
ATOM     20  C   UNL     1      -1.772   4.610  25.376  0.00  0.00    +0.009 C 
ATOM     21  C   UNL     1      -2.514   4.057  26.089  0.00  0.00    +0.009 C 
ATOM     22  C   UNL     1      -2.356   4.199  24.453  0.00  0.00    +0.009 C 
ENDBRANCH  17  19
BRANCH   3   2
ATOM      1  C   UNL     1      -0.912   1.436  25.616  0.00  0.00    +0.000 C 
ATOM      2  C   UNL     1      -1.397   1.358  24.954  0.00  0.00    +0.002 C 
ENDBRANCH   3   2
BRANCH   8   9
ATOM      9  C   UNL     1      -2.721   0.396  24.744  0.00  0.00    +0.085 C 
BRANCH   9  10
ATOM     10  C   UNL     1      -3.267  -0.028  24.294  0.00  0.00    +0.226 C 
ATOM     11  O   UNL     1      -3.651   0.337  23.661  0.00  0.00    -0.275 OA
ATOM     12  N   UNL     1      -3.429  -0.815  24.475  0.00  0.00    -0.265 N 
ATOM     13  C   UNL     1      -3.044  -1.181  25.108  0.00  0.00    +0.116 C 
BRANCH  12  14
ATOM     14  C   UNL     1      -3.975  -1.240  24.025  0.00  0.00    +0.200 C 
BRANCH  14  15
ATOM     15  C   UNL     1      -3.990  -2.063  24.062  0.00  0.00    +0.095 C 
ATOM     16  N   UNL     1      -4.006  -2.888  24.100  0.00  0.00    -0.194 NA
ENDBRANCH  14  15
ENDBRANCH  12  14
ENDBRANCH   9  10
ENDBRANCH   8   9
TORSDOF 6
ENDMDL
MODEL 7
REMARK VINA RESULT:      -8.4      2.073      3.442
REMARK  Name = 
REMARK  6 active torsions:
REMARK  status: ('A' for Active; 'I' for Inactive)
REMARK    1  A    between atoms: C_2  and  C_3
REMARK    2  A    between atoms: C_8  and  C_9
REMARK    3  A    between atoms: C_9  and  C_10
REMARK    4  A    between atoms: N_12  and  C_14
REMARK    5  A    between atoms: C_14  and  C_15
REMARK    6  A    between atoms: C_17  and  C_19
REMARK                            x       y       z     vdW  Elec       q    Type
REMARK                         _______ _______ _______ _____ _____    ______ ____
ROOT
ATOM      3  C   UNL     1      -3.619   0.663  24.567  0.00  0.00    +0.020 C 
ATOM      4  C   UNL     1      -4.256   1.148  24.768  0.00  0.00    +0.093 C 
ATOM      5  N   UNL     1      -4.122   1.922  25.018  0.00  0.00    -0.280 N 
ATOM      6  C   UNL     1      -3.350   2.212  25.068  0.00  0.00    +0.093 C 
ATOM      7  C   UNL     1      -2.714   1.727  24.866  0.00  0.00    +0.022 C 
ATOM      8  C   UNL     1      -2.849   0.952  24.616  0.00  0.00    +0.012 C 
ATOM     17  C   UNL     1      -4.759   2.408  25.219  0.00  0.00    +0.225 C 
ATOM     18  O   UNL     1      -4.624   3.182  25.469  0.00  0.00    -0.275 OA
ENDROOT
BRANCH  17  19
ATOM     19  C   UNL     1      -5.529   2.118  25.169  0.00  0.00    +0.069 C 
ATOM     20  C   UNL     1      -6.300   1.828  25.120  0.00  0.00    +0.009 C 
ATOM     21  C   UNL     1      -5.549   2.311  24.367  0.00  0.00    +0.009 C 
ATOM     22  C   UNL     1      -5.508   1.926  25.971  0.00  0.00    +0.009 C 
ENDBRANCH  17  19
BRANCH   3   2
ATOM      1  C   UNL     1      -4.116  -0.652  24.823  0.00  0.00    +0.000 C 
ATOM      2  C   UNL     1      -3.754  -0.112  24.316  0.00  0.00    +0.002 C 
ENDBRANCH   3   2
BRANCH   8   9
ATOM      9  C   UNL     1      -2.213   0.468  24.415  0.00  0.00    +0.085 C 
BRANCH   9  10
ATOM     10  C   UNL     1      -1.554   0.787  24.035  0.00  0.00    +0.226 C 
ATOM     11  O   UNL     1      -1.627   1.485  23.600  0.00  0.00    -0.275 OA
ATOM     12  N   UNL     1      -0.823   0.410  24.089  0.00  0.00    -0.265 N 
ATOM     13  C   UNL     1      -0.750  -0.288  24.524  0.00  0.00    +0.116 C 
BRANCH  12  14
ATOM     14  C   UNL     1      -0.164   0.730  23.709  0.00  0.00    +0.200 C 
BRANCH  14  15
ATOM     15  C   UNL     1       0.413   0.232  23.394  0.00  0.00    +0.095 C 
ATOM     16  N   UNL     1       0.990  -0.267  23.078  0.00  0.00    -0.194 NA
ENDBRANCH  14  15
ENDBRANCH  12  14
ENDBRANCH   9  10
ENDBRANCH   8   9
TORSDOF 6
ENDMDL
