MODEL 1
REMARK VINA RESULT:      -9.5      0.000      0.000
REMARK  Name = 
REMARK  8 active torsions:
REMARK  status: ('A' for Active; 'I' for Inactive)
REMARK    1  A    between atoms: C_2  and  N_3
REMARK    2  A    between atoms: N_3  and  C_4
REMARK    3  A    between atoms: N_3  and  C_6
REMARK    4  A    between atoms: C_6  and  C_7
REMARK    5  A    between atoms: C_7  and  C_8
REMARK    6  A    between atoms: C_13  and  C_14
REMARK    7  A    between atoms: C_14  and  C_15
REMARK    8  A    between atoms: C_18  and  C_20
REMARK                            x       y       z     vdW  Elec       q    Type
REMARK                         _______ _______ _______ _____ _____    ______ ____
ROOT
ATOM      8  C   UNL     1      -3.581   1.473  24.816  0.00  0.00    +0.022 C 
ATOM      9  C   UNL     1      -3.118   0.799  24.699  0.00  0.00    +0.093 C 
ATOM     10  N   UNL     1      -3.473   0.054  24.679  0.00  0.00    -0.280 N 
ATOM     11  C   UNL     1      -4.288  -0.017  24.776  0.00  0.00    +0.093 C 
ATOM     12  C   UNL     1      -4.751   0.656  24.894  0.00  0.00    +0.022 C 
ATOM     13  C   UNL     1      -4.396   1.401  24.913  0.00  0.00    +0.015 C 
ATOM     18  C   UNL     1      -3.011  -0.620  24.561  0.00  0.00    +0.225 C 
ATOM     19  O   UNL     1      -2.195  -0.548  24.464  0.00  0.00    -0.275 OA
ENDROOT
BRANCH  18  20
ATOM     20  C   UNL     1      -3.365  -1.364  24.542  0.00  0.00    +0.077 C 
ATOM     21  C   UNL     1      -3.449  -1.984  25.080  0.00  0.00    +0.009 C 
ATOM     22  C   UNL     1      -3.867  -2.418  24.515  0.00  0.00    +0.001 C 
ATOM     23  C   UNL     1      -3.783  -1.797  23.978  0.00  0.00    +0.009 C 
ENDBRANCH  18  20
BRANCH   8   7
ATOM      7  C   UNL     1      -3.226   2.217  24.836  0.00  0.00    +0.019 C 
BRANCH   7   6
ATOM      6  C   UNL     1      -2.413   2.283  24.964  0.00  0.00    +0.072 C 
BRANCH   6   3
ATOM      3  N   UNL     1      -2.056   3.026  24.971  0.00  0.00    -0.273 NA
BRANCH   3   2
ATOM      1  C   UNL     1      -0.762   3.048  24.365  0.00  0.00    +0.019 C 
ATOM      2  C   UNL     1      -1.562   3.252  24.350  0.00  0.00    +0.072 C 
ENDBRANCH   3   2
BRANCH   3   4
ATOM      4  C   UNL     1      -2.193   3.544  25.599  0.00  0.00    +0.072 C 
ATOM      5  C   UNL     1      -2.023   4.346  25.516  0.00  0.00    +0.019 C 
ENDBRANCH   3   4
ENDBRANCH   6   3
ENDBRANCH   7   6
ENDBRANCH   8   7
BRANCH  13  14
ATOM     14  C   UNL     1      -4.858   2.074  25.031  0.00  0.00    +0.114 C 
BRANCH  14  15
ATOM     15  C   UNL     1      -5.646   1.999  25.263  0.00  0.00    +0.365 C 
ATOM     16  O   UNL     1      -5.842   2.003  26.064  0.00  0.00    -0.246 OA
ATOM     17  O   UNL     1      -6.238   1.919  24.693  0.00  0.00    -0.246 OA
ENDBRANCH  14  15
ENDBRANCH  13  14
TORSDOF 8
ENDMDL
MODEL 2
REMARK VINA RESULT:      -9.3      0.882      3.898
REMARK  Name = 
REMARK  8 active torsions:
REMARK  status: ('A' for Active; 'I' for Inactive)
REMARK    1  A    between atoms: C_2  and  N_3
REMARK    2  A    between atoms: N_3  and  C_4
REMARK    3  A    between atoms: N_3  and  C_6
REMARK    4  A    between atoms: C_6  and  C_7
REMARK    5  A    between atoms: C_7  and  C_8
REMARK    6  A    between atoms: C_13  and  C_14
REMARK    7  A    between atoms: C_14  and  C_15
REMARK    8  A    between atoms: C_18  and  C_20
REMARK                            x       y       z     vdW  Elec       q    Type
REMARK                         _______ _______ _______ _____ _____    ______ ____
ROOT
ATOM      8  C   UNL     1      -3.886   1.182  24.821  0.00  0.00    +0.022 C 
ATOM      9  C   UNL     1      -3.103   1.443  24.816  0.00  0.00    +0.093 C 
ATOM     10  N   UNL     1      -2.931   2.231  24.985  0.00  0.00    -0.280 N 
ATOM     11  C   UNL     1      -3.539   2.758  25.160  0.00  0.00    +0.093 C 
ATOM     12  C   UNL     1      -4.322   2.498  25.166  0.00  0.00    +0.022 C 
ATOM     13  C   UNL     1      -4.495   1.709  24.996  0.00  0.00    +0.015 C 
ATOM     18  C   UNL     1      -2.147   2.492  24.980  0.00  0.00    +0.225 C 
ATOM     19  O   UNL     1      -1.538   1.965  24.805  0.00  0.00    -0.275 OA
ENDROOT
BRANCH  18  20
ATOM     20  C   UNL     1      -1.975   3.281  25.149  0.00  0.00    +0.077 C 
ATOM     21  C   UNL     1      -1.816   3.708  25.837  0.00  0.00    +0.009 C 
ATOM     22  C   UNL     1      -1.731   4.396  25.390  0.00  0.00    +0.001 C 
ATOM     23  C   UNL     1      -1.890   3.969  24.703  0.00  0.00    +0.009 C 
ENDBRANCH  18  20
BRANCH   8   7
ATOM      7  C   UNL     1      -4.059   0.393  24.652  0.00  0.00    +0.019 C 
BRANCH   7   6
ATOM      6  C   UNL     1      -3.488  -0.190  24.780  0.00  0.00    +0.072 C 
BRANCH   6   3
ATOM      3  N   UNL     1      -3.678  -0.984  24.662  0.00  0.00    -0.273 NA
BRANCH   3   2
ATOM      1  C   UNL     1      -2.915  -1.828  25.527  0.00  0.00    +0.019 C 
ATOM      2  C   UNL     1      -3.642  -1.514  25.294  0.00  0.00    +0.072 C 
ENDBRANCH   3   2
BRANCH   3   4
ATOM      4  C   UNL     1      -3.904  -1.249  23.914  0.00  0.00    +0.072 C 
ATOM      5  C   UNL     1      -4.260  -1.987  23.828  0.00  0.00    +0.019 C 
ENDBRANCH   3   4
ENDBRANCH   6   3
ENDBRANCH   7   6
ENDBRANCH   8   7
BRANCH  13  14
ATOM     14  C   UNL     1      -5.278   1.449  25.002  0.00  0.00    +0.114 C 
BRANCH  14  15
ATOM     15  C   UNL     1      -5.874   1.939  25.292  0.00  0.00    +0.365 C 
ATOM     16  O   UNL     1      -6.036   1.956  26.101  0.00  0.00    -0.246 OA
ATOM     17  O   UNL     1      -6.308   2.412  24.774  0.00  0.00    -0.246 OA
ENDBRANCH  14  15
ENDBRANCH  13  14
TORSDOF 8
ENDMDL
MODEL 3
REMARK VINA RESULT:      -9.1      1.614      2.832
REMARK  Name = 
REMARK  8 active torsions:
REMARK  status: ('A' for Active; 'I' for Inactive)
REMARK    1  A    between atoms: C_2  and  N_3
REMARK    2  A    between atoms: N_3  and  C_4
REMARK    3  A    between atoms: N_3  and  C_6
REMARK    4  A    between atoms: C_6  and  C_7
REMARK    5  A    between atoms: C_7  and  C_8
REMARK    6  A    between atoms: C_13  and  C_14
REMARK    7  A    between atoms: C_14  and  C_15
REMARK    8  A    between atoms: C_18  and  C_20
REMARK                            x       y       z     vdW  Elec       q    Type
REMARK                         _______ _______ _______ _____ _____    ______ ____
ROOT
ATOM      8  C   UNL     1      -2.986   0.918  24.741  0.00  0.00    +0.022 C 
ATOM      9  C   UNL     1      -3.558   0.335  24.623  0.00  0.00    +0.093 C 
ATOM     10  N   UNL     1      -3.347  -0.462  24.655  0.00  0.00    -0.280 N 
ATOM     11  C   UNL     1      -2.566  -0.676  24.806  0.00  0.00    +0.093 C 
ATOM     12  C   UNL     1      -1.993  -0.094  24.924  0.00  0.00    +0.022 C 
ATOM     13  C   UNL     1      -2.204   0.704  24.891  0.00  0.00    +0.015 C 
ATOM     18  C   UNL     1      -3.920  -1.045  24.537  0.00  0.00    +0.225 C 
ATOM     19  O   UNL     1      -4.702  -0.831  24.387  0.00  0.00    -0.275 OA
ENDROOT
BRANCH  18  20
ATOM     20  C   UNL     1      -3.708  -1.842  24.570  0.00  0.00    +0.077 C 
ATOM     21  C   UNL     1      -3.614  -2.443  24.013  0.00  0.00    +0.009 C 
ATOM     22  C   UNL     1      -3.410  -2.969  24.615  0.00  0.00    +0.001 C 
ATOM     23  C   UNL     1      -3.504  -2.368  25.171  0.00  0.00    +0.009 C 
ENDBRANCH  18  20
BRANCH   8   7
ATOM      7  C   UNL     1      -3.197   1.715  24.708  0.00  0.00    +0.019 C 
BRANCH   7   6
ATOM      6  C   UNL     1      -3.988   1.935  24.796  0.00  0.00    +0.072 C 
BRANCH   6   3
ATOM      3  N   UNL     1      -4.197   2.733  24.774  0.00  0.00    -0.273 NA
BRANCH   3   2
ATOM      1  C   UNL     1      -5.365   2.950  25.569  0.00  0.00    +0.019 C 
ATOM      2  C   UNL     1      -4.562   3.080  25.427  0.00  0.00    +0.072 C 
ENDBRANCH   3   2
BRANCH   3   4
ATOM      4  C   UNL     1      -4.043   3.182  24.100  0.00  0.00    +0.072 C 
ATOM      5  C   UNL     1      -3.958   4.000  24.160  0.00  0.00    +0.019 C 
ENDBRANCH   3   4
ENDBRANCH   6   3
ENDBRANCH   7   6
ENDBRANCH   8   7
BRANCH  13  14
ATOM     14  C   UNL     1      -1.632   1.286  25.009  0.00  0.00    +0.114 C 
BRANCH  14  15
ATOM     15  C   UNL     1      -0.855   1.072  25.186  0.00  0.00    +0.365 C 
ATOM     16  O   UNL     1      -0.317   0.936  24.576  0.00  0.00    -0.246 OA
ATOM     17  O   UNL     1      -0.618   0.994  25.972  0.00  0.00    -0.246 OA
ENDBRANCH  14  15
ENDBRANCH  13  14
TORSDOF 8
ENDMDL
MODEL 4
REMARK VINA RESULT:      -8.8      1.556      3.253
REMARK  Name = 
REMARK  8 active torsions:
REMARK  status: ('A' for Active; 'I' for Inactive)
REMARK    1  A    between atoms: C_2  and  N_3
REMARK    2  A    between atoms: N_3  and  C_4
REMARK    3  A    between atoms: N_3  and  C_6
REMARK    4  A    between atoms: C_6  and  C_7
REMARK    5  A    between atoms: C_7  and  C_8
REMARK    6  A    between atoms: C_13  and  C_14
REMARK    7  A    between atoms: C_14  and  C_15
REMARK    8  A    between atoms: C_18  and  C_20
REMARK                            x       y       z     vdW  Elec       q    Type
REMARK                         _______ _______ _______ _____ _____    ______ ____
ROOT
ATOM      8  C   UNL     1      -2.924   0.289  24.681  0.00  0.00    +0.022 C 
ATOM      9  C   UNL     1      -3.269   1.036  24.753  0.00  0.00    +0.093 C 
ATOM     10  N   UNL     1      -4.074   1.103  24.916  0.00  0.00    -0.280 N 
ATOM     11  C   UNL     1      -4.535   0.426  25.007  0.00  0.00    +0.093 C 
ATOM     12  C   UNL     1      -4.191  -0.320  24.935  0.00  0.00    +0.022 C 
ATOM     13  C   UNL     1      -3.384  -0.388  24.772  0.00  0.00    +0.015 C 
ATOM     18  C   UNL     1      -4.419   1.850  24.988  0.00  0.00    +0.225 C 
ATOM     19  O   UNL     1      -3.958   2.528  24.898  0.00  0.00    -0.275 OA
ENDROOT
BRANCH  18  20
ATOM     20  C   UNL     1      -5.225   1.917  25.151  0.00  0.00    +0.077 C 
ATOM     21  C   UNL     1      -5.674   2.032  25.834  0.00  0.00    +0.009 C 
ATOM     22  C   UNL     1      -6.365   2.012  25.383  0.00  0.00    +0.001 C 
ATOM     23  C   UNL     1      -5.915   1.897  24.701  0.00  0.00    +0.009 C 
ENDBRANCH  18  20
BRANCH   8   7
ATOM      7  C   UNL     1      -2.118   0.222  24.518  0.00  0.00    +0.019 C 
BRANCH   7   6
ATOM      6  C   UNL     1      -1.653   0.901  24.453  0.00  0.00    +0.072 C 
BRANCH   6   3
ATOM      3  N   UNL     1      -0.837   0.833  24.346  0.00  0.00    -0.273 NA
BRANCH   3   2
ATOM      1  C   UNL     1       0.225   0.227  23.607  0.00  0.00    +0.019 C 
ATOM      2  C   UNL     1      -0.539   0.539  23.636  0.00  0.00    +0.072 C 
ENDBRANCH   3   2
BRANCH   3   4
ATOM      4  C   UNL     1      -0.322   1.059  24.949  0.00  0.00    +0.072 C 
ATOM      5  C   UNL     1      -0.108   1.851  25.034  0.00  0.00    +0.019 C 
ENDBRANCH   3   4
ENDBRANCH   6   3
ENDBRANCH   7   6
ENDBRANCH   8   7
BRANCH  13  14
ATOM     14  C   UNL     1      -3.040  -1.134  24.700  0.00  0.00    +0.114 C 
BRANCH  14  15
ATOM     15  C   UNL     1      -3.507  -1.812  24.756  0.00  0.00    +0.365 C 
ATOM     16  O   UNL     1      -3.598  -2.190  25.483  0.00  0.00    -0.246 OA
ATOM     17  O   UNL     1      -3.882  -2.110  24.085  0.00  0.00    -0.246 OA
ENDBRANCH  14  15
ENDBRANCH  13  14
TORSDOF 8
ENDMDL
