MODEL 1
REMARK VINA RESULT:      -8.3      0.000      0.000
REMARK  Name = 
REMARK  7 active torsions:
REMARK  status: ('A' for Active; 'I' for Inactive)
REMARK    1  A    between atoms: O_2  and  C_3
REMARK    2  A    between atoms: C_5  and  N_6
REMARK    3  A    between atoms: N_9  and  C_10
REMARK    4  A    between atoms: C_10  and  C_11
REMARK    5  A    between atoms: C_15  and  C_16
REMARK    6  A    between atoms: C_16  and  C_17
REMARK    7  A    between atoms: C_27  and  C_28
REMARK                            x       y       z     vdW  Elec       q    Type
REMARK                         _______ _______ _______ _____ _____    ______ ____
ROOT
ATOM     11  C   UNL     1      -0.674   1.481  24.067  0.00  0.00    +0.043 C 
ATOM     12  C   UNL     1      -1.036   1.528  23.328  0.00  0.00    -0.033 C 
ATOM     13  C   UNL     1      -1.847   1.669  23.273  0.00  0.00    -0.048 C 
ATOM     14  C   UNL     1      -2.210   1.715  22.534  0.00  0.00    +0.026 C 
ATOM     15  C   UNL     1      -2.296   1.764  23.959  0.00  0.00    +0.027 C 
ATOM     26  C   UNL     1      -1.934   1.718  24.699  0.00  0.00    +0.005 C 
ATOM     27  C   UNL     1      -1.123   1.577  24.753  0.00  0.00    +0.006 C 
ENDROOT
BRANCH  27  28
ATOM     28  C   UNL     1      -0.760   1.530  25.493  0.00  0.00    +0.000 C 
ATOM     29  C   UNL     1      -0.754   0.815  25.904  0.00  0.00    +0.000 C 
ATOM     30  C   UNL     1      -0.406   2.198  25.821  0.00  0.00    +0.000 C 
ENDBRANCH  27  28
BRANCH  11  10
ATOM     10  C   UNL     1       0.137   1.340  24.122  0.00  0.00    +0.121 C 
BRANCH  10   9
ATOM      6  N   UNL     1       1.713   0.386  22.952  0.00  0.00    -0.161 NA
ATOM      7  C   UNL     1       1.337   0.856  23.516  0.00  0.00    +0.344 C 
ATOM      8  O   UNL     1       1.785   1.313  24.038  0.00  0.00    -0.249 OA
ATOM      9  N   UNL     1       0.513   0.870  23.558  0.00  0.00    -0.187 NA
BRANCH   6   5
ATOM      3  C   UNL     1       3.778  -0.293  23.157  0.00  0.00    +0.140 A 
ATOM      4  C   UNL     1       2.954  -0.280  23.200  0.00  0.00    +0.054 A 
ATOM      5  C   UNL     1       2.536   0.372  22.910  0.00  0.00    +0.078 A 
ATOM     31  C   UNL     1       2.944   1.008  22.579  0.00  0.00    +0.017 A 
ATOM     32  C   UNL     1       3.768   0.994  22.536  0.00  0.00    +0.004 A 
ATOM     33  C   UNL     1       4.185   0.343  22.826  0.00  0.00    +0.037 A 
BRANCH   3   2
ATOM      1  C   UNL     1       4.909  -0.832  23.845  0.00  0.00    +0.252 C 
ATOM      2  O   UNL     1       4.194  -0.944  23.447  0.00  0.00    -0.471 OA
ENDBRANCH   3   2
ENDBRANCH   6   5
ENDBRANCH  10   9
ENDBRANCH  11  10
BRANCH  15  16
ATOM     16  C   UNL     1      -3.107   1.906  23.906  0.00  0.00    +0.089 C 
BRANCH  16  17
ATOM     17  C   UNL     1      -3.441   2.547  24.305  0.00  0.00    +0.226 C 
ATOM     18  O   UNL     1      -3.044   3.269  24.330  0.00  0.00    -0.275 OA
ATOM     19  N   UNL     1      -4.171   2.464  24.679  0.00  0.00    -0.277 N 
ATOM     20  C   UNL     1      -4.505   3.105  25.078  0.00  0.00    +0.111 C 
ATOM     21  C   UNL     1      -5.236   3.022  25.452  0.00  0.00    +0.094 C 
ATOM     22  N   UNL     1      -5.632   2.300  25.427  0.00  0.00    -0.269 NA
ATOM     23  C   UNL     1      -6.364   2.218  25.802  0.00  0.00    +0.090 C 
ATOM     24  C   UNL     1      -5.299   1.659  25.028  0.00  0.00    +0.094 C 
ATOM     25  C   UNL     1      -4.568   1.742  24.654  0.00  0.00    +0.111 C 
ENDBRANCH  16  17
ENDBRANCH  15  16
TORSDOF 7
ENDMDL
MODEL 2
REMARK VINA RESULT:      -8.1      1.456      6.915
REMARK  Name = 
REMARK  7 active torsions:
REMARK  status: ('A' for Active; 'I' for Inactive)
REMARK    1  A    between atoms: O_2  and  C_3
REMARK    2  A    between atoms: C_5  and  N_6
REMARK    3  A    between atoms: N_9  and  C_10
REMARK    4  A    between atoms: C_10  and  C_11
REMARK    5  A    between atoms: C_15  and  C_16
REMARK    6  A    between atoms: C_16  and  C_17
REMARK    7  A    between atoms: C_27  and  C_28
REMARK                            x       y       z     vdW  Elec       q    Type
REMARK                         _______ _______ _______ _____ _____    ______ ____
ROOT
ATOM     11  C   UNL     1      -1.650   0.404  24.407  0.00  0.00    +0.043 C 
ATOM     12  C   UNL     1      -1.421   1.122  24.072  0.00  0.00    -0.033 C 
ATOM     13  C   UNL     1      -0.639   1.238  23.837  0.00  0.00    -0.048 C 
ATOM     14  C   UNL     1      -0.410   1.956  23.502  0.00  0.00    +0.026 C 
ATOM     15  C   UNL     1      -0.085   0.635  23.937  0.00  0.00    +0.027 C 
ATOM     26  C   UNL     1      -0.314  -0.085  24.272  0.00  0.00    +0.005 C 
ATOM     27  C   UNL     1      -1.096  -0.199  24.506  0.00  0.00    +0.006 C 
ENDROOT
BRANCH  27  28
ATOM     28  C   UNL     1      -1.325  -0.918  24.841  0.00  0.00    +0.000 C 
ATOM     29  C   UNL     1      -1.666  -1.502  24.369  0.00  0.00    +0.000 C 
ATOM     30  C   UNL     1      -1.213  -1.052  25.647  0.00  0.00    +0.000 C 
ENDBRANCH  27  28
BRANCH  11  10
ATOM     10  C   UNL     1      -2.433   0.288  24.642  0.00  0.00    +0.121 C 
BRANCH  10   9
ATOM      6  N   UNL     1      -4.289   1.404  24.375  0.00  0.00    -0.161 NA
ATOM      7  C   UNL     1      -3.683   0.975  24.732  0.00  0.00    +0.344 C 
ATOM      8  O   UNL     1      -3.719   0.802  25.539  0.00  0.00    -0.249 OA
ATOM      9  N   UNL     1      -3.039   0.717  24.284  0.00  0.00    -0.187 NA
BRANCH   6   5
ATOM      3  C   UNL     1      -5.554   2.657  25.637  0.00  0.00    +0.140 A 
ATOM      4  C   UNL     1      -4.910   2.400  25.189  0.00  0.00    +0.054 A 
ATOM      5  C   UNL     1      -4.932   1.660  24.822  0.00  0.00    +0.078 A 
ATOM     31  C   UNL     1      -5.597   1.179  24.904  0.00  0.00    +0.017 A 
ATOM     32  C   UNL     1      -6.241   1.436  25.352  0.00  0.00    +0.004 A 
ATOM     33  C   UNL     1      -6.220   2.175  25.719  0.00  0.00    +0.037 A 
BRANCH   3   2
ATOM      1  C   UNL     1      -5.531   4.083  25.547  0.00  0.00    +0.252 C 
ATOM      2  O   UNL     1      -5.533   3.396  26.004  0.00  0.00    -0.471 OA
ENDBRANCH   3   2
ENDBRANCH   6   5
ENDBRANCH  10   9
ENDBRANCH  11  10
BRANCH  15  16
ATOM     16  C   UNL     1       0.697   0.749  23.702  0.00  0.00    +0.089 C 
BRANCH  16  17
ATOM     17  C   UNL     1       1.022   0.277  23.108  0.00  0.00    +0.226 C 
ATOM     18  O   UNL     1       0.547  -0.261  22.702  0.00  0.00    -0.275 OA
ATOM     19  N   UNL     1       1.823   0.345  22.920  0.00  0.00    -0.277 N 
ATOM     20  C   UNL     1       2.148  -0.127  22.326  0.00  0.00    +0.111 C 
ATOM     21  C   UNL     1       2.948  -0.059  22.138  0.00  0.00    +0.094 C 
ATOM     22  N   UNL     1       3.423   0.479  22.543  0.00  0.00    -0.269 NA
ATOM     23  C   UNL     1       4.224   0.546  22.355  0.00  0.00    +0.090 C 
ATOM     24  C   UNL     1       3.099   0.950  23.137  0.00  0.00    +0.094 C 
ATOM     25  C   UNL     1       2.298   0.883  23.325  0.00  0.00    +0.111 C 
ENDBRANCH  16  17
ENDBRANCH  15  16
TORSDOF 7
ENDMDL
MODEL 3
REMARK VINA RESULT:      -5.3     15.508     16.417
REMARK  Name = 
REMARK  7 active torsions:
REMARK  status: ('A' for Active; 'I' for Inactive)
REMARK    1  A    between atoms: O_2  and  C_3
REMARK    2  A    between atoms: C_5  and  N_6
REMARK    3  A    between atoms: N_9  and  C_10
REMARK    4  A    between atoms: C_10  and  C_11
REMARK    5  A    between atoms: C_15  and  C_16
REMARK    6  A    between atoms: C_16  and  C_17
REMARK    7  A    between atoms: C_27  and  C_28
REMARK                            x       y       z     vdW  Elec       q    Type
REMARK                         _______ _______ _______ _____ _____    ______ ____
ROOT
ATOM     11  C   UNL     1      -7.123 -10.042  14.424  0.00  0.00    +0.043 C 
ATOM     12  C   UNL     1      -6.567 -10.027  15.033  0.00  0.00    -0.033 C 
ATOM     13  C   UNL     1      -6.816 -10.015  15.820  0.00  0.00    -0.048 C 
ATOM     14  C   UNL     1      -6.261 -10.000  16.429  0.00  0.00    +0.026 C 
ATOM     15  C   UNL     1      -7.622 -10.017  15.997  0.00  0.00    +0.027 C 
ATOM     26  C   UNL     1      -8.179 -10.032  15.387  0.00  0.00    +0.005 C 
ATOM     27  C   UNL     1      -7.929 -10.044  14.602  0.00  0.00    +0.006 C 
ENDROOT
BRANCH  27  28
ATOM     28  C   UNL     1      -8.485 -10.059  13.992  0.00  0.00    +0.000 C 
ATOM     29  C   UNL     1      -8.741 -10.780  13.685  0.00  0.00    +0.000 C 
ATOM     30  C   UNL     1      -8.786  -9.353  13.691  0.00  0.00    +0.000 C 
ENDBRANCH  27  28
BRANCH  11  10
ATOM     10  C   UNL     1      -6.874 -10.054  13.638  0.00  0.00    +0.121 C 
BRANCH  10   9
ATOM      6  N   UNL     1      -5.128  -9.422  12.492  0.00  0.00    -0.161 NA
ATOM      7  C   UNL     1      -5.801  -9.839  12.718  0.00  0.00    +0.344 C 
ATOM      8  O   UNL     1      -6.077 -10.463  12.252  0.00  0.00    -0.249 OA
ATOM      9  N   UNL     1      -6.200  -9.636  13.411  0.00  0.00    -0.187 NA
BRANCH   6   5
ATOM      3  C   UNL     1      -4.565  -9.506  10.385  0.00  0.00    +0.140 A 
ATOM      4  C   UNL     1      -4.964  -9.302  11.077  0.00  0.00    +0.054 A 
ATOM      5  C   UNL     1      -4.729  -9.625  11.800  0.00  0.00    +0.078 A 
ATOM     31  C   UNL     1      -4.095 -10.153  11.828  0.00  0.00    +0.017 A 
ATOM     32  C   UNL     1      -3.696 -10.357  11.135  0.00  0.00    +0.004 A 
ATOM     33  C   UNL     1      -3.931 -10.033  10.413  0.00  0.00    +0.037 A 
BRANCH   3   2
ATOM      1  C   UNL     1      -4.260  -9.123   9.042  0.00  0.00    +0.252 C 
ATOM      2  O   UNL     1      -4.800  -9.182   9.663  0.00  0.00    -0.471 OA
ENDBRANCH   3   2
ENDBRANCH   6   5
ENDBRANCH  10   9
ENDBRANCH  11  10
BRANCH  15  16
ATOM     16  C   UNL     1      -7.872 -10.005  16.783  0.00  0.00    +0.089 C 
BRANCH  16  17
ATOM     17  C   UNL     1      -8.480  -9.497  17.014  0.00  0.00    +0.226 C 
ATOM     18  O   UNL     1      -8.533  -8.741  16.688  0.00  0.00    -0.275 OA
ATOM     19  N   UNL     1      -9.036  -9.746  17.571  0.00  0.00    -0.277 N 
ATOM     20  C   UNL     1      -9.644  -9.238  17.802  0.00  0.00    +0.111 C 
ATOM     21  C   UNL     1     -10.199  -9.486  18.359  0.00  0.00    +0.094 C 
ATOM     22  N   UNL     1     -10.147 -10.242  18.685  0.00  0.00    -0.269 NA
ATOM     23  C   UNL     1     -10.703 -10.490  19.242  0.00  0.00    +0.090 C 
ATOM     24  C   UNL     1      -9.540 -10.750  18.454  0.00  0.00    +0.094 C 
ATOM     25  C   UNL     1      -8.984 -10.501  17.897  0.00  0.00    +0.111 C 
ENDBRANCH  16  17
ENDBRANCH  15  16
TORSDOF 7
ENDMDL
MODEL 4
REMARK VINA RESULT:      -4.9     14.588     16.569
REMARK  Name = 
REMARK  7 active torsions:
REMARK  status: ('A' for Active; 'I' for Inactive)
REMARK    1  A    between atoms: O_2  and  C_3
REMARK    2  A    between atoms: C_5  and  N_6
REMARK    3  A    between atoms: N_9  and  C_10
REMARK    4  A    between atoms: C_10  and  C_11
REMARK    5  A    between atoms: C_15  and  C_16
REMARK    6  A    between atoms: C_16  and  C_17
REMARK    7  A    between atoms: C_27  and  C_28
REMARK                            x       y       z     vdW  Elec       q    Type
REMARK                         _______ _______ _______ _____ _____    ______ ____
ROOT
ATOM     11  C   UNL     1      -5.872 -10.072  15.736  0.00  0.00    +0.043 C 
ATOM     12  C   UNL     1      -6.122 -10.190  14.960  0.00  0.00    -0.033 C 
ATOM     13  C   UNL     1      -5.575 -10.400  14.378  0.00  0.00    -0.048 C 
ATOM     14  C   UNL     1      -5.825 -10.518  13.601  0.00  0.00    +0.026 C 
ATOM     15  C   UNL     1      -4.779 -10.490  14.573  0.00  0.00    +0.027 C 
ATOM     26  C   UNL     1      -4.529 -10.371  15.351  0.00  0.00    +0.005 C 
ATOM     27  C   UNL     1      -5.076 -10.162  15.932  0.00  0.00    +0.006 C 
ENDROOT
BRANCH  27  28
ATOM     28  C   UNL     1      -4.826 -10.043  16.710  0.00  0.00    +0.000 C 
ATOM     29  C   UNL     1      -4.722  -9.277  16.997  0.00  0.00    +0.000 C 
ATOM     30  C   UNL     1      -4.681 -10.690  17.200  0.00  0.00    +0.000 C 
ENDBRANCH  27  28
BRANCH  11  10
ATOM     10  C   UNL     1      -6.419  -9.863  16.318  0.00  0.00    +0.121 C 
BRANCH  10   9
ATOM      6  N   UNL     1      -8.582  -9.943  16.594  0.00  0.00    -0.161 NA
ATOM      7  C   UNL     1      -7.797  -9.699  16.657  0.00  0.00    +0.344 C 
ATOM      8  O   UNL     1      -7.605  -9.044  17.123  0.00  0.00    -0.249 OA
ATOM      9  N   UNL     1      -7.203 -10.107  16.255  0.00  0.00    -0.187 NA
BRANCH   6   5
ATOM      3  C   UNL     1     -10.244  -8.586  16.994  0.00  0.00    +0.140 A 
ATOM      4  C   UNL     1      -9.651  -8.994  16.591  0.00  0.00    +0.054 A 
ATOM      5  C   UNL     1      -9.175  -9.535  16.996  0.00  0.00    +0.078 A 
ATOM     31  C   UNL     1      -9.293  -9.665  17.802  0.00  0.00    +0.017 A 
ATOM     32  C   UNL     1      -9.887  -9.257  18.204  0.00  0.00    +0.004 A 
ATOM     33  C   UNL     1     -10.363  -8.717  17.800  0.00  0.00    +0.037 A 
BRANCH   3   2
ATOM      1  C   UNL     1     -10.431  -7.292  16.415  0.00  0.00    +0.252 C 
ATOM      2  O   UNL     1     -10.719  -8.046  16.590  0.00  0.00    -0.471 OA
ENDBRANCH   3   2
ENDBRANCH   6   5
ENDBRANCH  10   9
ENDBRANCH  11  10
BRANCH  15  16
ATOM     16  C   UNL     1      -4.232 -10.699  13.992  0.00  0.00    +0.089 C 
BRANCH  16  17
ATOM     17  C   UNL     1      -3.423 -10.635  14.146  0.00  0.00    +0.226 C 
ATOM     18  O   UNL     1      -3.140 -10.731  14.915  0.00  0.00    -0.275 OA
ATOM     19  N   UNL     1      -2.898 -10.476  13.530  0.00  0.00    -0.277 N 
ATOM     20  C   UNL     1      -2.090 -10.412  13.684  0.00  0.00    +0.111 C 
ATOM     21  C   UNL     1      -1.565 -10.252  13.068  0.00  0.00    +0.094 C 
ATOM     22  N   UNL     1      -1.847 -10.156  12.299  0.00  0.00    -0.269 NA
ATOM     23  C   UNL     1      -1.322  -9.996  11.683  0.00  0.00    +0.090 C 
ATOM     24  C   UNL     1      -2.655 -10.220  12.146  0.00  0.00    +0.094 C 
ATOM     25  C   UNL     1      -3.181 -10.379  12.762  0.00  0.00    +0.111 C 
ENDBRANCH  16  17
ENDBRANCH  15  16
TORSDOF 7
ENDMDL
MODEL 5
REMARK VINA RESULT:      -4.6     16.847     17.849
REMARK  Name = 
REMARK  7 active torsions:
REMARK  status: ('A' for Active; 'I' for Inactive)
REMARK    1  A    between atoms: O_2  and  C_3
REMARK    2  A    between atoms: C_5  and  N_6
REMARK    3  A    between atoms: N_9  and  C_10
REMARK    4  A    between atoms: C_10  and  C_11
REMARK    5  A    between atoms: C_15  and  C_16
REMARK    6  A    between atoms: C_16  and  C_17
REMARK    7  A    between atoms: C_27  and  C_28
REMARK                            x       y       z     vdW  Elec       q    Type
REMARK                         _______ _______ _______ _____ _____    ______ ____
ROOT
ATOM     11  C   UNL     1      -5.531  -9.455  11.273  0.00  0.00    +0.043 C 
ATOM     12  C   UNL     1      -6.132  -9.744  11.758  0.00  0.00    -0.033 C 
ATOM     13  C   UNL     1      -6.920  -9.690  11.518  0.00  0.00    -0.048 C 
ATOM     14  C   UNL     1      -7.520  -9.979  12.003  0.00  0.00    +0.026 C 
ATOM     15  C   UNL     1      -7.106  -9.346  10.791  0.00  0.00    +0.027 C 
ATOM     26  C   UNL     1      -6.504  -9.057  10.305  0.00  0.00    +0.005 C 
ATOM     27  C   UNL     1      -5.717  -9.111  10.547  0.00  0.00    +0.006 C 
ENDROOT
BRANCH  27  28
ATOM     28  C   UNL     1      -5.116  -8.822  10.060  0.00  0.00    +0.000 C 
ATOM     29  C   UNL     1      -4.751  -8.105  10.240  0.00  0.00    +0.000 C 
ATOM     30  C   UNL     1      -4.881  -9.249   9.396  0.00  0.00    +0.000 C 
ENDBRANCH  27  28
BRANCH  11  10
ATOM     10  C   UNL     1      -4.744  -9.509  11.514  0.00  0.00    +0.121 C 
BRANCH  10   9
ATOM      6  N   UNL     1      -3.609 -10.780  12.877  0.00  0.00    -0.161 NA
ATOM      7  C   UNL     1      -3.872 -10.112  12.472  0.00  0.00    +0.344 C 
ATOM      8  O   UNL     1      -3.527  -9.377  12.621  0.00  0.00    -0.249 OA
ATOM      9  N   UNL     1      -4.481 -10.177  11.918  0.00  0.00    -0.187 NA
BRANCH   6   5
ATOM      3  C   UNL     1      -2.564 -10.682  14.790  0.00  0.00    +0.140 A 
ATOM      4  C   UNL     1      -3.172 -10.748  14.237  0.00  0.00    +0.054 A 
ATOM      5  C   UNL     1      -3.001 -10.715  13.430  0.00  0.00    +0.078 A 
ATOM     31  C   UNL     1      -2.222 -10.617  13.178  0.00  0.00    +0.017 A 
ATOM     32  C   UNL     1      -1.613 -10.551  13.731  0.00  0.00    +0.004 A 
ATOM     33  C   UNL     1      -1.784 -10.584  14.538  0.00  0.00    +0.037 A 
BRANCH   3   2
ATOM      1  C   UNL     1      -2.263 -10.306  16.136  0.00  0.00    +0.252 C 
ATOM      2  O   UNL     1      -2.735 -10.715  15.597  0.00  0.00    -0.471 OA
ENDBRANCH   3   2
ENDBRANCH   6   5
ENDBRANCH  10   9
ENDBRANCH  11  10
BRANCH  15  16
ATOM     16  C   UNL     1      -7.892  -9.292  10.549  0.00  0.00    +0.089 C 
BRANCH  16  17
ATOM     17  C   UNL     1      -8.134  -9.652   9.846  0.00  0.00    +0.226 C 
ATOM     18  O   UNL     1      -7.731 -10.313   9.562  0.00  0.00    -0.275 OA
ATOM     19  N   UNL     1      -8.778  -9.349   9.429  0.00  0.00    -0.277 N 
ATOM     20  C   UNL     1      -9.019  -9.709   8.726  0.00  0.00    +0.111 C 
ATOM     21  C   UNL     1      -9.663  -9.407   8.309  0.00  0.00    +0.094 C 
ATOM     22  N   UNL     1     -10.066  -8.747   8.593  0.00  0.00    -0.269 NA
ATOM     23  C   UNL     1     -10.710  -8.445   8.175  0.00  0.00    +0.090 C 
ATOM     24  C   UNL     1      -9.825  -8.387   9.295  0.00  0.00    +0.094 C 
ATOM     25  C   UNL     1      -9.180  -8.689   9.713  0.00  0.00    +0.111 C 
ENDBRANCH  16  17
ENDBRANCH  15  16
TORSDOF 7
ENDMDL
MODEL 6
REMARK VINA RESULT:      -4.6     16.686     17.648
REMARK  Name = 
REMARK  7 active torsions:
REMARK  status: ('A' for Active; 'I' for Inactive)
REMARK    1  A    between atoms: O_2  and  C_3
REMARK    2  A    between atoms: C_5  and  N_6
REMARK    3  A    between atoms: N_9  and  C_10
REMARK    4  A    between atoms: C_10  and  C_11
REMARK    5  A    between atoms: C_15  and  C_16
REMARK    6  A    between atoms: C_16  and  C_17
REMARK    7  A    between atoms: C_27  and  C_28
REMARK                            x       y       z     vdW  Elec       q    Type
REMARK                         _______ _______ _______ _____ _____    ______ ____
ROOT
ATOM     11  C   UNL     1      -4.264  -9.548  10.444  0.00  0.00    +0.043 C 
ATOM     12  C   UNL     1      -4.527  -9.418  11.215  0.00  0.00    -0.033 C 
ATOM     13  C   UNL     1      -5.331  -9.476  11.392  0.00  0.00    -0.048 C 
ATOM     14  C   UNL     1      -5.594  -9.346  12.163  0.00  0.00    +0.026 C 
ATOM     15  C   UNL     1      -5.872  -9.665  10.798  0.00  0.00    +0.027 C 
ATOM     26  C   UNL     1      -5.608  -9.795  10.027  0.00  0.00    +0.005 C 
ATOM     27  C   UNL     1      -4.805  -9.737   9.850  0.00  0.00    +0.006 C 
ENDROOT
BRANCH  27  28
ATOM     28  C   UNL     1      -4.541  -9.867   9.079  0.00  0.00    +0.000 C 
ATOM     29  C   UNL     1      -4.377 -10.635   8.824  0.00  0.00    +0.000 C 
ATOM     30  C   UNL     1      -4.443  -9.232   8.564  0.00  0.00    +0.000 C 
ENDBRANCH  27  28
BRANCH  11  10
ATOM     10  C   UNL     1      -3.460  -9.490  10.267  0.00  0.00    +0.121 C 
BRANCH  10   9
ATOM      6  N   UNL     1      -1.601  -9.460  11.408  0.00  0.00    -0.161 NA
ATOM      7  C   UNL     1      -2.165  -9.285  10.833  0.00  0.00    +0.344 C 
ATOM      8  O   UNL     1      -1.997  -8.727  10.247  0.00  0.00    -0.249 OA
ATOM      9  N   UNL     1      -2.897  -9.665  10.842  0.00  0.00    -0.187 NA
BRANCH   6   5
ATOM      3  C   UNL     1       0.058  -8.165  11.988  0.00  0.00    +0.140 A 
ATOM      4  C   UNL     1      -0.674  -8.545  11.998  0.00  0.00    +0.054 A 
ATOM      5  C   UNL     1      -0.870  -9.080  11.399  0.00  0.00    +0.078 A 
ATOM     31  C   UNL     1      -0.332  -9.232  10.791  0.00  0.00    +0.017 A 
ATOM     32  C   UNL     1       0.400  -8.851  10.781  0.00  0.00    +0.004 A 
ATOM     33  C   UNL     1       0.595  -8.317  11.380  0.00  0.00    +0.037 A 
BRANCH   3   2
ATOM      1  C   UNL     1       0.862  -7.085  12.471  0.00  0.00    +0.252 C 
ATOM      2  O   UNL     1       0.253  -7.631  12.586  0.00  0.00    -0.471 OA
ENDBRANCH   3   2
ENDBRANCH   6   5
ENDBRANCH  10   9
ENDBRANCH  11  10
BRANCH  15  16
ATOM     16  C   UNL     1      -6.675  -9.723  10.974  0.00  0.00    +0.089 C 
BRANCH  16  17
ATOM     17  C   UNL     1      -7.219  -9.242  10.582  0.00  0.00    +0.226 C 
ATOM     18  O   UNL     1      -6.976  -8.523  10.258  0.00  0.00    -0.275 OA
ATOM     19  N   UNL     1      -8.006  -9.480  10.514  0.00  0.00    -0.277 N 
ATOM     20  C   UNL     1      -8.550  -8.999  10.122  0.00  0.00    +0.111 C 
ATOM     21  C   UNL     1      -9.337  -9.237  10.054  0.00  0.00    +0.094 C 
ATOM     22  N   UNL     1      -9.580  -9.955  10.378  0.00  0.00    -0.269 NA
ATOM     23  C   UNL     1     -10.368 -10.193  10.310  0.00  0.00    +0.090 C 
ATOM     24  C   UNL     1      -9.037 -10.436  10.770  0.00  0.00    +0.094 C 
ATOM     25  C   UNL     1      -8.249 -10.198  10.838  0.00  0.00    +0.111 C 
ENDBRANCH  16  17
ENDBRANCH  15  16
TORSDOF 7
ENDMDL
