MODEL 1
REMARK VINA RESULT:     -11.3      0.000      0.000
REMARK  Name = 
REMARK  9 active torsions:
REMARK  status: ('A' for Active; 'I' for Inactive)
REMARK    1  A    between atoms: S_2  and  C_3
REMARK    2  A    between atoms: C_3  and  C_4
REMARK    3  A    between atoms: C_9  and  N_10
REMARK    4  A    between atoms: N_13  and  C_14
REMARK    5  A    between atoms: C_20  and  C_21
REMARK    6  A    between atoms: N_23  and  C_24
REMARK    7  A    between atoms: C_24  and  C_25
REMARK    8  A    between atoms: C_24  and  C_32
REMARK    9  A    between atoms: C_25  and  C_26
REMARK                            x       y       z     vdW  Elec       q    Type
REMARK                         _______ _______ _______ _____ _____    ______ ____
ROOT
ATOM      4  C   UNL     1      -0.893   2.957  25.468  0.00  0.00    +0.237 C 
ATOM      5  O   UNL     1      -0.281   3.162  25.982  0.00  0.00    -0.274 OA
ATOM      6  N   UNL     1      -1.075   2.163  25.339  0.00  0.00    -0.271 N 
ATOM      7  C   UNL     1      -0.696   1.516  25.683  0.00  0.00    +0.096 C 
ATOM      8  C   UNL     1      -1.055   0.830  25.399  0.00  0.00    +0.045 C 
ATOM      9  C   UNL     1      -1.657   1.052  24.881  0.00  0.00    +0.126 C 
ATOM     20  C   UNL     1      -1.670   1.876  24.843  0.00  0.00    +0.174 C 
ENDROOT
BRANCH   9  10
ATOM     10  N   UNL     1      -2.158   0.540  24.471  0.00  0.00    -0.187 NA
ATOM     11  C   UNL     1      -2.257  -0.236  24.731  0.00  0.00    +0.339 C 
ATOM     12  O   UNL     1      -1.855  -0.501  25.401  0.00  0.00    -0.249 OA
ATOM     13  N   UNL     1      -2.758  -0.748  24.322  0.00  0.00    -0.189 NA
BRANCH  13  14
ATOM     14  C   UNL     1      -2.857  -1.525  24.582  0.00  0.00    +0.097 C 
ATOM     15  C   UNL     1      -2.339  -2.114  24.328  0.00  0.00    +0.022 C 
ATOM     16  C   UNL     1      -2.438  -2.890  24.589  0.00  0.00    +0.002 C 
ATOM     17  C   UNL     1      -3.055  -3.078  25.103  0.00  0.00    +0.000 C 
ATOM     18  C   UNL     1      -3.573  -2.488  25.357  0.00  0.00    +0.002 C 
ATOM     19  C   UNL     1      -3.474  -1.711  25.097  0.00  0.00    +0.022 C 
ENDBRANCH  13  14
ENDBRANCH   9  10
BRANCH  20  21
ATOM     21  C   UNL     1      -2.185   2.333  24.389  0.00  0.00    +0.262 C 
ATOM     22  O   UNL     1      -1.888   2.920  23.892  0.00  0.00    -0.271 OA
ATOM     23  N   UNL     1      -2.999   2.203  24.434  0.00  0.00    -0.196 NA
BRANCH  23  24
ATOM     24  C   UNL     1      -3.515   2.660  23.980  0.00  0.00    +0.179 C 
BRANCH  24  32
ATOM     32  C   UNL     1      -3.480   2.626  23.156  0.00  0.00    +0.281 C 
ATOM     33  N   UNL     1      -3.521   3.320  22.713  0.00  0.00    -0.086 NA
ATOM     34  O   UNL     1      -3.405   1.897  22.776  0.00  0.00    -0.270 OA
ENDBRANCH  24  32
BRANCH  24  25
ATOM     25  C   UNL     1      -4.065   3.150  24.350  0.00  0.00    +0.057 C 
BRANCH  25  26
ATOM     26  C   UNL     1      -4.669   2.822  24.808  0.00  0.00    -0.020 A 
ATOM     27  C   UNL     1      -5.138   2.218  24.499  0.00  0.00    -0.004 A 
ATOM     28  C   UNL     1      -5.741   1.890  24.956  0.00  0.00    -0.000 A 
ATOM     29  C   UNL     1      -5.875   2.166  25.722  0.00  0.00    -0.000 A 
ATOM     30  C   UNL     1      -5.406   2.770  26.031  0.00  0.00    -0.000 A 
ATOM     31  C   UNL     1      -4.802   3.099  25.573  0.00  0.00    -0.004 A 
ENDBRANCH  25  26
ENDBRANCH  24  25
ENDBRANCH  23  24
ENDBRANCH  20  21
BRANCH   4   3
ATOM      3  C   UNL     1      -1.323   3.547  25.083  0.00  0.00    +0.143 C 
BRANCH   3   2
ATOM      1  C   UNL     1      -1.506   4.941  25.339  0.00  0.00    +0.070 C 
ATOM      2  S   UNL     1      -1.037   4.320  25.064  0.00  0.00    -0.130 S 
ENDBRANCH   3   2
ENDBRANCH   4   3
TORSDOF 9
ENDMDL
MODEL 2
REMARK VINA RESULT:     -10.0      1.488      3.061
REMARK  Name = 
REMARK  9 active torsions:
REMARK  status: ('A' for Active; 'I' for Inactive)
REMARK    1  A    between atoms: S_2  and  C_3
REMARK    2  A    between atoms: C_3  and  C_4
REMARK    3  A    between atoms: C_9  and  N_10
REMARK    4  A    between atoms: N_13  and  C_14
REMARK    5  A    between atoms: C_20  and  C_21
REMARK    6  A    between atoms: N_23  and  C_24
REMARK    7  A    between atoms: C_24  and  C_25
REMARK    8  A    between atoms: C_24  and  C_32
REMARK    9  A    between atoms: C_25  and  C_26
REMARK                            x       y       z     vdW  Elec       q    Type
REMARK                         _______ _______ _______ _____ _____    ______ ____
ROOT
ATOM      4  C   UNL     1      -4.969   2.939  25.480  0.00  0.00    +0.237 C 
ATOM      5  O   UNL     1      -5.572   3.170  25.994  0.00  0.00    -0.274 OA
ATOM      6  N   UNL     1      -4.872   2.143  25.289  0.00  0.00    -0.271 N 
ATOM      7  C   UNL     1      -5.334   1.518  25.567  0.00  0.00    +0.096 C 
ATOM      8  C   UNL     1      -5.043   0.820  25.236  0.00  0.00    +0.045 C 
ATOM      9  C   UNL     1      -4.403   1.014  24.753  0.00  0.00    +0.126 C 
ATOM     20  C   UNL     1      -4.296   1.831  24.786  0.00  0.00    +0.174 C 
ENDROOT
BRANCH   9  10
ATOM     10  N   UNL     1      -3.948   0.483  24.315  0.00  0.00    -0.187 NA
ATOM     11  C   UNL     1      -3.959  -0.321  24.500  0.00  0.00    +0.339 C 
ATOM     12  O   UNL     1      -4.424  -0.594  25.124  0.00  0.00    -0.249 OA
ATOM     13  N   UNL     1      -3.504  -0.852  24.062  0.00  0.00    -0.189 NA
BRANCH  13  14
ATOM     14  C   UNL     1      -3.515  -1.656  24.247  0.00  0.00    +0.097 C 
ATOM     15  C   UNL     1      -2.991  -1.957  24.809  0.00  0.00    +0.022 C 
ATOM     16  C   UNL     1      -3.003  -2.760  24.994  0.00  0.00    +0.002 C 
ATOM     17  C   UNL     1      -3.538  -3.263  24.618  0.00  0.00    +0.000 C 
ATOM     18  C   UNL     1      -4.062  -2.962  24.056  0.00  0.00    +0.002 C 
ATOM     19  C   UNL     1      -4.050  -2.158  23.871  0.00  0.00    +0.022 C 
ENDBRANCH  13  14
ENDBRANCH   9  10
BRANCH  20  21
ATOM     21  C   UNL     1      -3.717   2.262  24.386  0.00  0.00    +0.262 C 
ATOM     22  O   UNL     1      -3.935   2.870  23.875  0.00  0.00    -0.271 OA
ATOM     23  N   UNL     1      -2.920   2.083  24.498  0.00  0.00    -0.196 NA
BRANCH  23  24
ATOM     24  C   UNL     1      -2.340   2.513  24.099  0.00  0.00    +0.179 C 
BRANCH  24  32
ATOM     32  C   UNL     1      -2.223   2.394  23.290  0.00  0.00    +0.281 C 
ATOM     33  N   UNL     1      -2.368   3.008  22.759  0.00  0.00    -0.086 NA
ATOM     34  O   UNL     1      -1.960   1.662  23.015  0.00  0.00    -0.270 OA
ENDBRANCH  24  32
BRANCH  24  25
ATOM     25  C   UNL     1      -1.879   3.060  24.507  0.00  0.00    +0.057 C 
BRANCH  25  26
ATOM     26  C   UNL     1      -1.228   2.806  24.946  0.00  0.00    -0.020 A 
ATOM     27  C   UNL     1      -0.528   2.594  24.563  0.00  0.00    -0.004 A 
ATOM     28  C   UNL     1       0.121   2.340  25.002  0.00  0.00    -0.000 A 
ATOM     29  C   UNL     1       0.073   2.297  25.825  0.00  0.00    -0.000 A 
ATOM     30  C   UNL     1      -0.626   2.509  26.208  0.00  0.00    -0.000 A 
ATOM     31  C   UNL     1      -1.277   2.764  25.768  0.00  0.00    -0.004 A 
ENDBRANCH  25  26
ENDBRANCH  24  25
ENDBRANCH  23  24
ENDBRANCH  20  21
BRANCH   4   3
ATOM      3  C   UNL     1      -4.462   3.505  25.158  0.00  0.00    +0.143 C 
BRANCH   3   2
ATOM      1  C   UNL     1      -4.273   4.774  25.788  0.00  0.00    +0.070 C 
ATOM      2  S   UNL     1      -4.647   4.307  25.220  0.00  0.00    -0.130 S 
ENDBRANCH   3   2
ENDBRANCH   4   3
TORSDOF 9
ENDMDL
MODEL 3
REMARK VINA RESULT:      -9.7      1.701      4.066
REMARK  Name = 
REMARK  9 active torsions:
REMARK  status: ('A' for Active; 'I' for Inactive)
REMARK    1  A    between atoms: S_2  and  C_3
REMARK    2  A    between atoms: C_3  and  C_4
REMARK    3  A    between atoms: C_9  and  N_10
REMARK    4  A    between atoms: N_13  and  C_14
REMARK    5  A    between atoms: C_20  and  C_21
REMARK    6  A    between atoms: N_23  and  C_24
REMARK    7  A    between atoms: C_24  and  C_25
REMARK    8  A    between atoms: C_24  and  C_32
REMARK    9  A    between atoms: C_25  and  C_26
REMARK                            x       y       z     vdW  Elec       q    Type
REMARK                         _______ _______ _______ _____ _____    ______ ____
ROOT
ATOM      4  C   UNL     1      -0.940  -0.561  24.229  0.00  0.00    +0.237 C 
ATOM      5  O   UNL     1      -0.847  -1.372  24.108  0.00  0.00    -0.274 OA
ATOM      6  N   UNL     1      -1.674  -0.260  24.455  0.00  0.00    -0.271 N 
ATOM      7  C   UNL     1      -2.361  -0.699  24.581  0.00  0.00    +0.096 C 
ATOM      8  C   UNL     1      -2.961  -0.176  24.799  0.00  0.00    +0.045 C 
ATOM      9  C   UNL     1      -2.645   0.586  24.807  0.00  0.00    +0.126 C 
ATOM     20  C   UNL     1      -1.849   0.535  24.595  0.00  0.00    +0.174 C 
ENDROOT
BRANCH   9  10
ATOM     10  N   UNL     1      -3.054   1.277  24.996  0.00  0.00    -0.187 NA
ATOM     11  C   UNL     1      -3.876   1.269  25.049  0.00  0.00    +0.339 C 
ATOM     12  O   UNL     1      -4.291   0.570  24.914  0.00  0.00    -0.249 OA
ATOM     13  N   UNL     1      -4.285   1.961  25.237  0.00  0.00    -0.189 NA
BRANCH  13  14
ATOM     14  C   UNL     1      -5.108   1.953  25.290  0.00  0.00    +0.097 C 
ATOM     15  C   UNL     1      -5.474   1.934  26.029  0.00  0.00    +0.022 C 
ATOM     16  C   UNL     1      -6.296   1.925  26.082  0.00  0.00    +0.002 C 
ATOM     17  C   UNL     1      -6.755   1.937  25.396  0.00  0.00    +0.000 C 
ATOM     18  C   UNL     1      -6.389   1.956  24.657  0.00  0.00    +0.002 C 
ATOM     19  C   UNL     1      -5.566   1.965  24.604  0.00  0.00    +0.022 C 
ENDBRANCH  13  14
ENDBRANCH   9  10
BRANCH  20  21
ATOM     21  C   UNL     1      -1.323   1.166  24.533  0.00  0.00    +0.262 C 
ATOM     22  O   UNL     1      -0.909   1.291  23.831  0.00  0.00    -0.271 OA
ATOM     23  N   UNL     1      -1.209   1.673  25.174  0.00  0.00    -0.196 NA
BRANCH  23  24
ATOM     24  C   UNL     1      -0.682   2.304  25.113  0.00  0.00    +0.179 C 
BRANCH  24  32
ATOM     32  C   UNL     1      -0.035   2.352  25.624  0.00  0.00    +0.281 C 
ATOM     33  N   UNL     1      -0.146   2.270  26.437  0.00  0.00    -0.086 NA
ATOM     34  O   UNL     1       0.721   2.481  25.321  0.00  0.00    -0.270 OA
ENDBRANCH  24  32
BRANCH  24  25
ATOM     25  C   UNL     1      -0.801   2.887  24.543  0.00  0.00    +0.057 C 
BRANCH  25  26
ATOM     26  C   UNL     1      -1.020   3.650  24.772  0.00  0.00    -0.020 A 
ATOM     27  C   UNL     1      -1.684   3.763  25.249  0.00  0.00    -0.004 A 
ATOM     28  C   UNL     1      -1.903   4.524  25.477  0.00  0.00    -0.000 A 
ATOM     29  C   UNL     1      -1.458   5.174  25.229  0.00  0.00    -0.000 A 
ATOM     30  C   UNL     1      -0.794   5.061  24.752  0.00  0.00    -0.000 A 
ATOM     31  C   UNL     1      -0.575   4.298  24.524  0.00  0.00    -0.004 A 
ENDBRANCH  25  26
ENDBRANCH  24  25
ENDBRANCH  23  24
ENDBRANCH  20  21
BRANCH   4   3
ATOM      3  C   UNL     1      -0.300  -0.052  24.123  0.00  0.00    +0.143 C 
BRANCH   3   2
ATOM      1  C   UNL     1       0.779  -0.221  23.200  0.00  0.00    +0.070 C 
ATOM      2  S   UNL     1       0.445  -0.357  23.943  0.00  0.00    -0.130 S 
ENDBRANCH   3   2
ENDBRANCH   4   3
TORSDOF 9
ENDMDL
MODEL 4
REMARK VINA RESULT:      -9.3      2.170      4.253
REMARK  Name = 
REMARK  9 active torsions:
REMARK  status: ('A' for Active; 'I' for Inactive)
REMARK    1  A    between atoms: S_2  and  C_3
REMARK    2  A    between atoms: C_3  and  C_4
REMARK    3  A    between atoms: C_9  and  N_10
REMARK    4  A    between atoms: N_13  and  C_14
REMARK    5  A    between atoms: C_20  and  C_21
REMARK    6  A    between atoms: N_23  and  C_24
REMARK    7  A    between atoms: C_24  and  C_25
REMARK    8  A    between atoms: C_24  and  C_32
REMARK    9  A    between atoms: C_25  and  C_26
REMARK                            x       y       z     vdW  Elec       q    Type
REMARK                         _______ _______ _______ _____ _____    ______ ____
ROOT
ATOM      4  C   UNL     1      -3.519   2.111  24.115  0.00  0.00    +0.237 C 
ATOM      5  O   UNL     1      -3.864   2.773  23.763  0.00  0.00    -0.274 OA
ATOM      6  N   UNL     1      -2.771   1.859  23.877  0.00  0.00    -0.271 N 
ATOM      7  C   UNL     1      -2.303   2.211  23.295  0.00  0.00    +0.096 C 
ATOM      8  C   UNL     1      -1.602   1.779  23.237  0.00  0.00    +0.045 C 
ATOM      9  C   UNL     1      -1.637   1.161  23.782  0.00  0.00    +0.126 C 
ATOM     20  C   UNL     1      -2.359   1.209  24.178  0.00  0.00    +0.174 C 
ENDROOT
BRANCH   9  10
ATOM     10  N   UNL     1      -1.052   0.593  23.909  0.00  0.00    -0.187 NA
ATOM     11  C   UNL     1      -0.334   0.644  23.507  0.00  0.00    +0.339 C 
ATOM     12  O   UNL     1      -0.201   1.262  22.977  0.00  0.00    -0.249 OA
ATOM     13  N   UNL     1       0.251   0.076  23.633  0.00  0.00    -0.189 NA
BRANCH  13  14
ATOM     14  C   UNL     1       0.970   0.126  23.230  0.00  0.00    +0.097 C 
ATOM     15  C   UNL     1       1.079  -0.292  22.528  0.00  0.00    +0.022 C 
ATOM     16  C   UNL     1       1.797  -0.241  22.126  0.00  0.00    +0.002 C 
ATOM     17  C   UNL     1       2.406   0.228  22.425  0.00  0.00    +0.000 C 
ATOM     18  C   UNL     1       2.297   0.646  23.128  0.00  0.00    +0.002 C 
ATOM     19  C   UNL     1       1.579   0.595  23.531  0.00  0.00    +0.022 C 
ENDBRANCH  13  14
ENDBRANCH   9  10
BRANCH  20  21
ATOM     21  C   UNL     1      -2.624   0.700  24.769  0.00  0.00    +0.262 C 
ATOM     22  O   UNL     1      -2.869   1.003  25.496  0.00  0.00    -0.271 OA
ATOM     23  N   UNL     1      -2.643  -0.114  24.634  0.00  0.00    -0.196 NA
BRANCH  23  24
ATOM     24  C   UNL     1      -2.907  -0.625  25.226  0.00  0.00    +0.179 C 
BRANCH  24  32
ATOM     32  C   UNL     1      -2.420  -0.797  25.869  0.00  0.00    +0.281 C 
ATOM     33  N   UNL     1      -2.714  -0.735  26.637  0.00  0.00    -0.086 NA
ATOM     34  O   UNL     1      -1.639  -1.032  25.744  0.00  0.00    -0.270 OA
ENDBRANCH  24  32
BRANCH  24  25
ATOM     25  C   UNL     1      -3.657  -0.963  25.174  0.00  0.00    +0.057 C 
BRANCH  25  26
ATOM     26  C   UNL     1      -3.776  -1.635  24.710  0.00  0.00    -0.020 A 
ATOM     27  C   UNL     1      -3.455  -2.359  24.942  0.00  0.00    -0.004 A 
ATOM     28  C   UNL     1      -3.574  -3.030  24.478  0.00  0.00    -0.000 A 
ATOM     29  C   UNL     1      -4.014  -2.979  23.782  0.00  0.00    -0.000 A 
ATOM     30  C   UNL     1      -4.335  -2.255  23.550  0.00  0.00    -0.000 A 
ATOM     31  C   UNL     1      -4.216  -1.582  24.015  0.00  0.00    -0.004 A 
ENDBRANCH  25  26
ENDBRANCH  24  25
ENDBRANCH  23  24
ENDBRANCH  20  21
BRANCH   4   3
ATOM      3  C   UNL     1      -3.924   1.701  24.707  0.00  0.00    +0.143 C 
BRANCH   3   2
ATOM      1  C   UNL     1      -5.340   1.803  24.868  0.00  0.00    +0.070 C 
ATOM      2  S   UNL     1      -4.578   2.045  25.073  0.00  0.00    -0.130 S 
ENDBRANCH   3   2
ENDBRANCH   4   3
TORSDOF 9
ENDMDL
MODEL 5
REMARK VINA RESULT:      -9.3      1.701      4.302
REMARK  Name = 
REMARK  9 active torsions:
REMARK  status: ('A' for Active; 'I' for Inactive)
REMARK    1  A    between atoms: S_2  and  C_3
REMARK    2  A    between atoms: C_3  and  C_4
REMARK    3  A    between atoms: C_9  and  N_10
REMARK    4  A    between atoms: N_13  and  C_14
REMARK    5  A    between atoms: C_20  and  C_21
REMARK    6  A    between atoms: N_23  and  C_24
REMARK    7  A    between atoms: C_24  and  C_25
REMARK    8  A    between atoms: C_24  and  C_32
REMARK    9  A    between atoms: C_25  and  C_26
REMARK                            x       y       z     vdW  Elec       q    Type
REMARK                         _______ _______ _______ _____ _____    ______ ____
ROOT
ATOM      4  C   UNL     1      -0.890  -0.980  24.843  0.00  0.00    +0.237 C 
ATOM      5  O   UNL     1      -0.169  -1.377  24.781  0.00  0.00    -0.274 OA
ATOM      6  N   UNL     1      -0.910  -0.156  24.834  0.00  0.00    -0.271 N 
ATOM      7  C   UNL     1      -0.257   0.344  24.766  0.00  0.00    +0.096 C 
ATOM      8  C   UNL     1      -0.530   1.123  24.782  0.00  0.00    +0.045 C 
ATOM      9  C   UNL     1      -1.351   1.104  24.859  0.00  0.00    +0.126 C 
ATOM     20  C   UNL     1      -1.586   0.314  24.891  0.00  0.00    +0.174 C 
ENDROOT
BRANCH   9  10
ATOM     10  N   UNL     1      -1.849   1.760  24.897  0.00  0.00    -0.187 NA
ATOM     11  C   UNL     1      -1.530   2.520  24.921  0.00  0.00    +0.339 C 
ATOM     12  O   UNL     1      -0.712   2.624  24.908  0.00  0.00    -0.249 OA
ATOM     13  N   UNL     1      -2.029   3.176  24.959  0.00  0.00    -0.189 NA
BRANCH  13  14
ATOM     14  C   UNL     1      -1.709   3.937  24.984  0.00  0.00    +0.097 C 
ATOM     15  C   UNL     1      -2.092   4.532  25.409  0.00  0.00    +0.022 C 
ATOM     16  C   UNL     1      -1.772   5.291  25.433  0.00  0.00    +0.002 C 
ATOM     17  C   UNL     1      -1.070   5.457  25.034  0.00  0.00    +0.000 C 
ATOM     18  C   UNL     1      -0.687   4.862  24.609  0.00  0.00    +0.002 C 
ATOM     19  C   UNL     1      -1.007   4.102  24.584  0.00  0.00    +0.022 C 
ENDBRANCH  13  14
ENDBRANCH   9  10
BRANCH  20  21
ATOM     21  C   UNL     1      -2.361   0.041  24.967  0.00  0.00    +0.262 C 
ATOM     22  O   UNL     1      -2.555  -0.485  25.571  0.00  0.00    -0.271 OA
ATOM     23  N   UNL     1      -2.941   0.294  24.439  0.00  0.00    -0.196 NA
BRANCH  23  24
ATOM     24  C   UNL     1      -3.716   0.022  24.514  0.00  0.00    +0.179 C 
BRANCH  24  32
ATOM     32  C   UNL     1      -4.034  -0.480  23.941  0.00  0.00    +0.281 C 
ATOM     33  N   UNL     1      -4.516  -1.110  24.167  0.00  0.00    -0.086 NA
ATOM     34  O   UNL     1      -3.869  -0.352  23.143  0.00  0.00    -0.270 OA
ENDBRANCH  24  32
BRANCH  24  25
ATOM     25  C   UNL     1      -4.172   0.250  25.161  0.00  0.00    +0.057 C 
BRANCH  25  26
ATOM     26  C   UNL     1      -4.668   0.908  25.105  0.00  0.00    -0.020 A 
ATOM     27  C   UNL     1      -4.758   1.296  24.383  0.00  0.00    -0.004 A 
ATOM     28  C   UNL     1      -5.253   1.954  24.327  0.00  0.00    -0.000 A 
ATOM     29  C   UNL     1      -5.658   2.224  24.994  0.00  0.00    -0.000 A 
ATOM     30  C   UNL     1      -5.567   1.835  25.716  0.00  0.00    -0.000 A 
ATOM     31  C   UNL     1      -5.072   1.177  25.772  0.00  0.00    -0.004 A 
ENDBRANCH  25  26
ENDBRANCH  24  25
ENDBRANCH  23  24
ENDBRANCH  20  21
BRANCH   4   3
ATOM      3  C   UNL     1      -1.591  -1.409  24.914  0.00  0.00    +0.143 C 
BRANCH   3   2
ATOM      1  C   UNL     1      -1.678  -2.758  24.450  0.00  0.00    +0.070 C 
ATOM      2  S   UNL     1      -1.565  -2.220  25.065  0.00  0.00    -0.130 S 
ENDBRANCH   3   2
ENDBRANCH   4   3
TORSDOF 9
ENDMDL
MODEL 6
REMARK VINA RESULT:      -9.2      1.727      4.305
REMARK  Name = 
REMARK  9 active torsions:
REMARK  status: ('A' for Active; 'I' for Inactive)
REMARK    1  A    between atoms: S_2  and  C_3
REMARK    2  A    between atoms: C_3  and  C_4
REMARK    3  A    between atoms: C_9  and  N_10
REMARK    4  A    between atoms: N_13  and  C_14
REMARK    5  A    between atoms: C_20  and  C_21
REMARK    6  A    between atoms: N_23  and  C_24
REMARK    7  A    between atoms: C_24  and  C_25
REMARK    8  A    between atoms: C_24  and  C_32
REMARK    9  A    between atoms: C_25  and  C_26
REMARK                            x       y       z     vdW  Elec       q    Type
REMARK                         _______ _______ _______ _____ _____    ______ ____
ROOT
ATOM      4  C   UNL     1       0.682   1.329  23.879  0.00  0.00    +0.237 C 
ATOM      5  O   UNL     1       1.341   1.796  23.711  0.00  0.00    -0.274 OA
ATOM      6  N   UNL     1       0.019   1.664  24.237  0.00  0.00    -0.271 N 
ATOM      7  C   UNL     1      -0.065   2.454  24.459  0.00  0.00    +0.096 C 
ATOM      8  C   UNL     1      -0.812   2.546  24.796  0.00  0.00    +0.045 C 
ATOM      9  C   UNL     1      -1.190   1.812  24.783  0.00  0.00    +0.126 C 
ATOM     20  C   UNL     1      -0.676   1.267  24.438  0.00  0.00    +0.174 C 
ENDROOT
BRANCH   9  10
ATOM     10  N   UNL     1      -1.949   1.653  25.065  0.00  0.00    -0.187 NA
ATOM     11  C   UNL     1      -2.534   2.232  25.026  0.00  0.00    +0.339 C 
ATOM     12  O   UNL     1      -2.361   2.972  24.705  0.00  0.00    -0.249 OA
ATOM     13  N   UNL     1      -3.293   2.072  25.309  0.00  0.00    -0.189 NA
BRANCH  13  14
ATOM     14  C   UNL     1      -3.878   2.653  25.270  0.00  0.00    +0.097 C 
ATOM     15  C   UNL     1      -3.879   3.275  25.811  0.00  0.00    +0.022 C 
ATOM     16  C   UNL     1      -4.464   3.855  25.771  0.00  0.00    +0.002 C 
ATOM     17  C   UNL     1      -5.050   3.812  25.191  0.00  0.00    +0.000 C 
ATOM     18  C   UNL     1      -5.049   3.189  24.650  0.00  0.00    +0.002 C 
ATOM     19  C   UNL     1      -4.463   2.609  24.689  0.00  0.00    +0.022 C 
ENDBRANCH  13  14
ENDBRANCH   9  10
BRANCH  20  21
ATOM     21  C   UNL     1      -0.830   0.466  24.314  0.00  0.00    +0.262 C 
ATOM     22  O   UNL     1      -0.715   0.134  23.569  0.00  0.00    -0.271 OA
ATOM     23  N   UNL     1      -1.100  -0.003  24.937  0.00  0.00    -0.196 NA
BRANCH  23  24
ATOM     24  C   UNL     1      -1.254  -0.804  24.815  0.00  0.00    +0.179 C 
BRANCH  24  32
ATOM     32  C   UNL     1      -0.824  -1.374  25.229  0.00  0.00    +0.281 C 
ATOM     33  N   UNL     1      -0.595  -2.071  24.852  0.00  0.00    -0.086 NA
ATOM     34  O   UNL     1      -0.624  -1.247  26.019  0.00  0.00    -0.270 OA
ENDBRANCH  24  32
BRANCH  24  25
ATOM     25  C   UNL     1      -1.837  -1.034  24.280  0.00  0.00    +0.057 C 
BRANCH  25  26
ATOM     26  C   UNL     1      -2.603  -1.189  24.545  0.00  0.00    -0.020 A 
ATOM     27  C   UNL     1      -2.737  -1.370  25.339  0.00  0.00    -0.004 A 
ATOM     28  C   UNL     1      -3.502  -1.525  25.603  0.00  0.00    -0.000 A 
ATOM     29  C   UNL     1      -4.135  -1.498  25.074  0.00  0.00    -0.000 A 
ATOM     30  C   UNL     1      -4.002  -1.316  24.281  0.00  0.00    -0.000 A 
ATOM     31  C   UNL     1      -3.236  -1.162  24.016  0.00  0.00    -0.004 A 
ENDBRANCH  25  26
ENDBRANCH  24  25
ENDBRANCH  23  24
ENDBRANCH  20  21
BRANCH   4   3
ATOM      3  C   UNL     1       0.687   0.526  23.688  0.00  0.00    +0.143 C 
BRANCH   3   2
ATOM      1  C   UNL     1       1.412  -0.094  22.624  0.00  0.00    +0.070 C 
ATOM      2  S   UNL     1       1.376   0.173  23.404  0.00  0.00    -0.130 S 
ENDBRANCH   3   2
ENDBRANCH   4   3
TORSDOF 9
ENDMDL
MODEL 7
REMARK VINA RESULT:      -9.2      1.765      4.367
REMARK  Name = 
REMARK  9 active torsions:
REMARK  status: ('A' for Active; 'I' for Inactive)
REMARK    1  A    between atoms: S_2  and  C_3
REMARK    2  A    between atoms: C_3  and  C_4
REMARK    3  A    between atoms: C_9  and  N_10
REMARK    4  A    between atoms: N_13  and  C_14
REMARK    5  A    between atoms: C_20  and  C_21
REMARK    6  A    between atoms: N_23  and  C_24
REMARK    7  A    between atoms: C_24  and  C_25
REMARK    8  A    between atoms: C_24  and  C_32
REMARK    9  A    between atoms: C_25  and  C_26
REMARK                            x       y       z     vdW  Elec       q    Type
REMARK                         _______ _______ _______ _____ _____    ______ ____
ROOT
ATOM      4  C   UNL     1      -1.845  -1.674  24.818  0.00  0.00    +0.237 C 
ATOM      5  O   UNL     1      -1.989  -2.485  24.774  0.00  0.00    -0.274 OA
ATOM      6  N   UNL     1      -2.449  -1.138  24.653  0.00  0.00    -0.271 N 
ATOM      7  C   UNL     1      -3.222  -1.330  24.438  0.00  0.00    +0.096 C 
ATOM      8  C   UNL     1      -3.638  -0.626  24.327  0.00  0.00    +0.045 C 
ATOM      9  C   UNL     1      -3.122   0.001  24.473  0.00  0.00    +0.126 C 
ATOM     20  C   UNL     1      -2.387  -0.315  24.675  0.00  0.00    +0.174 C 
ENDROOT
BRANCH   9  10
ATOM     10  N   UNL     1      -3.308   0.803  24.425  0.00  0.00    -0.187 NA
ATOM     11  C   UNL     1      -4.010   1.084  24.754  0.00  0.00    +0.339 C 
ATOM     12  O   UNL     1      -4.527   0.563  25.130  0.00  0.00    -0.249 OA
ATOM     13  N   UNL     1      -4.197   1.887  24.706  0.00  0.00    -0.189 NA
BRANCH  13  14
ATOM     14  C   UNL     1      -4.899   2.168  25.035  0.00  0.00    +0.097 C 
ATOM     15  C   UNL     1      -5.625   1.922  24.730  0.00  0.00    +0.022 C 
ATOM     16  C   UNL     1      -6.327   2.202  25.059  0.00  0.00    +0.002 C 
ATOM     17  C   UNL     1      -6.304   2.729  25.693  0.00  0.00    +0.000 C 
ATOM     18  C   UNL     1      -5.579   2.975  25.999  0.00  0.00    +0.002 C 
ATOM     19  C   UNL     1      -4.876   2.694  25.670  0.00  0.00    +0.022 C 
ENDBRANCH  13  14
ENDBRANCH   9  10
BRANCH  20  21
ATOM     21  C   UNL     1      -1.709   0.115  24.865  0.00  0.00    +0.262 C 
ATOM     22  O   UNL     1      -1.302  -0.044  25.563  0.00  0.00    -0.271 OA
ATOM     23  N   UNL     1      -1.440   0.706  24.355  0.00  0.00    -0.196 NA
BRANCH  23  24
ATOM     24  C   UNL     1      -0.762   1.136  24.545  0.00  0.00    +0.179 C 
BRANCH  24  32
ATOM     32  C   UNL     1      -0.107   1.116  24.042  0.00  0.00    +0.281 C 
ATOM     33  N   UNL     1      -0.216   1.082  23.225  0.00  0.00    -0.086 NA
ATOM     34  O   UNL     1       0.655   1.129  24.357  0.00  0.00    -0.270 OA
ENDBRANCH  24  32
BRANCH  24  25
ATOM     25  C   UNL     1      -0.738   1.587  25.234  0.00  0.00    +0.057 C 
BRANCH  25  26
ATOM     26  C   UNL     1      -0.886   2.399  25.202  0.00  0.00    -0.020 A 
ATOM     27  C   UNL     1      -0.807   2.804  24.488  0.00  0.00    -0.004 A 
ATOM     28  C   UNL     1      -0.954   3.615  24.457  0.00  0.00    -0.000 A 
ATOM     29  C   UNL     1      -1.179   4.021  25.139  0.00  0.00    -0.000 A 
ATOM     30  C   UNL     1      -1.258   3.615  25.853  0.00  0.00    -0.000 A 
ATOM     31  C   UNL     1      -1.111   2.803  25.885  0.00  0.00    -0.004 A 
ENDBRANCH  25  26
ENDBRANCH  24  25
ENDBRANCH  23  24
ENDBRANCH  20  21
BRANCH   4   3
ATOM      3  C   UNL     1      -1.095  -1.399  25.027  0.00  0.00    +0.143 C 
BRANCH   3   2
ATOM      1  C   UNL     1       0.132  -2.131  25.033  0.00  0.00    +0.070 C 
ATOM      2  S   UNL     1      -0.564  -1.900  25.411  0.00  0.00    -0.130 S 
ENDBRANCH   3   2
ENDBRANCH   4   3
TORSDOF 9
ENDMDL
MODEL 8
REMARK VINA RESULT:      -9.2      1.479      3.413
REMARK  Name = 
REMARK  9 active torsions:
REMARK  status: ('A' for Active; 'I' for Inactive)
REMARK    1  A    between atoms: S_2  and  C_3
REMARK    2  A    between atoms: C_3  and  C_4
REMARK    3  A    between atoms: C_9  and  N_10
REMARK    4  A    between atoms: N_13  and  C_14
REMARK    5  A    between atoms: C_20  and  C_21
REMARK    6  A    between atoms: N_23  and  C_24
REMARK    7  A    between atoms: C_24  and  C_25
REMARK    8  A    between atoms: C_24  and  C_32
REMARK    9  A    between atoms: C_25  and  C_26
REMARK                            x       y       z     vdW  Elec       q    Type
REMARK                         _______ _______ _______ _____ _____    ______ ____
ROOT
ATOM      4  C   UNL     1      -3.387   3.356  25.370  0.00  0.00    +0.237 C 
ATOM      5  O   UNL     1      -3.988   3.836  25.668  0.00  0.00    -0.274 OA
ATOM      6  N   UNL     1      -3.564   2.607  25.074  0.00  0.00    -0.271 N 
ATOM      7  C   UNL     1      -4.314   2.264  25.041  0.00  0.00    +0.096 C 
ATOM      8  C   UNL     1      -4.235   1.514  24.705  0.00  0.00    +0.045 C 
ATOM      9  C   UNL     1      -3.438   1.394  24.532  0.00  0.00    +0.126 C 
ATOM     20  C   UNL     1      -3.022   2.070  24.760  0.00  0.00    +0.174 C 
ENDROOT
BRANCH   9  10
ATOM     10  N   UNL     1      -3.113   0.717  24.190  0.00  0.00    -0.187 NA
ATOM     11  C   UNL     1      -3.447  -0.022  24.340  0.00  0.00    +0.339 C 
ATOM     12  O   UNL     1      -4.107  -0.084  24.831  0.00  0.00    -0.249 OA
ATOM     13  N   UNL     1      -3.122  -0.699  23.998  0.00  0.00    -0.189 NA
BRANCH  13  14
ATOM     14  C   UNL     1      -3.457  -1.438  24.148  0.00  0.00    +0.097 C 
ATOM     15  C   UNL     1      -3.167  -1.906  24.763  0.00  0.00    +0.022 C 
ATOM     16  C   UNL     1      -3.502  -2.644  24.912  0.00  0.00    +0.002 C 
ATOM     17  C   UNL     1      -4.127  -2.916  24.447  0.00  0.00    +0.000 C 
ATOM     18  C   UNL     1      -4.417  -2.449  23.832  0.00  0.00    +0.002 C 
ATOM     19  C   UNL     1      -4.082  -1.709  23.682  0.00  0.00    +0.022 C 
ENDBRANCH  13  14
ENDBRANCH   9  10
BRANCH  20  21
ATOM     21  C   UNL     1      -2.209   2.187  24.687  0.00  0.00    +0.262 C 
ATOM     22  O   UNL     1      -1.922   2.819  24.242  0.00  0.00    -0.271 OA
ATOM     23  N   UNL     1      -1.683   1.671  25.058  0.00  0.00    -0.196 NA
BRANCH  23  24
ATOM     24  C   UNL     1      -0.870   1.788  24.985  0.00  0.00    +0.179 C 
BRANCH  24  32
ATOM     32  C   UNL     1      -0.418   1.970  25.652  0.00  0.00    +0.281 C 
ATOM     33  N   UNL     1       0.178   2.537  25.603  0.00  0.00    -0.086 NA
ATOM     34  O   UNL     1      -0.564   1.585  26.367  0.00  0.00    -0.270 OA
ENDBRANCH  24  32
BRANCH  24  25
ATOM     25  C   UNL     1      -0.508   1.723  24.248  0.00  0.00    +0.057 C 
BRANCH  25  26
ATOM     26  C   UNL     1      -0.172   1.005  24.015  0.00  0.00    -0.020 A 
ATOM     27  C   UNL     1      -0.099   0.388  24.557  0.00  0.00    -0.004 A 
ATOM     28  C   UNL     1       0.236  -0.328  24.324  0.00  0.00    -0.000 A 
ATOM     29  C   UNL     1       0.499  -0.428  23.548  0.00  0.00    -0.000 A 
ATOM     30  C   UNL     1       0.425   0.189  23.006  0.00  0.00    -0.000 A 
ATOM     31  C   UNL     1       0.089   0.906  23.239  0.00  0.00    -0.004 A 
ENDBRANCH  25  26
ENDBRANCH  24  25
ENDBRANCH  23  24
ENDBRANCH  20  21
BRANCH   4   3
ATOM      3  C   UNL     1      -2.607   3.627  25.368  0.00  0.00    +0.143 C 
BRANCH   3   2
ATOM      1  C   UNL     1      -2.112   4.966  25.300  0.00  0.00    +0.070 C 
ATOM      2  S   UNL     1      -2.416   4.338  25.740  0.00  0.00    -0.130 S 
ENDBRANCH   3   2
ENDBRANCH   4   3
TORSDOF 9
ENDMDL
