MODEL 1
REMARK VINA RESULT:     -10.9      0.000      0.000
REMARK  Name = 
REMARK  5 active torsions:
REMARK  status: ('A' for Active; 'I' for Inactive)
REMARK    1  A    between atoms: C_3  and  C_4
REMARK    2  A    between atoms: C_4  and  N_5
REMARK    3  A    between atoms: C_6  and  C_8
REMARK    4  A    between atoms: C_17  and  N_18
REMARK    5  A    between atoms: N_18  and  C_19
REMARK                            x       y       z     vdW  Elec       q    Type
REMARK                         _______ _______ _______ _____ _____    ______ ____
ROOT
ATOM      1  O   UNL     1      -4.003   3.098  25.684  0.00  0.00    -0.219 OA
ATOM      2  C   UNL     1      -3.347   2.844  25.253  0.00  0.00    +0.199 C 
ATOM      3  C   UNL     1      -3.288   2.138  24.830  0.00  0.00    +0.169 C 
ATOM     15  O   UNL     1      -2.540   2.110  24.485  0.00  0.00    -0.350 OA
ATOM     16  C   UNL     1      -2.136   2.798  24.693  0.00  0.00    +0.162 C 
ATOM     17  C   UNL     1      -2.636   3.252  25.168  0.00  0.00    +0.135 C 
ENDROOT
BRANCH   3   4
ATOM      4  C   UNL     1      -3.874   1.561  24.765  0.00  0.00    +0.148 C 
BRANCH   4   5
ATOM      5  N   UNL     1      -3.668   0.763  24.747  0.00  0.00    -0.199 NA
ATOM      6  C   UNL     1      -4.257   0.184  24.741  0.00  0.00    +0.265 C 
ATOM      7  O   UNL     1      -5.051   0.405  24.753  0.00  0.00    -0.268 OA
BRANCH   6   8
ATOM      8  C   UNL     1      -4.050  -0.614  24.722  0.00  0.00    +0.055 A 
ATOM      9  C   UNL     1      -3.688  -0.962  25.376  0.00  0.00    +0.007 A 
ATOM     10  C   UNL     1      -3.482  -1.760  25.358  0.00  0.00    +0.030 A 
ATOM     11  C   UNL     1      -3.637  -2.211  24.684  0.00  0.00    +0.140 A 
ATOM     12  F   UNL     1      -3.432  -3.010  24.665  0.00  0.00    -0.204 F 
ATOM     13  C   UNL     1      -4.000  -1.863  24.030  0.00  0.00    +0.030 A 
ATOM     14  C   UNL     1      -4.206  -1.065  24.048  0.00  0.00    +0.007 A 
ENDBRANCH   6   8
ENDBRANCH   4   5
ENDBRANCH   3   4
BRANCH  17  18
ATOM     18  N   UNL     1      -2.454   3.985  25.500  0.00  0.00    -0.216 NA
BRANCH  18  19
ATOM     19  C   UNL     1      -1.773   4.387  25.265  0.00  0.00    +0.073 C 
ATOM     20  C   UNL     1      -1.619   5.107  24.893  0.00  0.00    +0.017 C 
ATOM     21  C   UNL     1      -0.809   4.954  24.933  0.00  0.00    +0.003 C 
ATOM     22  C   UNL     1      -0.963   4.235  25.305  0.00  0.00    +0.017 C 
ENDBRANCH  18  19
ENDBRANCH  17  18
TORSDOF 5
ENDMDL
MODEL 2
REMARK VINA RESULT:     -10.5      2.547      5.589
REMARK  Name = 
REMARK  5 active torsions:
REMARK  status: ('A' for Active; 'I' for Inactive)
REMARK    1  A    between atoms: C_3  and  C_4
REMARK    2  A    between atoms: C_4  and  N_5
REMARK    3  A    between atoms: C_6  and  C_8
REMARK    4  A    between atoms: C_17  and  N_18
REMARK    5  A    between atoms: N_18  and  C_19
REMARK                            x       y       z     vdW  Elec       q    Type
REMARK                         _______ _______ _______ _____ _____    ______ ____
ROOT
ATOM      1  O   UNL     1      -0.650  -0.641  25.348  0.00  0.00    -0.219 OA
ATOM      2  C   UNL     1      -1.385  -0.323  25.148  0.00  0.00    +0.199 C 
ATOM      3  C   UNL     1      -1.605   0.469  25.215  0.00  0.00    +0.169 C 
ATOM     15  O   UNL     1      -2.384   0.539  24.954  0.00  0.00    -0.350 OA
ATOM     16  C   UNL     1      -2.646  -0.209  24.725  0.00  0.00    +0.162 C 
ATOM     17  C   UNL     1      -2.028  -0.742  24.845  0.00  0.00    +0.135 C 
ENDROOT
BRANCH   3   4
ATOM      4  C   UNL     1      -1.130   1.082  25.494  0.00  0.00    +0.148 C 
BRANCH   4   5
ATOM      5  N   UNL     1      -1.337   1.866  25.344  0.00  0.00    -0.199 NA
ATOM      6  C   UNL     1      -0.892   2.481  25.668  0.00  0.00    +0.265 C 
ATOM      7  O   UNL     1      -0.239   2.311  26.144  0.00  0.00    -0.268 OA
BRANCH   6   8
ATOM      8  C   UNL     1      -1.099   3.265  25.518  0.00  0.00    +0.055 A 
ATOM      9  C   UNL     1      -1.790   3.579  25.842  0.00  0.00    +0.007 A 
ATOM     10  C   UNL     1      -1.997   4.363  25.691  0.00  0.00    +0.030 A 
ATOM     11  C   UNL     1      -1.513   4.834  25.217  0.00  0.00    +0.140 A 
ATOM     12  F   UNL     1      -1.720   5.618  25.065  0.00  0.00    -0.204 F 
ATOM     13  C   UNL     1      -0.822   4.519  24.893  0.00  0.00    +0.030 A 
ATOM     14  C   UNL     1      -0.615   3.736  25.043  0.00  0.00    +0.007 A 
ENDBRANCH   6   8
ENDBRANCH   4   5
ENDBRANCH   3   4
BRANCH  17  18
ATOM     18  N   UNL     1      -2.049  -1.552  24.690  0.00  0.00    -0.216 NA
BRANCH  18  19
ATOM     19  C   UNL     1      -2.773  -1.946  24.656  0.00  0.00    +0.073 C 
ATOM     20  C   UNL     1      -3.251  -2.337  25.205  0.00  0.00    +0.017 C 
ATOM     21  C   UNL     1      -3.797  -2.503  24.609  0.00  0.00    +0.003 C 
ATOM     22  C   UNL     1      -3.320  -2.113  24.062  0.00  0.00    +0.017 C 
ENDBRANCH  18  19
ENDBRANCH  17  18
TORSDOF 5
ENDMDL
MODEL 3
REMARK VINA RESULT:     -10.5      2.034      5.242
REMARK  Name = 
REMARK  5 active torsions:
REMARK  status: ('A' for Active; 'I' for Inactive)
REMARK    1  A    between atoms: C_3  and  C_4
REMARK    2  A    between atoms: C_4  and  N_5
REMARK    3  A    between atoms: C_6  and  C_8
REMARK    4  A    between atoms: C_17  and  N_18
REMARK    5  A    between atoms: N_18  and  C_19
REMARK                            x       y       z     vdW  Elec       q    Type
REMARK                         _______ _______ _______ _____ _____    ______ ____
ROOT
ATOM      1  O   UNL     1      -4.986   1.014  25.404  0.00  0.00    -0.219 OA
ATOM      2  C   UNL     1      -4.316   0.904  24.935  0.00  0.00    +0.199 C 
ATOM      3  C   UNL     1      -3.729   1.465  24.790  0.00  0.00    +0.169 C 
ATOM     15  O   UNL     1      -3.166   1.121  24.294  0.00  0.00    -0.350 OA
ATOM     16  C   UNL     1      -3.405   0.347  24.134  0.00  0.00    +0.162 C 
ATOM     17  C   UNL     1      -4.117   0.214  24.530  0.00  0.00    +0.135 C 
ENDROOT
BRANCH   3   4
ATOM      4  C   UNL     1      -3.708   2.234  25.087  0.00  0.00    +0.148 C 
BRANCH   4   5
ATOM      5  N   UNL     1      -3.035   2.699  24.981  0.00  0.00    -0.199 NA
ATOM      6  C   UNL     1      -2.966   3.421  25.375  0.00  0.00    +0.265 C 
ATOM      7  O   UNL     1      -3.571   3.677  25.875  0.00  0.00    -0.268 OA
BRANCH   6   8
ATOM      8  C   UNL     1      -2.294   3.886  25.270  0.00  0.00    +0.055 A 
ATOM      9  C   UNL     1      -2.367   4.700  25.164  0.00  0.00    +0.007 A 
ATOM     10  C   UNL     1      -1.694   5.165  25.059  0.00  0.00    +0.030 A 
ATOM     11  C   UNL     1      -0.947   4.816  25.060  0.00  0.00    +0.140 A 
ATOM     12  F   UNL     1      -0.273   5.280  24.954  0.00  0.00    -0.204 F 
ATOM     13  C   UNL     1      -0.873   4.001  25.166  0.00  0.00    +0.030 A 
ATOM     14  C   UNL     1      -1.546   3.536  25.271  0.00  0.00    +0.007 A 
ENDBRANCH   6   8
ENDBRANCH   4   5
ENDBRANCH   3   4
BRANCH  17  18
ATOM     18  N   UNL     1      -4.551  -0.487  24.523  0.00  0.00    -0.216 NA
BRANCH  18  19
ATOM     19  C   UNL     1      -4.167  -1.209  24.409  0.00  0.00    +0.073 C 
ATOM     20  C   UNL     1      -3.699  -1.701  24.879  0.00  0.00    +0.017 C 
ATOM     21  C   UNL     1      -3.625  -2.229  24.249  0.00  0.00    +0.003 C 
ATOM     22  C   UNL     1      -4.092  -1.737  23.780  0.00  0.00    +0.017 C 
ENDBRANCH  18  19
ENDBRANCH  17  18
TORSDOF 5
ENDMDL
MODEL 4
REMARK VINA RESULT:     -10.1      1.662      2.141
REMARK  Name = 
REMARK  5 active torsions:
REMARK  status: ('A' for Active; 'I' for Inactive)
REMARK    1  A    between atoms: C_3  and  C_4
REMARK    2  A    between atoms: C_4  and  N_5
REMARK    3  A    between atoms: C_6  and  C_8
REMARK    4  A    between atoms: C_17  and  N_18
REMARK    5  A    between atoms: N_18  and  C_19
REMARK                            x       y       z     vdW  Elec       q    Type
REMARK                         _______ _______ _______ _____ _____    ______ ____
ROOT
ATOM      1  O   UNL     1      -0.110   1.929  26.241  0.00  0.00    -0.219 OA
ATOM      2  C   UNL     1      -0.656   2.002  25.627  0.00  0.00    +0.199 C 
ATOM      3  C   UNL     1      -1.095   1.389  25.292  0.00  0.00    +0.169 C 
ATOM     15  O   UNL     1      -1.569   1.710  24.698  0.00  0.00    -0.350 OA
ATOM     16  C   UNL     1      -1.424   2.521  24.665  0.00  0.00    +0.162 C 
ATOM     17  C   UNL     1      -0.859   2.702  25.240  0.00  0.00    +0.135 C 
ENDROOT
BRANCH   3   4
ATOM      4  C   UNL     1      -1.065   0.595  25.513  0.00  0.00    +0.148 C 
BRANCH   4   5
ATOM      5  N   UNL     1      -1.661   0.077  25.274  0.00  0.00    -0.199 NA
ATOM      6  C   UNL     1      -1.630  -0.718  25.493  0.00  0.00    +0.265 C 
ATOM      7  O   UNL     1      -1.001  -0.995  25.951  0.00  0.00    -0.268 OA
BRANCH   6   8
ATOM      8  C   UNL     1      -2.226  -1.236  25.254  0.00  0.00    +0.055 A 
ATOM      9  C   UNL     1      -2.068  -1.812  24.686  0.00  0.00    +0.007 A 
ATOM     10  C   UNL     1      -2.664  -2.330  24.448  0.00  0.00    +0.030 A 
ATOM     11  C   UNL     1      -3.418  -2.271  24.777  0.00  0.00    +0.140 A 
ATOM     12  F   UNL     1      -4.015  -2.788  24.539  0.00  0.00    -0.204 F 
ATOM     13  C   UNL     1      -3.576  -1.694  25.346  0.00  0.00    +0.030 A 
ATOM     14  C   UNL     1      -2.980  -1.176  25.584  0.00  0.00    +0.007 A 
ENDBRANCH   6   8
ENDBRANCH   4   5
ENDBRANCH   3   4
BRANCH  17  18
ATOM     18  N   UNL     1      -0.552   3.450  25.398  0.00  0.00    -0.216 NA
BRANCH  18  19
ATOM     19  C   UNL     1      -1.021   4.120  25.288  0.00  0.00    +0.073 C 
ATOM     20  C   UNL     1      -1.757   4.371  25.568  0.00  0.00    +0.017 C 
ATOM     21  C   UNL     1      -1.685   5.067  25.132  0.00  0.00    +0.003 C 
ATOM     22  C   UNL     1      -0.950   4.817  24.853  0.00  0.00    +0.017 C 
ENDBRANCH  18  19
ENDBRANCH  17  18
TORSDOF 5
ENDMDL
MODEL 5
REMARK VINA RESULT:      -7.9     16.121     18.519
REMARK  Name = 
REMARK  5 active torsions:
REMARK  status: ('A' for Active; 'I' for Inactive)
REMARK    1  A    between atoms: C_3  and  C_4
REMARK    2  A    between atoms: C_4  and  N_5
REMARK    3  A    between atoms: C_6  and  C_8
REMARK    4  A    between atoms: C_17  and  N_18
REMARK    5  A    between atoms: N_18  and  C_19
REMARK                            x       y       z     vdW  Elec       q    Type
REMARK                         _______ _______ _______ _____ _____    ______ ____
ROOT
ATOM      1  O   UNL     1      14.321   7.472  18.323  0.00  0.00    -0.219 OA
ATOM      2  C   UNL     1      14.447   7.154  19.073  0.00  0.00    +0.199 C 
ATOM      3  C   UNL     1      13.869   7.021  19.647  0.00  0.00    +0.169 C 
ATOM     15  O   UNL     1      14.239   6.697  20.310  0.00  0.00    -0.350 OA
ATOM     16  C   UNL     1      15.045   6.631  20.146  0.00  0.00    +0.162 C 
ATOM     17  C   UNL     1      15.173   6.913  19.381  0.00  0.00    +0.135 C 
ENDROOT
BRANCH   3   4
ATOM      4  C   UNL     1      13.064   7.182  19.571  0.00  0.00    +0.148 C 
BRANCH   4   5
ATOM      5  N   UNL     1      12.606   7.319  20.243  0.00  0.00    -0.199 NA
ATOM      6  C   UNL     1      11.804   7.500  20.167  0.00  0.00    +0.265 C 
ATOM      7  O   UNL     1      11.462   7.545  19.417  0.00  0.00    -0.268 OA
BRANCH   6   8
ATOM      8  C   UNL     1      11.346   7.637  20.838  0.00  0.00    +0.055 A 
ATOM      9  C   UNL     1      11.041   7.001  21.266  0.00  0.00    +0.007 A 
ATOM     10  C   UNL     1      10.582   7.138  21.938  0.00  0.00    +0.030 A 
ATOM     11  C   UNL     1      10.428   7.911  22.182  0.00  0.00    +0.140 A 
ATOM     12  F   UNL     1       9.970   8.048  22.854  0.00  0.00    -0.204 F 
ATOM     13  C   UNL     1      10.734   8.547  21.754  0.00  0.00    +0.030 A 
ATOM     14  C   UNL     1      11.192   8.410  21.083  0.00  0.00    +0.007 A 
ENDBRANCH   6   8
ENDBRANCH   4   5
ENDBRANCH   3   4
BRANCH  17  18
ATOM     18  N   UNL     1      15.900   6.948  18.994  0.00  0.00    -0.216 NA
BRANCH  18  19
ATOM     19  C   UNL     1      16.523   6.468  19.242  0.00  0.00    +0.073 C 
ATOM     20  C   UNL     1      17.081   6.502  19.850  0.00  0.00    +0.017 C 
ATOM     21  C   UNL     1      17.405   5.788  19.593  0.00  0.00    +0.003 C 
ATOM     22  C   UNL     1      16.848   5.754  18.986  0.00  0.00    +0.017 C 
ENDBRANCH  18  19
ENDBRANCH  17  18
TORSDOF 5
ENDMDL
MODEL 6
REMARK VINA RESULT:      -7.1     17.825     19.018
REMARK  Name = 
REMARK  5 active torsions:
REMARK  status: ('A' for Active; 'I' for Inactive)
REMARK    1  A    between atoms: C_3  and  C_4
REMARK    2  A    between atoms: C_4  and  N_5
REMARK    3  A    between atoms: C_6  and  C_8
REMARK    4  A    between atoms: C_17  and  N_18
REMARK    5  A    between atoms: N_18  and  C_19
REMARK                            x       y       z     vdW  Elec       q    Type
REMARK                         _______ _______ _______ _____ _____    ______ ____
ROOT
ATOM      1  O   UNL     1      11.385   8.075  19.360  0.00  0.00    -0.219 OA
ATOM      2  C   UNL     1      11.900   7.977  18.723  0.00  0.00    +0.199 C 
ATOM      3  C   UNL     1      12.623   7.580  18.739  0.00  0.00    +0.169 C 
ATOM     15  O   UNL     1      12.951   7.617  17.983  0.00  0.00    -0.350 OA
ATOM     16  C   UNL     1      12.431   8.036  17.499  0.00  0.00    +0.162 C 
ATOM     17  C   UNL     1      11.781   8.259  17.957  0.00  0.00    +0.135 C 
ENDROOT
BRANCH   3   4
ATOM      4  C   UNL     1      12.959   7.211  19.396  0.00  0.00    +0.148 C 
BRANCH   4   5
ATOM      5  N   UNL     1      13.777   7.216  19.498  0.00  0.00    -0.199 NA
ATOM      6  C   UNL     1      14.109   6.904  20.186  0.00  0.00    +0.265 C 
ATOM      7  O   UNL     1      13.622   6.587  20.772  0.00  0.00    -0.268 OA
BRANCH   6   8
ATOM      8  C   UNL     1      14.928   6.908  20.289  0.00  0.00    +0.055 A 
ATOM      9  C   UNL     1      15.277   7.450  20.803  0.00  0.00    +0.007 A 
ATOM     10  C   UNL     1      16.095   7.454  20.905  0.00  0.00    +0.030 A 
ATOM     11  C   UNL     1      16.565   6.916  20.493  0.00  0.00    +0.140 A 
ATOM     12  F   UNL     1      17.384   6.919  20.594  0.00  0.00    -0.204 F 
ATOM     13  C   UNL     1      16.216   6.373  19.978  0.00  0.00    +0.030 A 
ATOM     14  C   UNL     1      15.397   6.369  19.876  0.00  0.00    +0.007 A 
ENDBRANCH   6   8
ENDBRANCH   4   5
ENDBRANCH   3   4
BRANCH  17  18
ATOM     18  N   UNL     1      11.128   8.687  17.694  0.00  0.00    -0.216 NA
BRANCH  18  19
ATOM     19  C   UNL     1      10.979   8.758  16.885  0.00  0.00    +0.073 C 
ATOM     20  C   UNL     1      10.361   8.540  16.383  0.00  0.00    +0.017 C 
ATOM     21  C   UNL     1      10.770   8.859  15.741  0.00  0.00    +0.003 C 
ATOM     22  C   UNL     1      11.387   9.077  16.242  0.00  0.00    +0.017 C 
ENDBRANCH  18  19
ENDBRANCH  17  18
TORSDOF 5
ENDMDL
