MODEL 1
REMARK VINA RESULT:      -9.5      0.000      0.000
REMARK  Name = 
REMARK  11 active torsions:
REMARK  status: ('A' for Active; 'I' for Inactive)
REMARK    1  A    between atoms: C_2  and  C_4
REMARK    2  A    between atoms: C_6  and  C_7
REMARK    3  A    between atoms: C_7  and  C_8
REMARK    4  A    between atoms: N_10  and  C_11
REMARK    5  A    between atoms: C_11  and  C_12
REMARK    6  A    between atoms: C_15  and  C_18
REMARK    7  A    between atoms: C_23  and  C_24
REMARK    8  A    between atoms: C_24  and  N_25
REMARK    9  A    between atoms: C_26  and  C_28
REMARK   10  A    between atoms: C_28  and  O_29
REMARK   11  A    between atoms: O_29  and  C_30
REMARK                            x       y       z     vdW  Elec       q    Type
REMARK                         _______ _______ _______ _____ _____    ______ ____
ROOT
ATOM      4  C   UNL     1      -0.727   0.625  23.976  0.00  0.00    +0.006 C 
ATOM      5  C   UNL     1      -1.379   0.399  24.426  0.00  0.00    +0.005 C 
ATOM      6  C   UNL     1      -1.461  -0.384  24.672  0.00  0.00    +0.027 C 
ATOM     20  C   UNL     1      -0.890  -0.943  24.465  0.00  0.00    -0.048 C 
ATOM     21  C   UNL     1      -0.971  -1.727  24.710  0.00  0.00    +0.026 C 
ATOM     22  C   UNL     1      -0.236  -0.717  24.014  0.00  0.00    -0.033 C 
ATOM     23  C   UNL     1      -0.155   0.066  23.769  0.00  0.00    +0.043 C 
ENDROOT
BRANCH   4   2
ATOM      1  C   UNL     1      -0.954   1.648  23.005  0.00  0.00    +0.000 C 
ATOM      2  C   UNL     1      -0.645   1.408  23.731  0.00  0.00    +0.000 C 
ATOM      3  C   UNL     1      -0.253   1.952  24.213  0.00  0.00    +0.000 C 
ENDBRANCH   4   2
BRANCH   6   7
ATOM      7  C   UNL     1      -2.114  -0.611  25.123  0.00  0.00    +0.091 C 
BRANCH   7   8
ATOM      8  C   UNL     1      -2.877  -0.477  24.841  0.00  0.00    +0.242 C 
ATOM      9  O   UNL     1      -3.209  -0.992  24.289  0.00  0.00    -0.273 OA
ATOM     10  N   UNL     1      -3.308   0.172  25.111  0.00  0.00    -0.201 NA
BRANCH  10  11
ATOM     11  C   UNL     1      -4.072   0.306  24.829  0.00  0.00    +0.141 C 
BRANCH  11  12
ATOM     12  C   UNL     1      -4.455   1.017  24.997  0.00  0.00    -0.001 A 
ATOM     13  C   UNL     1      -4.230   1.709  24.608  0.00  0.00    -0.002 A 
ATOM     14  C   UNL     1      -4.614   2.420  24.776  0.00  0.00    +0.010 A 
ATOM     15  C   UNL     1      -5.221   2.440  25.333  0.00  0.00    +0.068 A 
ATOM     16  C   UNL     1      -5.447   1.747  25.723  0.00  0.00    +0.010 A 
ATOM     17  C   UNL     1      -5.064   1.037  25.555  0.00  0.00    -0.002 A 
BRANCH  15  18
ATOM     18  C   UNL     1      -5.605   3.151  25.502  0.00  0.00    +0.100 C 
ATOM     19  N   UNL     1      -5.987   3.862  25.670  0.00  0.00    -0.191 NA
ENDBRANCH  15  18
ENDBRANCH  11  12
ENDBRANCH  10  11
ENDBRANCH   7   8
ENDBRANCH   6   7
BRANCH  23  24
ATOM     24  C   UNL     1       0.498   0.291  23.318  0.00  0.00    +0.120 C 
BRANCH  24  25
ATOM     25  N   UNL     1       1.252   0.025  23.524  0.00  0.00    -0.202 NA
ATOM     26  C   UNL     1       1.838  -0.037  22.947  0.00  0.00    +0.286 C 
ATOM     27  O   UNL     1       1.671   0.166  22.166  0.00  0.00    -0.269 OA
BRANCH  26  28
ATOM     28  C   UNL     1       2.592  -0.304  23.152  0.00  0.00    +0.291 C 
BRANCH  28  29
ATOM     29  O   UNL     1       3.257   0.026  22.793  0.00  0.00    -0.466 OA
BRANCH  29  30
ATOM     30  C   UNL     1       4.000  -0.059  23.144  0.00  0.00    +0.139 A 
ATOM     31  C   UNL     1       4.525   0.577  23.155  0.00  0.00    +0.037 A 
ATOM     32  C   UNL     1       5.268   0.492  23.505  0.00  0.00    +0.003 A 
ATOM     33  C   UNL     1       5.484  -0.229  23.844  0.00  0.00    +0.000 A 
ATOM     34  C   UNL     1       4.958  -0.864  23.833  0.00  0.00    +0.003 A 
ATOM     35  C   UNL     1       4.216  -0.779  23.483  0.00  0.00    +0.037 A 
ENDBRANCH  29  30
ENDBRANCH  28  29
ENDBRANCH  26  28
ENDBRANCH  24  25
ENDBRANCH  23  24
TORSDOF 11
ENDMDL
MODEL 2
REMARK VINA RESULT:      -9.2      1.127      7.418
REMARK  Name = 
REMARK  11 active torsions:
REMARK  status: ('A' for Active; 'I' for Inactive)
REMARK    1  A    between atoms: C_2  and  C_4
REMARK    2  A    between atoms: C_6  and  C_7
REMARK    3  A    between atoms: C_7  and  C_8
REMARK    4  A    between atoms: N_10  and  C_11
REMARK    5  A    between atoms: C_11  and  C_12
REMARK    6  A    between atoms: C_15  and  C_18
REMARK    7  A    between atoms: C_23  and  C_24
REMARK    8  A    between atoms: C_24  and  N_25
REMARK    9  A    between atoms: C_26  and  C_28
REMARK   10  A    between atoms: C_28  and  O_29
REMARK   11  A    between atoms: O_29  and  C_30
REMARK                            x       y       z     vdW  Elec       q    Type
REMARK                         _______ _______ _______ _____ _____    ______ ____
ROOT
ATOM      4  C   UNL     1      -1.008  -0.475  24.486  0.00  0.00    +0.006 C 
ATOM      5  C   UNL     1      -0.299  -0.150  24.219  0.00  0.00    +0.005 C 
ATOM      6  C   UNL     1      -0.284   0.616  23.914  0.00  0.00    +0.027 C 
ATOM     20  C   UNL     1      -0.980   1.058  23.875  0.00  0.00    -0.048 C 
ATOM     21  C   UNL     1      -0.966   1.825  23.570  0.00  0.00    +0.026 C 
ATOM     22  C   UNL     1      -1.690   0.733  24.142  0.00  0.00    -0.033 C 
ATOM     23  C   UNL     1      -1.704  -0.034  24.447  0.00  0.00    +0.043 C 
ENDROOT
BRANCH   4   2
ATOM      1  C   UNL     1      -1.247  -1.873  24.310  0.00  0.00    +0.000 C 
ATOM      2  C   UNL     1      -1.022  -1.241  24.791  0.00  0.00    +0.000 C 
ATOM      3  C   UNL     1      -0.812  -1.376  25.578  0.00  0.00    +0.000 C 
ENDBRANCH   4   2
BRANCH   6   7
ATOM      7  C   UNL     1       0.426   0.942  23.647  0.00  0.00    +0.091 C 
BRANCH   7   8
ATOM      8  C   UNL     1       0.924   0.503  23.158  0.00  0.00    +0.242 C 
ATOM      9  O   UNL     1       0.604   0.028  22.565  0.00  0.00    -0.273 OA
ATOM     10  N   UNL     1       1.740   0.539  23.262  0.00  0.00    -0.201 NA
BRANCH  10  11
ATOM     11  C   UNL     1       2.239   0.099  22.773  0.00  0.00    +0.141 C 
BRANCH  11  12
ATOM     12  C   UNL     1       3.052   0.091  22.912  0.00  0.00    -0.001 A 
ATOM     13  C   UNL     1       3.406  -0.574  23.249  0.00  0.00    -0.002 A 
ATOM     14  C   UNL     1       4.220  -0.582  23.388  0.00  0.00    +0.010 A 
ATOM     15  C   UNL     1       4.678   0.074  23.190  0.00  0.00    +0.068 A 
ATOM     16  C   UNL     1       4.324   0.739  22.852  0.00  0.00    +0.010 A 
ATOM     17  C   UNL     1       3.511   0.747  22.713  0.00  0.00    -0.002 A 
BRANCH  15  18
ATOM     18  C   UNL     1       5.492   0.066  23.329  0.00  0.00    +0.100 C 
ATOM     19  N   UNL     1       6.305   0.058  23.468  0.00  0.00    -0.191 NA
ENDBRANCH  15  18
ENDBRANCH  11  12
ENDBRANCH  10  11
ENDBRANCH   7   8
ENDBRANCH   6   7
BRANCH  23  24
ATOM     24  C   UNL     1      -2.414  -0.358  24.713  0.00  0.00    +0.120 C 
BRANCH  24  25
ATOM     25  N   UNL     1      -3.000   0.133  25.025  0.00  0.00    -0.202 NA
ATOM     26  C   UNL     1      -3.793  -0.088  24.972  0.00  0.00    +0.286 C 
ATOM     27  O   UNL     1      -4.000  -0.798  24.609  0.00  0.00    -0.269 OA
BRANCH  26  28
ATOM     28  C   UNL     1      -4.379   0.403  25.283  0.00  0.00    +0.291 C 
BRANCH  28  29
ATOM     29  O   UNL     1      -4.819   0.888  24.782  0.00  0.00    -0.466 OA
BRANCH  29  30
ATOM     30  C   UNL     1      -5.152   1.586  25.071  0.00  0.00    +0.139 A 
ATOM     31  C   UNL     1      -4.866   2.316  24.815  0.00  0.00    +0.037 A 
ATOM     32  C   UNL     1      -5.198   3.014  25.104  0.00  0.00    +0.003 A 
ATOM     33  C   UNL     1      -5.817   2.982  25.649  0.00  0.00    +0.000 A 
ATOM     34  C   UNL     1      -6.103   2.251  25.905  0.00  0.00    +0.003 A 
ATOM     35  C   UNL     1      -5.771   1.554  25.616  0.00  0.00    +0.037 A 
ENDBRANCH  29  30
ENDBRANCH  28  29
ENDBRANCH  26  28
ENDBRANCH  24  25
ENDBRANCH  23  24
TORSDOF 11
ENDMDL
MODEL 3
REMARK VINA RESULT:      -9.1      1.545      2.399
REMARK  Name = 
REMARK  11 active torsions:
REMARK  status: ('A' for Active; 'I' for Inactive)
REMARK    1  A    between atoms: C_2  and  C_4
REMARK    2  A    between atoms: C_6  and  C_7
REMARK    3  A    between atoms: C_7  and  C_8
REMARK    4  A    between atoms: N_10  and  C_11
REMARK    5  A    between atoms: C_11  and  C_12
REMARK    6  A    between atoms: C_15  and  C_18
REMARK    7  A    between atoms: C_23  and  C_24
REMARK    8  A    between atoms: C_24  and  N_25
REMARK    9  A    between atoms: C_26  and  C_28
REMARK   10  A    between atoms: C_28  and  O_29
REMARK   11  A    between atoms: O_29  and  C_30
REMARK                            x       y       z     vdW  Elec       q    Type
REMARK                         _______ _______ _______ _____ _____    ______ ____
ROOT
ATOM      4  C   UNL     1      -0.888   1.245  24.825  0.00  0.00    +0.006 C 
ATOM      5  C   UNL     1      -1.267   1.836  25.256  0.00  0.00    +0.005 C 
ATOM      6  C   UNL     1      -0.936   2.591  25.303  0.00  0.00    +0.027 C 
ATOM     20  C   UNL     1      -0.224   2.752  24.917  0.00  0.00    -0.048 C 
ATOM     21  C   UNL     1       0.108   3.507  24.964  0.00  0.00    +0.026 C 
ATOM     22  C   UNL     1       0.156   2.160  24.486  0.00  0.00    -0.033 C 
ATOM     23  C   UNL     1      -0.177   1.406  24.440  0.00  0.00    +0.043 C 
ENDROOT
BRANCH   4   2
ATOM      1  C   UNL     1      -1.724   0.299  24.154  0.00  0.00    +0.000 C 
ATOM      2  C   UNL     1      -1.220   0.491  24.779  0.00  0.00    +0.000 C 
ATOM      3  C   UNL     1      -1.047  -0.072  25.358  0.00  0.00    +0.000 C 
ENDBRANCH   4   2
BRANCH   6   7
ATOM      7  C   UNL     1      -1.315   3.183  25.734  0.00  0.00    +0.091 C 
BRANCH   7   8
ATOM      8  C   UNL     1      -1.979   3.559  25.424  0.00  0.00    +0.242 C 
ATOM      9  O   UNL     1      -1.890   4.218  24.935  0.00  0.00    -0.273 OA
ATOM     10  N   UNL     1      -2.733   3.276  25.601  0.00  0.00    -0.201 NA
BRANCH  10  11
ATOM     11  C   UNL     1      -3.399   3.652  25.291  0.00  0.00    +0.141 C 
BRANCH  11  12
ATOM     12  C   UNL     1      -4.112   3.244  25.228  0.00  0.00    -0.001 A 
ATOM     13  C   UNL     1      -4.307   2.859  24.524  0.00  0.00    -0.002 A 
ATOM     14  C   UNL     1      -5.021   2.450  24.461  0.00  0.00    +0.010 A 
ATOM     15  C   UNL     1      -5.540   2.425  25.102  0.00  0.00    +0.068 A 
ATOM     16  C   UNL     1      -5.345   2.810  25.806  0.00  0.00    +0.010 A 
ATOM     17  C   UNL     1      -4.632   3.218  25.869  0.00  0.00    -0.002 A 
BRANCH  15  18
ATOM     18  C   UNL     1      -6.254   2.016  25.039  0.00  0.00    +0.100 C 
ATOM     19  N   UNL     1      -6.968   1.608  24.978  0.00  0.00    -0.191 NA
ENDBRANCH  15  18
ENDBRANCH  11  12
ENDBRANCH  10  11
ENDBRANCH   7   8
ENDBRANCH   6   7
BRANCH  23  24
ATOM     24  C   UNL     1       0.203   0.815  24.008  0.00  0.00    +0.120 C 
BRANCH  24  25
ATOM     25  N   UNL     1       0.981   0.926  23.753  0.00  0.00    -0.202 NA
ATOM     26  C   UNL     1       1.313   0.404  23.207  0.00  0.00    +0.286 C 
ATOM     27  O   UNL     1       0.870  -0.227  22.916  0.00  0.00    -0.269 OA
BRANCH  26  28
ATOM     28  C   UNL     1       2.090   0.515  22.951  0.00  0.00    +0.291 C 
BRANCH  28  29
ATOM     29  O   UNL     1       2.624  -0.113  22.972  0.00  0.00    -0.466 OA
BRANCH  29  30
ATOM     30  C   UNL     1       3.433   0.036  23.038  0.00  0.00    +0.139 A 
ATOM     31  C   UNL     1       3.925  -0.519  23.401  0.00  0.00    +0.037 A 
ATOM     32  C   UNL     1       4.735  -0.370  23.468  0.00  0.00    +0.003 A 
ATOM     33  C   UNL     1       5.051   0.332  23.172  0.00  0.00    +0.000 A 
ATOM     34  C   UNL     1       4.558   0.886  22.810  0.00  0.00    +0.003 A 
ATOM     35  C   UNL     1       3.750   0.738  22.743  0.00  0.00    +0.037 A 
ENDBRANCH  29  30
ENDBRANCH  28  29
ENDBRANCH  26  28
ENDBRANCH  24  25
ENDBRANCH  23  24
TORSDOF 11
ENDMDL
MODEL 4
REMARK VINA RESULT:      -9.1      2.521      4.648
REMARK  Name = 
REMARK  11 active torsions:
REMARK  status: ('A' for Active; 'I' for Inactive)
REMARK    1  A    between atoms: C_2  and  C_4
REMARK    2  A    between atoms: C_6  and  C_7
REMARK    3  A    between atoms: C_7  and  C_8
REMARK    4  A    between atoms: N_10  and  C_11
REMARK    5  A    between atoms: C_11  and  C_12
REMARK    6  A    between atoms: C_15  and  C_18
REMARK    7  A    between atoms: C_23  and  C_24
REMARK    8  A    between atoms: C_24  and  N_25
REMARK    9  A    between atoms: C_26  and  C_28
REMARK   10  A    between atoms: C_28  and  O_29
REMARK   11  A    between atoms: O_29  and  C_30
REMARK                            x       y       z     vdW  Elec       q    Type
REMARK                         _______ _______ _______ _____ _____    ______ ____
ROOT
ATOM      4  C   UNL     1      -0.308   1.634  24.394  0.00  0.00    +0.006 C 
ATOM      5  C   UNL     1      -0.323   2.434  24.591  0.00  0.00    +0.005 C 
ATOM      6  C   UNL     1      -0.325   2.665  25.383  0.00  0.00    +0.027 C 
ATOM     20  C   UNL     1      -0.312   2.094  25.979  0.00  0.00    -0.048 C 
ATOM     21  C   UNL     1      -0.314   2.324  26.772  0.00  0.00    +0.026 C 
ATOM     22  C   UNL     1      -0.296   1.292  25.782  0.00  0.00    -0.033 C 
ATOM     23  C   UNL     1      -0.295   1.063  24.989  0.00  0.00    +0.043 C 
ENDROOT
BRANCH   4   2
ATOM      1  C   UNL     1      -1.005   1.426  23.164  0.00  0.00    +0.000 C 
ATOM      2  C   UNL     1      -0.306   1.404  23.602  0.00  0.00    +0.000 C 
ATOM      3  C   UNL     1       0.396   1.152  23.247  0.00  0.00    +0.000 C 
ENDBRANCH   4   2
BRANCH   6   7
ATOM      7  C   UNL     1      -0.340   3.466  25.581  0.00  0.00    +0.091 C 
BRANCH   7   8
ATOM      8  C   UNL     1      -0.946   3.949  25.299  0.00  0.00    +0.242 C 
ATOM      9  O   UNL     1      -0.779   4.537  24.745  0.00  0.00    -0.273 OA
ATOM     10  N   UNL     1      -1.717   3.846  25.571  0.00  0.00    -0.201 NA
BRANCH  10  11
ATOM     11  C   UNL     1      -2.323   4.329  25.289  0.00  0.00    +0.141 C 
BRANCH  11  12
ATOM     12  C   UNL     1      -3.107   4.082  25.341  0.00  0.00    -0.001 A 
ATOM     13  C   UNL     1      -3.481   4.047  26.077  0.00  0.00    -0.002 A 
ATOM     14  C   UNL     1      -4.267   3.799  26.129  0.00  0.00    +0.010 A 
ATOM     15  C   UNL     1      -4.678   3.585  25.447  0.00  0.00    +0.068 A 
ATOM     16  C   UNL     1      -4.304   3.620  24.712  0.00  0.00    +0.010 A 
ATOM     17  C   UNL     1      -3.520   3.867  24.659  0.00  0.00    -0.002 A 
BRANCH  15  18
ATOM     18  C   UNL     1      -5.463   3.337  25.499  0.00  0.00    +0.100 C 
ATOM     19  N   UNL     1      -6.248   3.089  25.553  0.00  0.00    -0.191 NA
ENDBRANCH  15  18
ENDBRANCH  11  12
ENDBRANCH  10  11
ENDBRANCH   7   8
ENDBRANCH   6   7
BRANCH  23  24
ATOM     24  C   UNL     1      -0.279   0.262  24.793  0.00  0.00    +0.120 C 
BRANCH  24  25
ATOM     25  N   UNL     1      -0.961  -0.196  24.878  0.00  0.00    -0.202 NA
ATOM     26  C   UNL     1      -0.899  -1.014  24.969  0.00  0.00    +0.286 C 
ATOM     27  O   UNL     1      -0.157  -1.373  24.976  0.00  0.00    -0.269 OA
BRANCH  26  28
ATOM     28  C   UNL     1      -1.581  -1.472  25.054  0.00  0.00    +0.291 C 
BRANCH  28  29
ATOM     29  O   UNL     1      -1.862  -1.914  24.417  0.00  0.00    -0.466 OA
BRANCH  29  30
ATOM     30  C   UNL     1      -2.663  -2.109  24.372  0.00  0.00    +0.139 A 
ATOM     31  C   UNL     1      -3.202  -1.567  24.062  0.00  0.00    +0.037 A 
ATOM     32  C   UNL     1      -4.003  -1.762  24.017  0.00  0.00    +0.003 A 
ATOM     33  C   UNL     1      -4.264  -2.498  24.282  0.00  0.00    +0.000 A 
ATOM     34  C   UNL     1      -3.724  -3.040  24.592  0.00  0.00    +0.003 A 
ATOM     35  C   UNL     1      -2.924  -2.845  24.637  0.00  0.00    +0.037 A 
ENDBRANCH  29  30
ENDBRANCH  28  29
ENDBRANCH  26  28
ENDBRANCH  24  25
ENDBRANCH  23  24
TORSDOF 11
ENDMDL
MODEL 5
REMARK VINA RESULT:      -9.0      1.663      7.349
REMARK  Name = 
REMARK  11 active torsions:
REMARK  status: ('A' for Active; 'I' for Inactive)
REMARK    1  A    between atoms: C_2  and  C_4
REMARK    2  A    between atoms: C_6  and  C_7
REMARK    3  A    between atoms: C_7  and  C_8
REMARK    4  A    between atoms: N_10  and  C_11
REMARK    5  A    between atoms: C_11  and  C_12
REMARK    6  A    between atoms: C_15  and  C_18
REMARK    7  A    between atoms: C_23  and  C_24
REMARK    8  A    between atoms: C_24  and  N_25
REMARK    9  A    between atoms: C_26  and  C_28
REMARK   10  A    between atoms: C_28  and  O_29
REMARK   11  A    between atoms: O_29  and  C_30
REMARK                            x       y       z     vdW  Elec       q    Type
REMARK                         _______ _______ _______ _____ _____    ______ ____
ROOT
ATOM      4  C   UNL     1      -0.408   2.011  24.472  0.00  0.00    +0.006 C 
ATOM      5  C   UNL     1       0.036   1.358  24.234  0.00  0.00    +0.005 C 
ATOM      6  C   UNL     1      -0.337   0.639  24.077  0.00  0.00    +0.027 C 
ATOM     20  C   UNL     1      -1.155   0.574  24.158  0.00  0.00    -0.048 C 
ATOM     21  C   UNL     1      -1.529  -0.145  24.001  0.00  0.00    +0.026 C 
ATOM     22  C   UNL     1      -1.601   1.227  24.396  0.00  0.00    -0.033 C 
ATOM     23  C   UNL     1      -1.227   1.945  24.552  0.00  0.00    +0.043 C 
ENDROOT
BRANCH   4   2
ATOM      1  C   UNL     1       0.254   2.888  25.385  0.00  0.00    +0.000 C 
ATOM      2  C   UNL     1      -0.035   2.729  24.629  0.00  0.00    +0.000 C 
ATOM      3  C   UNL     1       0.049   3.290  24.029  0.00  0.00    +0.000 C 
ENDBRANCH   4   2
BRANCH   6   7
ATOM      7  C   UNL     1       0.107  -0.014  23.839  0.00  0.00    +0.091 C 
BRANCH   7   8
ATOM      8  C   UNL     1       0.633   0.052  23.208  0.00  0.00    +0.242 C 
ATOM      9  O   UNL     1       0.346   0.146  22.440  0.00  0.00    -0.273 OA
ATOM     10  N   UNL     1       1.446   0.023  23.343  0.00  0.00    -0.201 NA
BRANCH  10  11
ATOM     11  C   UNL     1       1.972   0.089  22.711  0.00  0.00    +0.141 C 
BRANCH  11  12
ATOM     12  C   UNL     1       2.784   0.114  22.851  0.00  0.00    -0.001 A 
ATOM     13  C   UNL     1       3.173  -0.551  23.149  0.00  0.00    -0.002 A 
ATOM     14  C   UNL     1       3.986  -0.526  23.289  0.00  0.00    +0.010 A 
ATOM     15  C   UNL     1       4.410   0.163  23.132  0.00  0.00    +0.068 A 
ATOM     16  C   UNL     1       4.022   0.828  22.834  0.00  0.00    +0.010 A 
ATOM     17  C   UNL     1       3.210   0.803  22.694  0.00  0.00    -0.002 A 
BRANCH  15  18
ATOM     18  C   UNL     1       5.223   0.189  23.272  0.00  0.00    +0.100 C 
ATOM     19  N   UNL     1       6.035   0.216  23.412  0.00  0.00    -0.191 NA
ENDBRANCH  15  18
ENDBRANCH  11  12
ENDBRANCH  10  11
ENDBRANCH   7   8
ENDBRANCH   6   7
BRANCH  23  24
ATOM     24  C   UNL     1      -1.672   2.598  24.790  0.00  0.00    +0.120 C 
BRANCH  24  25
ATOM     25  N   UNL     1      -2.421   2.488  25.118  0.00  0.00    -0.202 NA
ATOM     26  C   UNL     1      -2.959   3.113  25.135  0.00  0.00    +0.286 C 
ATOM     27  O   UNL     1      -2.749   3.846  24.825  0.00  0.00    -0.269 OA
BRANCH  26  28
ATOM     28  C   UNL     1      -3.709   3.003  25.464  0.00  0.00    +0.291 C 
BRANCH  28  29
ATOM     29  O   UNL     1      -4.379   3.052  24.986  0.00  0.00    -0.466 OA
BRANCH  29  30
ATOM     30  C   UNL     1      -5.066   2.644  25.196  0.00  0.00    +0.139 A 
ATOM     31  C   UNL     1      -5.376   2.072  24.689  0.00  0.00    +0.037 A 
ATOM     32  C   UNL     1      -6.063   1.664  24.899  0.00  0.00    +0.003 A 
ATOM     33  C   UNL     1      -6.438   1.830  25.615  0.00  0.00    +0.000 A 
ATOM     34  C   UNL     1      -6.127   2.403  26.120  0.00  0.00    +0.003 A 
ATOM     35  C   UNL     1      -5.441   2.810  25.911  0.00  0.00    +0.037 A 
ENDBRANCH  29  30
ENDBRANCH  28  29
ENDBRANCH  26  28
ENDBRANCH  24  25
ENDBRANCH  23  24
TORSDOF 11
ENDMDL
MODEL 6
REMARK VINA RESULT:      -8.8      2.004      3.414
REMARK  Name = 
REMARK  11 active torsions:
REMARK  status: ('A' for Active; 'I' for Inactive)
REMARK    1  A    between atoms: C_2  and  C_4
REMARK    2  A    between atoms: C_6  and  C_7
REMARK    3  A    between atoms: C_7  and  C_8
REMARK    4  A    between atoms: N_10  and  C_11
REMARK    5  A    between atoms: C_11  and  C_12
REMARK    6  A    between atoms: C_15  and  C_18
REMARK    7  A    between atoms: C_23  and  C_24
REMARK    8  A    between atoms: C_24  and  N_25
REMARK    9  A    between atoms: C_26  and  C_28
REMARK   10  A    between atoms: C_28  and  O_29
REMARK   11  A    between atoms: O_29  and  C_30
REMARK                            x       y       z     vdW  Elec       q    Type
REMARK                         _______ _______ _______ _____ _____    ______ ____
ROOT
ATOM      4  C   UNL     1      -2.028   3.003  24.845  0.00  0.00    +0.006 C 
ATOM      5  C   UNL     1      -2.829   2.884  24.694  0.00  0.00    +0.005 C 
ATOM      6  C   UNL     1      -3.069   2.526  23.990  0.00  0.00    +0.027 C 
ATOM     20  C   UNL     1      -2.505   2.287  23.437  0.00  0.00    -0.048 C 
ATOM     21  C   UNL     1      -2.743   1.929  22.732  0.00  0.00    +0.026 C 
ATOM     22  C   UNL     1      -1.702   2.407  23.588  0.00  0.00    -0.033 C 
ATOM     23  C   UNL     1      -1.464   2.765  24.292  0.00  0.00    +0.043 C 
ENDROOT
BRANCH   4   2
ATOM      1  C   UNL     1      -1.690   4.179  25.583  0.00  0.00    +0.000 C 
ATOM      2  C   UNL     1      -1.789   3.360  25.549  0.00  0.00    +0.000 C 
ATOM      3  C   UNL     1      -1.650   2.899  26.220  0.00  0.00    +0.000 C 
ENDBRANCH   4   2
BRANCH   6   7
ATOM      7  C   UNL     1      -3.871   2.406  23.838  0.00  0.00    +0.091 C 
BRANCH   7   8
ATOM      8  C   UNL     1      -4.298   1.860  24.284  0.00  0.00    +0.242 C 
ATOM      9  O   UNL     1      -4.894   2.118  24.792  0.00  0.00    -0.273 OA
ATOM     10  N   UNL     1      -4.131   1.055  24.221  0.00  0.00    -0.201 NA
BRANCH  10  11
ATOM     11  C   UNL     1      -4.558   0.508  24.667  0.00  0.00    +0.141 C 
BRANCH  11  12
ATOM     12  C   UNL     1      -4.315  -0.279  24.698  0.00  0.00    -0.001 A 
ATOM     13  C   UNL     1      -4.477  -0.787  24.067  0.00  0.00    -0.002 A 
ATOM     14  C   UNL     1      -4.233  -1.574  24.098  0.00  0.00    +0.010 A 
ATOM     15  C   UNL     1      -3.829  -1.855  24.760  0.00  0.00    +0.068 A 
ATOM     16  C   UNL     1      -3.668  -1.348  25.391  0.00  0.00    +0.010 A 
ATOM     17  C   UNL     1      -3.911  -0.561  25.360  0.00  0.00    -0.002 A 
BRANCH  15  18
ATOM     18  C   UNL     1      -3.586  -2.643  24.791  0.00  0.00    +0.100 C 
ATOM     19  N   UNL     1      -3.341  -3.430  24.824  0.00  0.00    -0.191 NA
ENDBRANCH  15  18
ENDBRANCH  11  12
ENDBRANCH  10  11
ENDBRANCH   7   8
ENDBRANCH   6   7
BRANCH  23  24
ATOM     24  C   UNL     1      -0.662   2.884  24.442  0.00  0.00    +0.120 C 
BRANCH  24  25
ATOM     25  N   UNL     1      -0.095   2.554  23.941  0.00  0.00    -0.202 NA
ATOM     26  C   UNL     1       0.622   2.288  24.249  0.00  0.00    +0.286 C 
ATOM     27  O   UNL     1       0.773   2.351  25.056  0.00  0.00    -0.269 OA
BRANCH  26  28
ATOM     28  C   UNL     1       1.189   1.957  23.747  0.00  0.00    +0.291 C 
BRANCH  28  29
ATOM     29  O   UNL     1       1.446   1.183  23.869  0.00  0.00    -0.466 OA
BRANCH  29  30
ATOM     30  C   UNL     1       1.912   0.809  23.300  0.00  0.00    +0.139 A 
ATOM     31  C   UNL     1       2.694   1.047  23.187  0.00  0.00    +0.037 A 
ATOM     32  C   UNL     1       3.160   0.673  22.617  0.00  0.00    +0.003 A 
ATOM     33  C   UNL     1       2.845   0.062  22.162  0.00  0.00    +0.000 A 
ATOM     34  C   UNL     1       2.063  -0.176  22.277  0.00  0.00    +0.003 A 
ATOM     35  C   UNL     1       1.597   0.197  22.845  0.00  0.00    +0.037 A 
ENDBRANCH  29  30
ENDBRANCH  28  29
ENDBRANCH  26  28
ENDBRANCH  24  25
ENDBRANCH  23  24
TORSDOF 11
ENDMDL
MODEL 7
REMARK VINA RESULT:      -8.4      2.845      6.395
REMARK  Name = 
REMARK  11 active torsions:
REMARK  status: ('A' for Active; 'I' for Inactive)
REMARK    1  A    between atoms: C_2  and  C_4
REMARK    2  A    between atoms: C_6  and  C_7
REMARK    3  A    between atoms: C_7  and  C_8
REMARK    4  A    between atoms: N_10  and  C_11
REMARK    5  A    between atoms: C_11  and  C_12
REMARK    6  A    between atoms: C_15  and  C_18
REMARK    7  A    between atoms: C_23  and  C_24
REMARK    8  A    between atoms: C_24  and  N_25
REMARK    9  A    between atoms: C_26  and  C_28
REMARK   10  A    between atoms: C_28  and  O_29
REMARK   11  A    between atoms: O_29  and  C_30
REMARK                            x       y       z     vdW  Elec       q    Type
REMARK                         _______ _______ _______ _____ _____    ______ ____
ROOT
ATOM      4  C   UNL     1      -3.715   3.363  24.382  0.00  0.00    +0.006 C 
ATOM      5  C   UNL     1      -3.185   3.947  24.625  0.00  0.00    +0.005 C 
ATOM      6  C   UNL     1      -3.055   4.078  25.430  0.00  0.00    +0.027 C 
ATOM     20  C   UNL     1      -3.456   3.624  25.991  0.00  0.00    -0.048 C 
ATOM     21  C   UNL     1      -3.326   3.755  26.796  0.00  0.00    +0.026 C 
ATOM     22  C   UNL     1      -3.986   3.040  25.747  0.00  0.00    -0.033 C 
ATOM     23  C   UNL     1      -4.115   2.910  24.943  0.00  0.00    +0.043 C 
ENDROOT
BRANCH   4   2
ATOM      1  C   UNL     1      -3.369   2.700  23.164  0.00  0.00    +0.000 C 
ATOM      2  C   UNL     1      -3.844   3.233  23.578  0.00  0.00    +0.000 C 
ATOM      3  C   UNL     1      -4.450   3.636  23.187  0.00  0.00    +0.000 C 
ENDBRANCH   4   2
BRANCH   6   7
ATOM      7  C   UNL     1      -2.525   4.661  25.673  0.00  0.00    +0.091 C 
BRANCH   7   8
ATOM      8  C   UNL     1      -1.747   4.653  25.400  0.00  0.00    +0.242 C 
ATOM      9  O   UNL     1      -1.433   5.320  25.030  0.00  0.00    -0.273 OA
ATOM     10  N   UNL     1      -1.283   3.979  25.496  0.00  0.00    -0.201 NA
BRANCH  10  11
ATOM     11  C   UNL     1      -0.505   3.970  25.223  0.00  0.00    +0.141 C 
BRANCH  11  12
ATOM     12  C   UNL     1      -0.181   3.275  24.921  0.00  0.00    -0.001 A 
ATOM     13  C   UNL     1      -0.059   2.626  25.418  0.00  0.00    -0.002 A 
ATOM     14  C   UNL     1       0.265   1.930  25.115  0.00  0.00    +0.010 A 
ATOM     15  C   UNL     1       0.468   1.882  24.317  0.00  0.00    +0.068 A 
ATOM     16  C   UNL     1       0.346   2.530  23.820  0.00  0.00    +0.010 A 
ATOM     17  C   UNL     1       0.022   3.226  24.122  0.00  0.00    -0.002 A 
BRANCH  15  18
ATOM     18  C   UNL     1       0.792   1.186  24.015  0.00  0.00    +0.100 C 
ATOM     19  N   UNL     1       1.118   0.491  23.712  0.00  0.00    -0.191 NA
ENDBRANCH  15  18
ENDBRANCH  11  12
ENDBRANCH  10  11
ENDBRANCH   7   8
ENDBRANCH   6   7
BRANCH  23  24
ATOM     24  C   UNL     1      -4.645   2.327  24.701  0.00  0.00    +0.120 C 
BRANCH  24  25
ATOM     25  N   UNL     1      -4.452   1.530  24.795  0.00  0.00    -0.202 NA
ATOM     26  C   UNL     1      -5.050   0.965  24.858  0.00  0.00    +0.286 C 
ATOM     27  O   UNL     1      -5.840   1.197  24.828  0.00  0.00    -0.269 OA
BRANCH  26  28
ATOM     28  C   UNL     1      -4.857   0.168  24.952  0.00  0.00    +0.291 C 
BRANCH  28  29
ATOM     29  O   UNL     1      -4.399  -0.214  24.383  0.00  0.00    -0.466 OA
BRANCH  29  30
ATOM     30  C   UNL     1      -4.127  -0.982  24.520  0.00  0.00    +0.139 A 
ATOM     31  C   UNL     1      -4.284  -1.578  23.972  0.00  0.00    +0.037 A 
ATOM     32  C   UNL     1      -4.012  -2.346  24.110  0.00  0.00    +0.003 A 
ATOM     33  C   UNL     1      -3.583  -2.515  24.794  0.00  0.00    +0.000 A 
ATOM     34  C   UNL     1      -3.427  -1.918  25.341  0.00  0.00    +0.003 A 
ATOM     35  C   UNL     1      -3.699  -1.151  25.204  0.00  0.00    +0.037 A 
ENDBRANCH  29  30
ENDBRANCH  28  29
ENDBRANCH  26  28
ENDBRANCH  24  25
ENDBRANCH  23  24
TORSDOF 11
ENDMDL
MODEL 8
REMARK VINA RESULT:      -8.4      2.552      6.257
REMARK  Name = 
REMARK  11 active torsions:
REMARK  status: ('A' for Active; 'I' for Inactive)
REMARK    1  A    between atoms: C_2  and  C_4
REMARK    2  A    between atoms: C_6  and  C_7
REMARK    3  A    between atoms: C_7  and  C_8
REMARK    4  A    between atoms: N_10  and  C_11
REMARK    5  A    between atoms: C_11  and  C_12
REMARK    6  A    between atoms: C_15  and  C_18
REMARK    7  A    between atoms: C_23  and  C_24
REMARK    8  A    between atoms: C_24  and  N_25
REMARK    9  A    between atoms: C_26  and  C_28
REMARK   10  A    between atoms: C_28  and  O_29
REMARK   11  A    between atoms: O_29  and  C_30
REMARK                            x       y       z     vdW  Elec       q    Type
REMARK                         _______ _______ _______ _____ _____    ______ ____
ROOT
ATOM      4  C   UNL     1      -0.540   2.437  25.123  0.00  0.00    +0.006 C 
ATOM      5  C   UNL     1      -0.156   1.844  24.699  0.00  0.00    +0.005 C 
ATOM      6  C   UNL     1      -0.462   1.588  23.976  0.00  0.00    +0.027 C 
ATOM     20  C   UNL     1      -1.153   1.927  23.678  0.00  0.00    -0.048 C 
ATOM     21  C   UNL     1      -1.460   1.672  22.955  0.00  0.00    +0.026 C 
ATOM     22  C   UNL     1      -1.538   2.521  24.104  0.00  0.00    -0.033 C 
ATOM     23  C   UNL     1      -1.231   2.776  24.826  0.00  0.00    +0.043 C 
ENDROOT
BRANCH   4   2
ATOM      1  C   UNL     1       0.246   3.361  25.877  0.00  0.00    +0.000 C 
ATOM      2  C   UNL     1      -0.234   2.691  25.845  0.00  0.00    +0.000 C 
ATOM      3  C   UNL     1      -0.409   2.276  26.537  0.00  0.00    +0.000 C 
ENDBRANCH   4   2
BRANCH   6   7
ATOM      7  C   UNL     1      -0.078   0.995  23.551  0.00  0.00    +0.091 C 
BRANCH   7   8
ATOM      8  C   UNL     1       0.018   0.246  23.881  0.00  0.00    +0.242 C 
ATOM      9  O   UNL     1       0.772  -0.026  24.075  0.00  0.00    -0.273 OA
ATOM     10  N   UNL     1      -0.640  -0.232  24.019  0.00  0.00    -0.201 NA
BRANCH  10  11
ATOM     11  C   UNL     1      -0.544  -0.982  24.350  0.00  0.00    +0.141 C 
BRANCH  11  12
ATOM     12  C   UNL     1      -1.201  -1.462  24.480  0.00  0.00    -0.001 A 
ATOM     13  C   UNL     1      -1.755  -1.257  25.058  0.00  0.00    -0.002 A 
ATOM     14  C   UNL     1      -2.412  -1.738  25.188  0.00  0.00    +0.010 A 
ATOM     15  C   UNL     1      -2.517  -2.424  24.742  0.00  0.00    +0.068 A 
ATOM     16  C   UNL     1      -1.963  -2.629  24.165  0.00  0.00    +0.010 A 
ATOM     17  C   UNL     1      -1.306  -2.149  24.034  0.00  0.00    -0.002 A 
BRANCH  15  18
ATOM     18  C   UNL     1      -3.174  -2.905  24.873  0.00  0.00    +0.100 C 
ATOM     19  N   UNL     1      -3.832  -3.386  25.002  0.00  0.00    -0.191 NA
ENDBRANCH  15  18
ENDBRANCH  11  12
ENDBRANCH  10  11
ENDBRANCH   7   8
ENDBRANCH   6   7
BRANCH  23  24
ATOM     24  C   UNL     1      -1.616   3.369  25.250  0.00  0.00    +0.120 C 
BRANCH  24  25
ATOM     25  N   UNL     1      -2.405   3.271  25.473  0.00  0.00    -0.202 NA
ATOM     26  C   UNL     1      -2.903   3.927  25.527  0.00  0.00    +0.286 C 
ATOM     27  O   UNL     1      -2.613   4.679  25.358  0.00  0.00    -0.269 OA
BRANCH  26  28
ATOM     28  C   UNL     1      -3.692   3.828  25.750  0.00  0.00    +0.291 C 
BRANCH  28  29
ATOM     29  O   UNL     1      -4.274   3.739  25.173  0.00  0.00    -0.466 OA
BRANCH  29  30
ATOM     30  C   UNL     1      -4.873   3.180  25.274  0.00  0.00    +0.139 A 
ATOM     31  C   UNL     1      -5.304   3.161  25.977  0.00  0.00    +0.037 A 
ATOM     32  C   UNL     1      -5.902   2.601  26.079  0.00  0.00    +0.003 A 
ATOM     33  C   UNL     1      -6.069   2.061  25.477  0.00  0.00    +0.000 A 
ATOM     34  C   UNL     1      -5.637   2.081  24.775  0.00  0.00    +0.003 A 
ATOM     35  C   UNL     1      -5.039   2.640  24.673  0.00  0.00    +0.037 A 
ENDBRANCH  29  30
ENDBRANCH  28  29
ENDBRANCH  26  28
ENDBRANCH  24  25
ENDBRANCH  23  24
TORSDOF 11
ENDMDL
MODEL 9
REMARK VINA RESULT:      -6.2     16.393     17.889
REMARK  Name = 
REMARK  11 active torsions:
REMARK  status: ('A' for Active; 'I' for Inactive)
REMARK    1  A    between atoms: C_2  and  C_4
REMARK    2  A    between atoms: C_6  and  C_7
REMARK    3  A    between atoms: C_7  and  C_8
REMARK    4  A    between atoms: N_10  and  C_11
REMARK    5  A    between atoms: C_11  and  C_12
REMARK    6  A    between atoms: C_15  and  C_18
REMARK    7  A    between atoms: C_23  and  C_24
REMARK    8  A    between atoms: C_24  and  N_25
REMARK    9  A    between atoms: C_26  and  C_28
REMARK   10  A    between atoms: C_28  and  O_29
REMARK   11  A    between atoms: O_29  and  C_30
REMARK                            x       y       z     vdW  Elec       q    Type
REMARK                         _______ _______ _______ _____ _____    ______ ____
ROOT
ATOM      4  C   UNL     1      -5.491  -9.316  10.442  0.00  0.00    +0.006 C 
ATOM      5  C   UNL     1      -5.341  -9.861  11.042  0.00  0.00    +0.005 C 
ATOM      6  C   UNL     1      -5.968 -10.231  11.430  0.00  0.00    +0.027 C 
ATOM     20  C   UNL     1      -6.745 -10.055  11.218  0.00  0.00    -0.048 C 
ATOM     21  C   UNL     1      -7.373 -10.425  11.606  0.00  0.00    +0.026 C 
ATOM     22  C   UNL     1      -6.896  -9.509  10.617  0.00  0.00    -0.033 C 
ATOM     23  C   UNL     1      -6.268  -9.140  10.229  0.00  0.00    +0.043 C 
ENDROOT
BRANCH   4   2
ATOM      1  C   UNL     1      -4.546  -8.248  10.355  0.00  0.00    +0.000 C 
ATOM      2  C   UNL     1      -4.864  -8.947  10.054  0.00  0.00    +0.000 C 
ATOM      3  C   UNL     1      -4.555  -9.276   9.363  0.00  0.00    +0.000 C 
ENDBRANCH   4   2
BRANCH   6   7
ATOM      7  C   UNL     1      -5.818 -10.777  12.031  0.00  0.00    +0.091 C 
BRANCH   7   8
ATOM      8  C   UNL     1      -5.173 -10.671  12.533  0.00  0.00    +0.242 C 
ATOM      9  O   UNL     1      -4.406 -10.760  12.243  0.00  0.00    -0.273 OA
ATOM     10  N   UNL     1      -5.294 -10.478  13.325  0.00  0.00    -0.201 NA
BRANCH  10  11
ATOM     11  C   UNL     1      -4.648 -10.372  13.828  0.00  0.00    +0.141 C 
BRANCH  11  12
ATOM     12  C   UNL     1      -4.758 -10.364  14.645  0.00  0.00    -0.001 A 
ATOM     13  C   UNL     1      -5.406  -9.969  14.970  0.00  0.00    -0.002 A 
ATOM     14  C   UNL     1      -5.516  -9.960  15.788  0.00  0.00    +0.010 A 
ATOM     15  C   UNL     1      -4.979 -10.346  16.281  0.00  0.00    +0.068 A 
ATOM     16  C   UNL     1      -4.331 -10.741  15.955  0.00  0.00    +0.010 A 
ATOM     17  C   UNL     1      -4.221 -10.749  15.139  0.00  0.00    -0.002 A 
BRANCH  15  18
ATOM     18  C   UNL     1      -5.089 -10.337  17.098  0.00  0.00    +0.100 C 
ATOM     19  N   UNL     1      -5.197 -10.328  17.916  0.00  0.00    -0.191 NA
ENDBRANCH  15  18
ENDBRANCH  11  12
ENDBRANCH  10  11
ENDBRANCH   7   8
ENDBRANCH   6   7
BRANCH  23  24
ATOM     24  C   UNL     1      -6.419  -8.595   9.629  0.00  0.00    +0.120 C 
BRANCH  24  25
ATOM     25  N   UNL     1      -7.158  -8.230   9.580  0.00  0.00    -0.202 NA
ATOM     26  C   UNL     1      -7.406  -7.895   8.868  0.00  0.00    +0.286 C 
ATOM     27  O   UNL     1      -6.916  -7.924   8.206  0.00  0.00    -0.269 OA
BRANCH  26  28
ATOM     28  C   UNL     1      -8.145  -7.530   8.819  0.00  0.00    +0.291 C 
BRANCH  28  29
ATOM     29  O   UNL     1      -8.263  -6.908   8.290  0.00  0.00    -0.466 OA
BRANCH  29  30
ATOM     30  C   UNL     1      -8.949  -6.451   8.337  0.00  0.00    +0.139 A 
ATOM     31  C   UNL     1      -9.689  -6.813   8.295  0.00  0.00    +0.037 A 
ATOM     32  C   UNL     1     -10.375  -6.356   8.343  0.00  0.00    +0.003 A 
ATOM     33  C   UNL     1     -10.320  -5.538   8.432  0.00  0.00    +0.000 A 
ATOM     34  C   UNL     1      -9.579  -5.177   8.474  0.00  0.00    +0.003 A 
ATOM     35  C   UNL     1      -8.894  -5.633   8.427  0.00  0.00    +0.037 A 
ENDBRANCH  29  30
ENDBRANCH  28  29
ENDBRANCH  26  28
ENDBRANCH  24  25
ENDBRANCH  23  24
TORSDOF 11
ENDMDL
MODEL 10
REMARK VINA RESULT:      -5.9     17.659     18.689
REMARK  Name = 
REMARK  11 active torsions:
REMARK  status: ('A' for Active; 'I' for Inactive)
REMARK    1  A    between atoms: C_2  and  C_4
REMARK    2  A    between atoms: C_6  and  C_7
REMARK    3  A    between atoms: C_7  and  C_8
REMARK    4  A    between atoms: N_10  and  C_11
REMARK    5  A    between atoms: C_11  and  C_12
REMARK    6  A    between atoms: C_15  and  C_18
REMARK    7  A    between atoms: C_23  and  C_24
REMARK    8  A    between atoms: C_24  and  N_25
REMARK    9  A    between atoms: C_26  and  C_28
REMARK   10  A    between atoms: C_28  and  O_29
REMARK   11  A    between atoms: O_29  and  C_30
REMARK                            x       y       z     vdW  Elec       q    Type
REMARK                         _______ _______ _______ _____ _____    ______ ____
ROOT
ATOM      4  C   UNL     1      16.092  -7.177  26.709  0.00  0.00    +0.006 C 
ATOM      5  C   UNL     1      15.888  -7.327  27.494  0.00  0.00    +0.005 C 
ATOM      6  C   UNL     1      16.081  -6.781  28.083  0.00  0.00    +0.027 C 
ATOM     20  C   UNL     1      16.476  -6.085  27.885  0.00  0.00    -0.048 C 
ATOM     21  C   UNL     1      16.669  -5.539  28.474  0.00  0.00    +0.026 C 
ATOM     22  C   UNL     1      16.680  -5.934  27.100  0.00  0.00    -0.033 C 
ATOM     23  C   UNL     1      16.488  -6.480  26.512  0.00  0.00    +0.043 C 
ENDROOT
BRANCH   4   2
ATOM      1  C   UNL     1      15.154  -7.704  25.769  0.00  0.00    +0.000 C 
ATOM      2  C   UNL     1      15.900  -7.722  26.122  0.00  0.00    +0.000 C 
ATOM      3  C   UNL     1      16.454  -8.287  25.886  0.00  0.00    +0.000 C 
ENDBRANCH   4   2
BRANCH   6   7
ATOM      7  C   UNL     1      15.877  -6.931  28.868  0.00  0.00    +0.091 C 
BRANCH   7   8
ATOM      8  C   UNL     1      15.845  -7.707  29.146  0.00  0.00    +0.242 C 
ATOM      9  O   UNL     1      16.519  -8.182  29.121  0.00  0.00    -0.273 OA
ATOM     10  N   UNL     1      15.139  -8.008  29.447  0.00  0.00    -0.201 NA
BRANCH  10  11
ATOM     11  C   UNL     1      15.106  -8.785  29.725  0.00  0.00    +0.141 C 
BRANCH  11  12
ATOM     12  C   UNL     1      14.407  -9.078  30.049  0.00  0.00    -0.001 A 
ATOM     13  C   UNL     1      14.228  -9.882  29.985  0.00  0.00    -0.002 A 
ATOM     14  C   UNL     1      13.529 -10.175  30.310  0.00  0.00    +0.010 A 
ATOM     15  C   UNL     1      13.008  -9.666  30.698  0.00  0.00    +0.068 A 
ATOM     16  C   UNL     1      13.187  -8.862  30.761  0.00  0.00    +0.010 A 
ATOM     17  C   UNL     1      13.886  -8.569  30.437  0.00  0.00    -0.002 A 
BRANCH  15  18
ATOM     18  C   UNL     1      12.309  -9.960  31.022  0.00  0.00    +0.100 C 
ATOM     19  N   UNL     1      11.609 -10.251  31.348  0.00  0.00    -0.191 NA
ENDBRANCH  15  18
ENDBRANCH  11  12
ENDBRANCH  10  11
ENDBRANCH   7   8
ENDBRANCH   6   7
BRANCH  23  24
ATOM     24  C   UNL     1      16.691  -6.329  25.727  0.00  0.00    +0.120 C 
BRANCH  24  25
ATOM     25  N   UNL     1      16.741  -5.551  25.457  0.00  0.00    -0.202 NA
ATOM     26  C   UNL     1      17.097  -5.389  24.731  0.00  0.00    +0.286 C 
ATOM     27  O   UNL     1      17.405  -6.003  24.276  0.00  0.00    -0.269 OA
BRANCH  26  28
ATOM     28  C   UNL     1      17.146  -4.610  24.461  0.00  0.00    +0.291 C 
BRANCH  28  29
ATOM     29  O   UNL     1      16.804  -4.402  23.740  0.00  0.00    -0.466 OA
BRANCH  29  30
ATOM     30  C   UNL     1      16.826  -3.618  23.483  0.00  0.00    +0.139 A 
ATOM     31  C   UNL     1      16.292  -3.069  23.790  0.00  0.00    +0.037 A 
ATOM     32  C   UNL     1      16.315  -2.284  23.534  0.00  0.00    +0.003 A 
ATOM     33  C   UNL     1      16.871  -2.049  22.972  0.00  0.00    +0.000 A 
ATOM     34  C   UNL     1      17.405  -2.599  22.666  0.00  0.00    +0.003 A 
ATOM     35  C   UNL     1      17.383  -3.383  22.921  0.00  0.00    +0.037 A 
ENDBRANCH  29  30
ENDBRANCH  28  29
ENDBRANCH  26  28
ENDBRANCH  24  25
ENDBRANCH  23  24
TORSDOF 11
ENDMDL
