MODEL 1
REMARK VINA RESULT:     -12.8      0.000      0.000
REMARK  Name = 
REMARK  6 active torsions:
REMARK  status: ('A' for Active; 'I' for Inactive)
REMARK    1  A    between atoms: O_2  and  C_3
REMARK    2  A    between atoms: C_3  and  C_5
REMARK    3  A    between atoms: C_18  and  N_29
REMARK    4  A    between atoms: C_20  and  C_22
REMARK    5  A    between atoms: N_29  and  C_30
REMARK    6  A    between atoms: C_30  and  C_31
REMARK                            x       y       z     vdW  Elec       q    Type
REMARK                         _______ _______ _______ _____ _____    ______ ____
ROOT
ATOM      5  C   UNL     1      -3.835   2.922  25.088  0.00  0.00    +0.162 C 
ATOM      6  C   UNL     1      -3.352   3.589  25.129  0.00  0.00    +0.055 C 
ATOM      7  C   UNL     1      -2.540   3.519  24.999  0.00  0.00    -0.004 A 
ATOM      8  C   UNL     1      -2.212   2.783  24.826  0.00  0.00    +0.070 A 
ATOM      9  N   UNL     1      -1.400   2.883  24.724  0.00  0.00    -0.249 NA
ATOM     10  C   UNL     1      -1.225   3.682  24.834  0.00  0.00    +0.081 A 
ATOM     11  C   UNL     1      -1.931   4.075  25.003  0.00  0.00    +0.015 A 
ATOM     12  C   UNL     1      -1.927   4.889  25.140  0.00  0.00    +0.001 A 
ATOM     13  C   UNL     1      -1.217   5.310  25.107  0.00  0.00    +0.000 A 
ATOM     14  C   UNL     1      -0.512   4.916  24.937  0.00  0.00    +0.002 A 
ATOM     15  C   UNL     1      -0.516   4.102  24.801  0.00  0.00    +0.019 A 
ATOM     16  C   UNL     1      -2.695   2.115  24.784  0.00  0.00    +0.100 C 
ATOM     17  C   UNL     1      -2.368   1.378  24.612  0.00  0.00    +0.040 C 
ATOM     18  C   UNL     1      -2.851   0.711  24.570  0.00  0.00    +0.077 C 
ATOM     19  C   UNL     1      -3.662   0.781  24.701  0.00  0.00    +0.038 C 
ATOM     20  C   UNL     1      -3.990   1.518  24.873  0.00  0.00    +0.082 C 
ATOM     21  N   UNL     1      -3.507   2.185  24.915  0.00  0.00    -0.258 NA
ENDROOT
BRANCH  20  22
ATOM     22  C   UNL     1      -4.802   1.587  25.004  0.00  0.00    -0.008 A 
ATOM     23  C   UNL     1      -5.309   1.746  24.374  0.00  0.00    -0.001 A 
ATOM     24  C   UNL     1      -6.121   1.815  24.505  0.00  0.00    +0.029 A 
ATOM     25  C   UNL     1      -6.425   1.724  25.267  0.00  0.00    +0.140 A 
ATOM     26  F   UNL     1      -7.237   1.793  25.398  0.00  0.00    -0.204 F 
ATOM     27  C   UNL     1      -5.917   1.565  25.897  0.00  0.00    +0.029 A 
ATOM     28  C   UNL     1      -5.106   1.497  25.766  0.00  0.00    -0.001 A 
ENDBRANCH  20  22
BRANCH   5   3
ATOM      3  C   UNL     1      -4.647   2.992  25.218  0.00  0.00    +0.332 C 
ATOM      4  O   UNL     1      -5.446   2.829  25.097  0.00  0.00    -0.249 OA
BRANCH   3   2
ATOM      1  C   UNL     1      -5.256   4.233  25.576  0.00  0.00    +0.256 C 
ATOM      2  O   UNL     1      -4.929   3.509  25.796  0.00  0.00    -0.443 OA
ENDBRANCH   3   2
ENDBRANCH   5   3
BRANCH  18  29
ATOM     29  N   UNL     1      -2.522  -0.026  24.397  0.00  0.00    -0.214 NA
BRANCH  29  30
ATOM     30  C   UNL     1      -2.357  -0.557  25.007  0.00  0.00    +0.121 C 
BRANCH  30  31
ATOM     31  C   UNL     1      -2.102  -1.322  24.831  0.00  0.00    +0.025 A 
ATOM     32  C   UNL     1      -2.586  -1.965  24.655  0.00  0.00    +0.004 A 
ATOM     33  C   UNL     1      -2.102  -2.618  24.514  0.00  0.00    +0.007 A 
ATOM     34  C   UNL     1      -1.318  -2.378  24.604  0.00  0.00    +0.035 A 
ATOM     35  S   UNL     1      -1.318  -1.576  24.799  0.00  0.00    -0.089 S 
ENDBRANCH  30  31
ENDBRANCH  29  30
ENDBRANCH  18  29
TORSDOF 6
ENDMDL
MODEL 2
REMARK VINA RESULT:     -11.9      2.522      4.437
REMARK  Name = 
REMARK  6 active torsions:
REMARK  status: ('A' for Active; 'I' for Inactive)
REMARK    1  A    between atoms: O_2  and  C_3
REMARK    2  A    between atoms: C_3  and  C_5
REMARK    3  A    between atoms: C_18  and  N_29
REMARK    4  A    between atoms: C_20  and  C_22
REMARK    5  A    between atoms: N_29  and  C_30
REMARK    6  A    between atoms: C_30  and  C_31
REMARK                            x       y       z     vdW  Elec       q    Type
REMARK                         _______ _______ _______ _____ _____    ______ ____
ROOT
ATOM      5  C   UNL     1      -2.009  -0.584  24.494  0.00  0.00    +0.162 C 
ATOM      6  C   UNL     1      -1.260  -0.262  24.367  0.00  0.00    +0.055 C 
ATOM      7  C   UNL     1      -1.150   0.554  24.411  0.00  0.00    -0.004 A 
ATOM      8  C   UNL     1      -1.787   1.049  24.581  0.00  0.00    +0.070 A 
ATOM      9  N   UNL     1      -1.512   1.826  24.588  0.00  0.00    -0.249 NA
ATOM     10  C   UNL     1      -0.704   1.814  24.422  0.00  0.00    +0.081 A 
ATOM     11  C   UNL     1      -0.480   1.026  24.313  0.00  0.00    +0.015 A 
ATOM     12  C   UNL     1       0.305   0.842  24.138  0.00  0.00    +0.001 A 
ATOM     13  C   UNL     1       0.866   1.444  24.073  0.00  0.00    +0.000 A 
ATOM     14  C   UNL     1       0.641   2.231  24.182  0.00  0.00    +0.002 A 
ATOM     15  C   UNL     1      -0.144   2.416  24.357  0.00  0.00    +0.019 A 
ATOM     16  C   UNL     1      -2.537   0.727  24.707  0.00  0.00    +0.100 C 
ATOM     17  C   UNL     1      -3.175   1.221  24.877  0.00  0.00    +0.040 C 
ATOM     18  C   UNL     1      -3.923   0.899  25.004  0.00  0.00    +0.077 C 
ATOM     19  C   UNL     1      -4.034   0.082  24.960  0.00  0.00    +0.038 C 
ATOM     20  C   UNL     1      -3.396  -0.411  24.790  0.00  0.00    +0.082 C 
ATOM     21  N   UNL     1      -2.647  -0.089  24.664  0.00  0.00    -0.258 NA
ENDROOT
BRANCH  20  22
ATOM     22  C   UNL     1      -3.507  -1.228  24.747  0.00  0.00    -0.008 A 
ATOM     23  C   UNL     1      -3.383  -1.698  25.413  0.00  0.00    -0.001 A 
ATOM     24  C   UNL     1      -3.495  -2.514  25.368  0.00  0.00    +0.029 A 
ATOM     25  C   UNL     1      -3.731  -2.860  24.657  0.00  0.00    +0.140 A 
ATOM     26  F   UNL     1      -3.842  -3.677  24.614  0.00  0.00    -0.204 F 
ATOM     27  C   UNL     1      -3.855  -2.390  23.991  0.00  0.00    +0.029 A 
ATOM     28  C   UNL     1      -3.743  -1.574  24.035  0.00  0.00    -0.001 A 
ENDBRANCH  20  22
BRANCH   5   3
ATOM      3  C   UNL     1      -2.119  -1.400  24.450  0.00  0.00    +0.332 C 
ATOM      4  O   UNL     1      -2.511  -2.098  24.248  0.00  0.00    -0.249 OA
BRANCH   3   2
ATOM      1  C   UNL     1      -1.010  -2.285  24.283  0.00  0.00    +0.256 C 
ATOM      2  O   UNL     1      -1.558  -1.911  24.773  0.00  0.00    -0.443 OA
ENDBRANCH   3   2
ENDBRANCH   5   3
BRANCH  18  29
ATOM     29  N   UNL     1      -4.562   1.393  25.174  0.00  0.00    -0.214 NA
BRANCH  29  30
ATOM     30  C   UNL     1      -4.610   2.140  24.826  0.00  0.00    +0.121 C 
BRANCH  30  31
ATOM     31  C   UNL     1      -5.096   2.719  25.157  0.00  0.00    +0.025 A 
ATOM     32  C   UNL     1      -5.868   2.608  25.424  0.00  0.00    +0.004 A 
ATOM     33  C   UNL     1      -6.145   3.330  25.710  0.00  0.00    +0.007 A 
ATOM     34  C   UNL     1      -5.544   3.888  25.620  0.00  0.00    +0.035 A 
ATOM     35  S   UNL     1      -4.895   3.510  25.277  0.00  0.00    -0.089 S 
ENDBRANCH  30  31
ENDBRANCH  29  30
ENDBRANCH  18  29
TORSDOF 6
ENDMDL
MODEL 3
REMARK VINA RESULT:     -11.9      2.058      3.686
REMARK  Name = 
REMARK  6 active torsions:
REMARK  status: ('A' for Active; 'I' for Inactive)
REMARK    1  A    between atoms: O_2  and  C_3
REMARK    2  A    between atoms: C_3  and  C_5
REMARK    3  A    between atoms: C_18  and  N_29
REMARK    4  A    between atoms: C_20  and  C_22
REMARK    5  A    between atoms: N_29  and  C_30
REMARK    6  A    between atoms: C_30  and  C_31
REMARK                            x       y       z     vdW  Elec       q    Type
REMARK                         _______ _______ _______ _____ _____    ______ ____
ROOT
ATOM      5  C   UNL     1      -2.483   2.534  24.918  0.00  0.00    +0.162 C 
ATOM      6  C   UNL     1      -3.084   3.060  25.121  0.00  0.00    +0.055 C 
ATOM      7  C   UNL     1      -3.869   2.804  25.135  0.00  0.00    -0.004 A 
ATOM      8  C   UNL     1      -4.051   2.022  24.946  0.00  0.00    +0.070 A 
ATOM      9  N   UNL     1      -4.868   1.929  25.007  0.00  0.00    -0.249 NA
ATOM     10  C   UNL     1      -5.192   2.653  25.233  0.00  0.00    +0.081 A 
ATOM     11  C   UNL     1      -4.573   3.194  25.312  0.00  0.00    +0.015 A 
ATOM     12  C   UNL     1      -4.733   3.972  25.536  0.00  0.00    +0.001 A 
ATOM     13  C   UNL     1      -5.510   4.210  25.680  0.00  0.00    +0.000 A 
ATOM     14  C   UNL     1      -6.128   3.668  25.601  0.00  0.00    +0.002 A 
ATOM     15  C   UNL     1      -5.969   2.890  25.378  0.00  0.00    +0.019 A 
ATOM     16  C   UNL     1      -3.449   1.496  24.743  0.00  0.00    +0.100 C 
ATOM     17  C   UNL     1      -3.630   0.714  24.554  0.00  0.00    +0.040 C 
ATOM     18  C   UNL     1      -3.028   0.188  24.351  0.00  0.00    +0.077 C 
ATOM     19  C   UNL     1      -2.244   0.444  24.337  0.00  0.00    +0.038 C 
ATOM     20  C   UNL     1      -2.063   1.226  24.526  0.00  0.00    +0.082 C 
ATOM     21  N   UNL     1      -2.665   1.752  24.729  0.00  0.00    -0.258 NA
ENDROOT
BRANCH  20  22
ATOM     22  C   UNL     1      -1.278   1.482  24.512  0.00  0.00    -0.008 A 
ATOM     23  C   UNL     1      -0.816   1.435  25.193  0.00  0.00    -0.001 A 
ATOM     24  C   UNL     1      -0.032   1.691  25.178  0.00  0.00    +0.029 A 
ATOM     25  C   UNL     1       0.290   1.993  24.481  0.00  0.00    +0.140 A 
ATOM     26  F   UNL     1       1.075   2.248  24.466  0.00  0.00    -0.204 F 
ATOM     27  C   UNL     1      -0.171   2.039  23.799  0.00  0.00    +0.029 A 
ATOM     28  C   UNL     1      -0.956   1.783  23.814  0.00  0.00    -0.001 A 
ENDBRANCH  20  22
BRANCH   5   3
ATOM      3  C   UNL     1      -1.699   2.791  24.904  0.00  0.00    +0.332 C 
ATOM      4  O   UNL     1      -0.925   2.835  24.619  0.00  0.00    -0.249 OA
BRANCH   3   2
ATOM      1  C   UNL     1      -1.355   4.122  25.291  0.00  0.00    +0.256 C 
ATOM      2  O   UNL     1      -1.427   3.321  25.474  0.00  0.00    -0.443 OA
ENDBRANCH   3   2
ENDBRANCH   5   3
BRANCH  18  29
ATOM     29  N   UNL     1      -3.210  -0.595  24.162  0.00  0.00    -0.214 NA
BRANCH  29  30
ATOM     30  C   UNL     1      -3.384  -1.134  24.762  0.00  0.00    +0.121 C 
BRANCH  30  31
ATOM     31  C   UNL     1      -3.535  -1.924  24.575  0.00  0.00    +0.025 A 
ATOM     32  C   UNL     1      -4.059  -2.193  23.999  0.00  0.00    +0.004 A 
ATOM     33  C   UNL     1      -4.037  -3.018  24.000  0.00  0.00    +0.007 A 
ATOM     34  C   UNL     1      -3.500  -3.258  24.577  0.00  0.00    +0.035 A 
ATOM     35  S   UNL     1      -3.189  -2.582  24.933  0.00  0.00    -0.089 S 
ENDBRANCH  30  31
ENDBRANCH  29  30
ENDBRANCH  18  29
TORSDOF 6
ENDMDL
MODEL 4
REMARK VINA RESULT:     -11.8      2.232      2.864
REMARK  Name = 
REMARK  6 active torsions:
REMARK  status: ('A' for Active; 'I' for Inactive)
REMARK    1  A    between atoms: O_2  and  C_3
REMARK    2  A    between atoms: C_3  and  C_5
REMARK    3  A    between atoms: C_18  and  N_29
REMARK    4  A    between atoms: C_20  and  C_22
REMARK    5  A    between atoms: N_29  and  C_30
REMARK    6  A    between atoms: C_30  and  C_31
REMARK                            x       y       z     vdW  Elec       q    Type
REMARK                         _______ _______ _______ _____ _____    ______ ____
ROOT
ATOM      5  C   UNL     1      -2.786   1.474  24.816  0.00  0.00    +0.162 C 
ATOM      6  C   UNL     1      -2.858   2.274  25.003  0.00  0.00    +0.055 C 
ATOM      7  C   UNL     1      -2.201   2.770  24.953  0.00  0.00    -0.004 A 
ATOM      8  C   UNL     1      -1.471   2.467  24.717  0.00  0.00    +0.070 A 
ATOM      9  N   UNL     1      -0.926   3.085  24.719  0.00  0.00    -0.249 NA
ATOM     10  C   UNL     1      -1.317   3.772  24.956  0.00  0.00    +0.081 A 
ATOM     11  C   UNL     1      -2.106   3.576  25.101  0.00  0.00    +0.015 A 
ATOM     12  C   UNL     1      -2.636   4.158  25.349  0.00  0.00    +0.001 A 
ATOM     13  C   UNL     1      -2.377   4.935  25.453  0.00  0.00    +0.000 A 
ATOM     14  C   UNL     1      -1.587   5.130  25.308  0.00  0.00    +0.002 A 
ATOM     15  C   UNL     1      -1.058   4.548  25.060  0.00  0.00    +0.019 A 
ATOM     16  C   UNL     1      -1.398   1.667  24.530  0.00  0.00    +0.100 C 
ATOM     17  C   UNL     1      -0.669   1.363  24.293  0.00  0.00    +0.040 C 
ATOM     18  C   UNL     1      -0.597   0.563  24.107  0.00  0.00    +0.077 C 
ATOM     19  C   UNL     1      -1.254   0.066  24.157  0.00  0.00    +0.038 C 
ATOM     20  C   UNL     1      -1.983   0.370  24.393  0.00  0.00    +0.082 C 
ATOM     21  N   UNL     1      -2.056   1.170  24.579  0.00  0.00    -0.258 NA
ENDROOT
BRANCH  20  22
ATOM     22  C   UNL     1      -2.640  -0.127  24.442  0.00  0.00    -0.008 A 
ATOM     23  C   UNL     1      -3.138  -0.219  23.792  0.00  0.00    -0.001 A 
ATOM     24  C   UNL     1      -3.794  -0.716  23.843  0.00  0.00    +0.029 A 
ATOM     25  C   UNL     1      -3.952  -1.122  24.544  0.00  0.00    +0.140 A 
ATOM     26  F   UNL     1      -4.609  -1.620  24.593  0.00  0.00    -0.204 F 
ATOM     27  C   UNL     1      -3.453  -1.030  25.194  0.00  0.00    +0.029 A 
ATOM     28  C   UNL     1      -2.797  -0.533  25.144  0.00  0.00    -0.001 A 
ENDBRANCH  20  22
BRANCH   5   3
ATOM      3  C   UNL     1      -3.443   0.978  24.866  0.00  0.00    +0.332 C 
ATOM      4  O   UNL     1      -3.851   0.285  25.049  0.00  0.00    -0.249 OA
BRANCH   3   2
ATOM      1  C   UNL     1      -4.744   1.501  25.136  0.00  0.00    +0.256 C 
ATOM      2  O   UNL     1      -4.178   1.237  24.598  0.00  0.00    -0.443 OA
ENDBRANCH   3   2
ENDBRANCH   5   3
BRANCH  18  29
ATOM     29  N   UNL     1       0.133   0.259  23.870  0.00  0.00    -0.214 NA
BRANCH  29  30
ATOM     30  C   UNL     1       0.385   0.350  23.090  0.00  0.00    +0.121 C 
BRANCH  30  31
ATOM     31  C   UNL     1       1.170   0.194  22.888  0.00  0.00    +0.025 A 
ATOM     32  C   UNL     1       1.835   0.558  23.213  0.00  0.00    +0.004 A 
ATOM     33  C   UNL     1       2.503   0.237  22.853  0.00  0.00    +0.007 A 
ATOM     34  C   UNL     1       2.252  -0.326  22.305  0.00  0.00    +0.035 A 
ATOM     35  S   UNL     1       1.427  -0.353  22.327  0.00  0.00    -0.089 S 
ENDBRANCH  30  31
ENDBRANCH  29  30
ENDBRANCH  18  29
TORSDOF 6
ENDMDL
MODEL 5
REMARK VINA RESULT:     -11.7      2.683      5.555
REMARK  Name = 
REMARK  6 active torsions:
REMARK  status: ('A' for Active; 'I' for Inactive)
REMARK    1  A    between atoms: O_2  and  C_3
REMARK    2  A    between atoms: C_3  and  C_5
REMARK    3  A    between atoms: C_18  and  N_29
REMARK    4  A    between atoms: C_20  and  C_22
REMARK    5  A    between atoms: N_29  and  C_30
REMARK    6  A    between atoms: C_30  and  C_31
REMARK                            x       y       z     vdW  Elec       q    Type
REMARK                         _______ _______ _______ _____ _____    ______ ____
ROOT
ATOM      5  C   UNL     1      -1.740   0.001  24.610  0.00  0.00    +0.162 C 
ATOM      6  C   UNL     1      -1.930  -0.796  24.513  0.00  0.00    +0.055 C 
ATOM      7  C   UNL     1      -2.719  -1.027  24.449  0.00  0.00    -0.004 A 
ATOM      8  C   UNL     1      -3.319  -0.462  24.483  0.00  0.00    +0.070 A 
ATOM      9  N   UNL     1      -4.041  -0.852  24.405  0.00  0.00    -0.249 NA
ATOM     10  C   UNL     1      -3.890  -1.658  24.323  0.00  0.00    +0.081 A 
ATOM     11  C   UNL     1      -3.071  -1.766  24.351  0.00  0.00    +0.015 A 
ATOM     12  C   UNL     1      -2.753  -2.525  24.283  0.00  0.00    +0.001 A 
ATOM     13  C   UNL     1      -3.253  -3.175  24.187  0.00  0.00    +0.000 A 
ATOM     14  C   UNL     1      -4.071  -3.066  24.160  0.00  0.00    +0.002 A 
ATOM     15  C   UNL     1      -4.389  -2.308  24.228  0.00  0.00    +0.019 A 
ATOM     16  C   UNL     1      -3.129   0.336  24.579  0.00  0.00    +0.100 C 
ATOM     17  C   UNL     1      -3.728   0.902  24.613  0.00  0.00    +0.040 C 
ATOM     18  C   UNL     1      -3.539   1.698  24.709  0.00  0.00    +0.077 C 
ATOM     19  C   UNL     1      -2.749   1.929  24.773  0.00  0.00    +0.038 C 
ATOM     20  C   UNL     1      -2.150   1.363  24.740  0.00  0.00    +0.082 C 
ATOM     21  N   UNL     1      -2.340   0.567  24.643  0.00  0.00    -0.258 NA
ENDROOT
BRANCH  20  22
ATOM     22  C   UNL     1      -1.361   1.596  24.804  0.00  0.00    -0.008 A 
ATOM     23  C   UNL     1      -0.999   1.630  25.543  0.00  0.00    -0.001 A 
ATOM     24  C   UNL     1      -0.210   1.862  25.606  0.00  0.00    +0.029 A 
ATOM     25  C   UNL     1       0.217   2.060  24.928  0.00  0.00    +0.140 A 
ATOM     26  F   UNL     1       1.007   2.292  24.992  0.00  0.00    -0.204 F 
ATOM     27  C   UNL     1      -0.144   2.026  24.188  0.00  0.00    +0.029 A 
ATOM     28  C   UNL     1      -0.934   1.794  24.126  0.00  0.00    -0.001 A 
ENDBRANCH  20  22
BRANCH   5   3
ATOM      3  C   UNL     1      -0.951   0.232  24.673  0.00  0.00    +0.332 C 
ATOM      4  O   UNL     1      -0.311   0.653  24.982  0.00  0.00    -0.249 OA
BRANCH   3   2
ATOM      1  C   UNL     1       0.068  -0.739  24.428  0.00  0.00    +0.256 C 
ATOM      2  O   UNL     1      -0.382  -0.097  24.174  0.00  0.00    -0.443 OA
ENDBRANCH   3   2
ENDBRANCH   5   3
BRANCH  18  29
ATOM     29  N   UNL     1      -4.138   2.264  24.743  0.00  0.00    -0.214 NA
BRANCH  29  30
ATOM     30  C   UNL     1      -4.431   2.513  25.473  0.00  0.00    +0.121 C 
BRANCH  30  31
ATOM     31  C   UNL     1      -5.004   3.106  25.508  0.00  0.00    +0.025 A 
ATOM     32  C   UNL     1      -4.877   3.910  25.379  0.00  0.00    +0.004 A 
ATOM     33  C   UNL     1      -5.597   4.300  25.469  0.00  0.00    +0.007 A 
ATOM     34  C   UNL     1      -6.171   3.737  25.653  0.00  0.00    +0.035 A 
ATOM     35  S   UNL     1      -5.804   2.998  25.677  0.00  0.00    -0.089 S 
ENDBRANCH  30  31
ENDBRANCH  29  30
ENDBRANCH  18  29
TORSDOF 6
ENDMDL
MODEL 6
REMARK VINA RESULT:     -11.6      1.406      1.868
REMARK  Name = 
REMARK  6 active torsions:
REMARK  status: ('A' for Active; 'I' for Inactive)
REMARK    1  A    between atoms: O_2  and  C_3
REMARK    2  A    between atoms: C_3  and  C_5
REMARK    3  A    between atoms: C_18  and  N_29
REMARK    4  A    between atoms: C_20  and  C_22
REMARK    5  A    between atoms: N_29  and  C_30
REMARK    6  A    between atoms: C_30  and  C_31
REMARK                            x       y       z     vdW  Elec       q    Type
REMARK                         _______ _______ _______ _____ _____    ______ ____
ROOT
ATOM      5  C   UNL     1      -2.936   2.586  24.904  0.00  0.00    +0.162 C 
ATOM      6  C   UNL     1      -2.134   2.766  24.850  0.00  0.00    +0.055 C 
ATOM      7  C   UNL     1      -1.596   2.187  24.612  0.00  0.00    -0.004 A 
ATOM      8  C   UNL     1      -1.861   1.428  24.429  0.00  0.00    +0.070 A 
ATOM      9  N   UNL     1      -1.207   0.974  24.212  0.00  0.00    -0.249 NA
ATOM     10  C   UNL     1      -0.537   1.452  24.261  0.00  0.00    +0.081 A 
ATOM     11  C   UNL     1      -0.778   2.203  24.509  0.00  0.00    +0.015 A 
ATOM     12  C   UNL     1      -0.220   2.803  24.608  0.00  0.00    +0.001 A 
ATOM     13  C   UNL     1       0.578   2.653  24.460  0.00  0.00    +0.000 A 
ATOM     14  C   UNL     1       0.818   1.903  24.212  0.00  0.00    +0.002 A 
ATOM     15  C   UNL     1       0.261   1.303  24.113  0.00  0.00    +0.019 A 
ATOM     16  C   UNL     1      -2.665   1.247  24.483  0.00  0.00    +0.100 C 
ATOM     17  C   UNL     1      -2.931   0.489  24.299  0.00  0.00    +0.040 C 
ATOM     18  C   UNL     1      -3.734   0.309  24.353  0.00  0.00    +0.077 C 
ATOM     19  C   UNL     1      -4.271   0.888  24.591  0.00  0.00    +0.038 C 
ATOM     20  C   UNL     1      -4.005   1.646  24.774  0.00  0.00    +0.082 C 
ATOM     21  N   UNL     1      -3.202   1.826  24.720  0.00  0.00    -0.258 NA
ENDROOT
BRANCH  20  22
ATOM     22  C   UNL     1      -4.543   2.225  25.012  0.00  0.00    -0.008 A 
ATOM     23  C   UNL     1      -4.868   2.740  24.456  0.00  0.00    -0.001 A 
ATOM     24  C   UNL     1      -5.406   3.319  24.694  0.00  0.00    +0.029 A 
ATOM     25  C   UNL     1      -5.619   3.381  25.489  0.00  0.00    +0.140 A 
ATOM     26  F   UNL     1      -6.158   3.960  25.727  0.00  0.00    -0.204 F 
ATOM     27  C   UNL     1      -5.295   2.866  26.045  0.00  0.00    +0.029 A 
ATOM     28  C   UNL     1      -4.757   2.288  25.807  0.00  0.00    -0.001 A 
ENDBRANCH  20  22
BRANCH   5   3
ATOM      3  C   UNL     1      -3.474   3.165  25.141  0.00  0.00    +0.332 C 
ATOM      4  O   UNL     1      -4.175   3.599  25.114  0.00  0.00    -0.249 OA
BRANCH   3   2
ATOM      1  C   UNL     1      -2.975   4.405  25.644  0.00  0.00    +0.256 C 
ATOM      2  O   UNL     1      -3.295   3.658  25.778  0.00  0.00    -0.443 OA
ENDBRANCH   3   2
ENDBRANCH   5   3
BRANCH  18  29
ATOM     29  N   UNL     1      -4.000  -0.451  24.170  0.00  0.00    -0.214 NA
BRANCH  29  30
ATOM     30  C   UNL     1      -3.923  -1.059  24.721  0.00  0.00    +0.121 C 
BRANCH  30  31
ATOM     31  C   UNL     1      -3.907  -1.845  24.469  0.00  0.00    +0.025 A 
ATOM     32  C   UNL     1      -4.340  -2.162  23.844  0.00  0.00    +0.004 A 
ATOM     33  C   UNL     1      -4.156  -2.964  23.787  0.00  0.00    +0.007 A 
ATOM     34  C   UNL     1      -3.608  -3.143  24.377  0.00  0.00    +0.035 A 
ATOM     35  S   UNL     1      -3.454  -2.451  24.799  0.00  0.00    -0.089 S 
ENDBRANCH  30  31
ENDBRANCH  29  30
ENDBRANCH  18  29
TORSDOF 6
ENDMDL
MODEL 7
REMARK VINA RESULT:     -11.4      2.555      4.541
REMARK  Name = 
REMARK  6 active torsions:
REMARK  status: ('A' for Active; 'I' for Inactive)
REMARK    1  A    between atoms: O_2  and  C_3
REMARK    2  A    between atoms: C_3  and  C_5
REMARK    3  A    between atoms: C_18  and  N_29
REMARK    4  A    between atoms: C_20  and  C_22
REMARK    5  A    between atoms: N_29  and  C_30
REMARK    6  A    between atoms: C_30  and  C_31
REMARK                            x       y       z     vdW  Elec       q    Type
REMARK                         _______ _______ _______ _____ _____    ______ ____
ROOT
ATOM      5  C   UNL     1      -2.301   1.159  24.877  0.00  0.00    +0.162 C 
ATOM      6  C   UNL     1      -2.825   0.525  24.926  0.00  0.00    +0.055 C 
ATOM      7  C   UNL     1      -2.569  -0.238  24.742  0.00  0.00    -0.004 A 
ATOM      8  C   UNL     1      -1.789  -0.366  24.509  0.00  0.00    +0.070 A 
ATOM      9  N   UNL     1      -1.695  -1.172  24.363  0.00  0.00    -0.249 NA
ATOM     10  C   UNL     1      -2.418  -1.544  24.506  0.00  0.00    +0.081 A 
ATOM     11  C   UNL     1      -2.959  -0.965  24.740  0.00  0.00    +0.015 A 
ATOM     12  C   UNL     1      -3.735  -1.176  24.922  0.00  0.00    +0.001 A 
ATOM     13  C   UNL     1      -3.972  -1.965  24.869  0.00  0.00    +0.000 A 
ATOM     14  C   UNL     1      -3.431  -2.543  24.634  0.00  0.00    +0.002 A 
ATOM     15  C   UNL     1      -2.654  -2.332  24.453  0.00  0.00    +0.019 A 
ATOM     16  C   UNL     1      -1.263   0.268  24.459  0.00  0.00    +0.100 C 
ATOM     17  C   UNL     1      -0.483   0.141  24.227  0.00  0.00    +0.040 C 
ATOM     18  C   UNL     1       0.042   0.775  24.177  0.00  0.00    +0.077 C 
ATOM     19  C   UNL     1      -0.214   1.537  24.361  0.00  0.00    +0.038 C 
ATOM     20  C   UNL     1      -0.995   1.665  24.594  0.00  0.00    +0.082 C 
ATOM     21  N   UNL     1      -1.519   1.031  24.643  0.00  0.00    -0.258 NA
ENDROOT
BRANCH  20  22
ATOM     22  C   UNL     1      -1.250   2.428  24.778  0.00  0.00    -0.008 A 
ATOM     23  C   UNL     1      -1.564   2.911  24.189  0.00  0.00    -0.001 A 
ATOM     24  C   UNL     1      -1.819   3.674  24.373  0.00  0.00    +0.029 A 
ATOM     25  C   UNL     1      -1.760   3.953  25.148  0.00  0.00    +0.140 A 
ATOM     26  F   UNL     1      -2.015   4.716  25.332  0.00  0.00    -0.204 F 
ATOM     27  C   UNL     1      -1.445   3.470  25.737  0.00  0.00    +0.029 A 
ATOM     28  C   UNL     1      -1.190   2.707  25.553  0.00  0.00    -0.001 A 
ENDBRANCH  20  22
BRANCH   5   3
ATOM      3  C   UNL     1      -2.557   1.921  25.061  0.00  0.00    +0.332 C 
ATOM      4  O   UNL     1      -2.509   2.670  25.404  0.00  0.00    -0.249 OA
BRANCH   3   2
ATOM      1  C   UNL     1      -3.942   2.195  25.278  0.00  0.00    +0.256 C 
ATOM      2  O   UNL     1      -3.284   2.192  24.781  0.00  0.00    -0.443 OA
ENDBRANCH   3   2
ENDBRANCH   5   3
BRANCH  18  29
ATOM     29  N   UNL     1       0.823   0.647  23.944  0.00  0.00    -0.214 NA
BRANCH  29  30
ATOM     30  C   UNL     1       0.997   0.484  23.154  0.00  0.00    +0.121 C 
BRANCH  30  31
ATOM     31  C   UNL     1       1.782   0.412  22.910  0.00  0.00    +0.025 A 
ATOM     32  C   UNL     1       2.411   0.885  23.157  0.00  0.00    +0.004 A 
ATOM     33  C   UNL     1       3.093   0.621  22.776  0.00  0.00    +0.007 A 
ATOM     34  C   UNL     1       2.886  -0.016  22.294  0.00  0.00    +0.035 A 
ATOM     35  S   UNL     1       2.075  -0.145  22.377  0.00  0.00    -0.089 S 
ENDBRANCH  30  31
ENDBRANCH  29  30
ENDBRANCH  18  29
TORSDOF 6
ENDMDL
MODEL 8
REMARK VINA RESULT:     -11.1      2.234      4.925
REMARK  Name = 
REMARK  6 active torsions:
REMARK  status: ('A' for Active; 'I' for Inactive)
REMARK    1  A    between atoms: O_2  and  C_3
REMARK    2  A    between atoms: C_3  and  C_5
REMARK    3  A    between atoms: C_18  and  N_29
REMARK    4  A    between atoms: C_20  and  C_22
REMARK    5  A    between atoms: N_29  and  C_30
REMARK    6  A    between atoms: C_30  and  C_31
REMARK                            x       y       z     vdW  Elec       q    Type
REMARK                         _______ _______ _______ _____ _____    ______ ____
ROOT
ATOM      5  C   UNL     1      -3.097   0.145  25.069  0.00  0.00    +0.162 C 
ATOM      6  C   UNL     1      -3.918   0.225  25.081  0.00  0.00    +0.055 C 
ATOM      7  C   UNL     1      -4.261   0.971  25.003  0.00  0.00    -0.004 A 
ATOM      8  C   UNL     1      -3.784   1.638  24.914  0.00  0.00    +0.070 A 
ATOM      9  N   UNL     1      -4.276   2.296  24.850  0.00  0.00    -0.249 NA
ATOM     10  C   UNL     1      -5.058   2.038  24.899  0.00  0.00    +0.081 A 
ATOM     11  C   UNL     1      -5.048   1.218  24.994  0.00  0.00    +0.015 A 
ATOM     12  C   UNL     1      -5.758   0.802  25.060  0.00  0.00    +0.001 A 
ATOM     13  C   UNL     1      -6.477   1.207  25.031  0.00  0.00    +0.000 A 
ATOM     14  C   UNL     1      -6.486   2.027  24.937  0.00  0.00    +0.002 A 
ATOM     15  C   UNL     1      -5.776   2.442  24.871  0.00  0.00    +0.019 A 
ATOM     16  C   UNL     1      -2.963   1.559  24.902  0.00  0.00    +0.100 C 
ATOM     17  C   UNL     1      -2.485   2.225  24.813  0.00  0.00    +0.040 C 
ATOM     18  C   UNL     1      -1.664   2.145  24.801  0.00  0.00    +0.077 C 
ATOM     19  C   UNL     1      -1.321   1.399  24.879  0.00  0.00    +0.038 C 
ATOM     20  C   UNL     1      -1.799   0.733  24.968  0.00  0.00    +0.082 C 
ATOM     21  N   UNL     1      -2.619   0.812  24.980  0.00  0.00    -0.258 NA
ENDROOT
BRANCH  20  22
ATOM     22  C   UNL     1      -1.454  -0.013  25.046  0.00  0.00    -0.008 A 
ATOM     23  C   UNL     1      -1.295  -0.466  24.376  0.00  0.00    -0.001 A 
ATOM     24  C   UNL     1      -0.950  -1.211  24.455  0.00  0.00    +0.029 A 
ATOM     25  C   UNL     1      -0.766  -1.504  25.204  0.00  0.00    +0.140 A 
ATOM     26  F   UNL     1      -0.421  -2.250  25.282  0.00  0.00    -0.204 F 
ATOM     27  C   UNL     1      -0.926  -1.051  25.874  0.00  0.00    +0.029 A 
ATOM     28  C   UNL     1      -1.270  -0.305  25.796  0.00  0.00    -0.001 A 
ENDBRANCH  20  22
BRANCH   5   3
ATOM      3  C   UNL     1      -2.754  -0.601  25.147  0.00  0.00    +0.332 C 
ATOM      4  O   UNL     1      -2.205  -1.197  24.994  0.00  0.00    -0.249 OA
BRANCH   3   2
ATOM      1  C   UNL     1      -3.544  -1.770  25.366  0.00  0.00    +0.256 C 
ATOM      2  O   UNL     1      -3.082  -1.155  25.662  0.00  0.00    -0.443 OA
ENDBRANCH   3   2
ENDBRANCH   5   3
BRANCH  18  29
ATOM     29  N   UNL     1      -1.186   2.812  24.712  0.00  0.00    -0.214 NA
BRANCH  29  30
ATOM     30  C   UNL     1      -1.174   3.392  25.299  0.00  0.00    +0.121 C 
BRANCH  30  31
ATOM     31  C   UNL     1      -1.038   4.181  25.097  0.00  0.00    +0.025 A 
ATOM     32  C   UNL     1      -1.530   4.818  25.274  0.00  0.00    +0.004 A 
ATOM     33  C   UNL     1      -1.183   5.501  24.969  0.00  0.00    +0.007 A 
ATOM     34  C   UNL     1      -0.476   5.286  24.603  0.00  0.00    +0.035 A 
ATOM     35  S   UNL     1      -0.386   4.470  24.682  0.00  0.00    -0.089 S 
ENDBRANCH  30  31
ENDBRANCH  29  30
ENDBRANCH  18  29
TORSDOF 6
ENDMDL
