MODEL 1
REMARK VINA RESULT:     -11.0      0.000      0.000
REMARK  Name = 
REMARK  5 active torsions:
REMARK  status: ('A' for Active; 'I' for Inactive)
REMARK    1  A    between atoms: N_2  and  C_4
REMARK    2  A    between atoms: C_7  and  C_10
REMARK    3  A    between atoms: C_13  and  C_15
REMARK    4  A    between atoms: N_19  and  C_20
REMARK    5  A    between atoms: C_20  and  C_21
REMARK                            x       y       z     vdW  Elec       q    Type
REMARK                         _______ _______ _______ _____ _____    ______ ____
ROOT
ATOM     10  C   UNL     1      -4.022   0.469  24.898  0.00  0.00    +0.205 A 
ATOM     11  N   UNL     1      -4.521   0.747  25.494  0.00  0.00    -0.056 NA
ATOM     12  O   UNL     1      -4.630   1.556  25.377  0.00  0.00    -0.336 OA
ATOM     13  C   UNL     1      -4.200   1.778  24.710  0.00  0.00    +0.251 A 
ATOM     14  N   UNL     1      -3.824   1.106  24.413  0.00  0.00    -0.190 NA
ENDROOT
BRANCH  10   7
ATOM      4  C   UNL     1      -3.256  -1.868  24.615  0.00  0.00    +0.132 A 
ATOM      5  C   UNL     1      -3.850  -1.566  24.129  0.00  0.00    +0.034 A 
ATOM      6  C   UNL     1      -4.106  -0.788  24.223  0.00  0.00    +0.008 A 
ATOM      7  C   UNL     1      -3.767  -0.310  24.804  0.00  0.00    +0.058 A 
ATOM      8  C   UNL     1      -3.172  -0.611  25.291  0.00  0.00    +0.103 A 
ATOM      9  N   UNL     1      -2.917  -1.390  25.197  0.00  0.00    -0.229 NA
BRANCH   4   2
ATOM      1  C   UNL     1      -2.197  -2.808  24.425  0.00  0.00    +0.114 C 
ATOM      2  N   UNL     1      -3.001  -2.647  24.521  0.00  0.00    -0.290 N 
ATOM      3  C   UNL     1      -3.549  -3.263  24.523  0.00  0.00    +0.114 C 
ENDBRANCH   4   2
ENDBRANCH  10   7
BRANCH  13  15
ATOM     15  C   UNL     1      -4.153   2.538  24.393  0.00  0.00    +0.138 C 
ATOM     16  C   UNL     1      -4.666   2.863  23.834  0.00  0.00    +0.027 C 
ATOM     17  C   UNL     1      -4.416   3.633  23.675  0.00  0.00    +0.019 C 
ATOM     18  C   UNL     1      -3.748   3.784  24.136  0.00  0.00    +0.073 C 
ATOM     19  N   UNL     1      -3.586   3.108  24.580  0.00  0.00    -0.263 NA
BRANCH  19  20
ATOM     20  C   UNL     1      -2.966   3.017  25.116  0.00  0.00    +0.099 C 
BRANCH  20  21
ATOM     21  C   UNL     1      -2.322   3.532  25.094  0.00  0.00    -0.006 A 
ATOM     22  C   UNL     1      -1.636   3.318  24.690  0.00  0.00    -0.002 A 
ATOM     23  C   UNL     1      -0.992   3.833  24.667  0.00  0.00    +0.011 A 
ATOM     24  C   UNL     1      -1.035   4.563  25.050  0.00  0.00    +0.058 A 
ATOM     25 CL   UNL     1      -0.390   5.079  25.028  0.00  0.00    -0.082 Cl
ATOM     26  C   UNL     1      -1.721   4.777  25.454  0.00  0.00    +0.011 A 
ATOM     27  C   UNL     1      -2.365   4.262  25.477  0.00  0.00    -0.002 A 
ENDBRANCH  20  21
ENDBRANCH  19  20
ENDBRANCH  13  15
TORSDOF 5
ENDMDL
MODEL 2
REMARK VINA RESULT:     -10.4      2.583      5.781
REMARK  Name = 
REMARK  5 active torsions:
REMARK  status: ('A' for Active; 'I' for Inactive)
REMARK    1  A    between atoms: N_2  and  C_4
REMARK    2  A    between atoms: C_7  and  C_10
REMARK    3  A    between atoms: C_13  and  C_15
REMARK    4  A    between atoms: N_19  and  C_20
REMARK    5  A    between atoms: C_20  and  C_21
REMARK                            x       y       z     vdW  Elec       q    Type
REMARK                         _______ _______ _______ _____ _____    ______ ____
ROOT
ATOM     10  C   UNL     1      -1.009   1.680  25.472  0.00  0.00    +0.205 A 
ATOM     11  N   UNL     1      -0.911   1.284  26.189  0.00  0.00    -0.056 NA
ATOM     12  O   UNL     1      -0.841   0.477  26.027  0.00  0.00    -0.336 OA
ATOM     13  C   UNL     1      -0.895   0.376  25.210  0.00  0.00    +0.251 A 
ATOM     14  N   UNL     1      -0.998   1.119  24.867  0.00  0.00    -0.190 NA
ENDROOT
BRANCH  10   7
ATOM      4  C   UNL     1      -1.283   4.123  25.186  0.00  0.00    +0.132 A 
ATOM      5  C   UNL     1      -1.947   3.635  25.228  0.00  0.00    +0.034 A 
ATOM      6  C   UNL     1      -1.855   2.821  25.323  0.00  0.00    +0.008 A 
ATOM      7  C   UNL     1      -1.100   2.494  25.376  0.00  0.00    +0.058 A 
ATOM      8  C   UNL     1      -0.435   2.981  25.334  0.00  0.00    +0.103 A 
ATOM      9  N   UNL     1      -0.527   3.796  25.239  0.00  0.00    -0.229 NA
BRANCH   4   2
ATOM      1  C   UNL     1      -0.779   5.379  24.729  0.00  0.00    +0.114 C 
ATOM      2  N   UNL     1      -1.374   4.937  25.090  0.00  0.00    -0.290 N 
ATOM      3  C   UNL     1      -2.060   5.309  25.357  0.00  0.00    +0.114 C 
ENDBRANCH   4   2
ENDBRANCH  10   7
BRANCH  13  15
ATOM     15  C   UNL     1      -0.852  -0.343  24.807  0.00  0.00    +0.138 C 
ATOM     16  C   UNL     1      -0.192  -0.638  24.410  0.00  0.00    +0.027 C 
ATOM     17  C   UNL     1      -0.393  -1.369  24.087  0.00  0.00    +0.019 C 
ATOM     18  C   UNL     1      -1.179  -1.527  24.285  0.00  0.00    +0.073 C 
ATOM     19  N   UNL     1      -1.463  -0.892  24.730  0.00  0.00    -0.263 NA
BRANCH  19  20
ATOM     20  C   UNL     1      -2.223  -0.820  25.042  0.00  0.00    +0.099 C 
BRANCH  20  21
ATOM     21  C   UNL     1      -2.841  -1.268  24.730  0.00  0.00    -0.006 A 
ATOM     22  C   UNL     1      -2.951  -2.047  24.978  0.00  0.00    -0.002 A 
ATOM     23  C   UNL     1      -3.570  -2.496  24.666  0.00  0.00    +0.011 A 
ATOM     24  C   UNL     1      -4.078  -2.165  24.107  0.00  0.00    +0.058 A 
ATOM     25 CL   UNL     1      -4.697  -2.614  23.795  0.00  0.00    -0.082 Cl
ATOM     26  C   UNL     1      -3.967  -1.386  23.859  0.00  0.00    +0.011 A 
ATOM     27  C   UNL     1      -3.349  -0.938  24.170  0.00  0.00    -0.002 A 
ENDBRANCH  20  21
ENDBRANCH  19  20
ENDBRANCH  13  15
TORSDOF 5
ENDMDL
MODEL 3
REMARK VINA RESULT:     -10.2      1.922      2.660
REMARK  Name = 
REMARK  5 active torsions:
REMARK  status: ('A' for Active; 'I' for Inactive)
REMARK    1  A    between atoms: N_2  and  C_4
REMARK    2  A    between atoms: C_7  and  C_10
REMARK    3  A    between atoms: C_13  and  C_15
REMARK    4  A    between atoms: N_19  and  C_20
REMARK    5  A    between atoms: C_20  and  C_21
REMARK                            x       y       z     vdW  Elec       q    Type
REMARK                         _______ _______ _______ _____ _____    ______ ____
ROOT
ATOM     10  C   UNL     1      -1.456   0.083  24.692  0.00  0.00    +0.205 A 
ATOM     11  N   UNL     1      -0.879   0.290  24.140  0.00  0.00    -0.056 NA
ATOM     12  O   UNL     1      -0.449   0.924  24.446  0.00  0.00    -0.336 OA
ATOM     13  C   UNL     1      -0.760   1.109  25.187  0.00  0.00    +0.251 A 
ATOM     14  N   UNL     1      -1.382   0.589  25.339  0.00  0.00    -0.190 NA
ENDROOT
BRANCH  10   7
ATOM      4  C   UNL     1      -3.116  -1.737  24.450  0.00  0.00    +0.132 A 
ATOM      5  C   UNL     1      -3.358  -0.949  24.409  0.00  0.00    +0.034 A 
ATOM      6  C   UNL     1      -2.804  -0.343  24.490  0.00  0.00    +0.008 A 
ATOM      7  C   UNL     1      -2.009  -0.524  24.611  0.00  0.00    +0.058 A 
ATOM      8  C   UNL     1      -1.766  -1.311  24.652  0.00  0.00    +0.103 A 
ATOM      9  N   UNL     1      -2.320  -1.918  24.571  0.00  0.00    -0.229 NA
BRANCH   4   2
ATOM      1  C   UNL     1      -4.319  -2.245  23.870  0.00  0.00    +0.114 C 
ATOM      2  N   UNL     1      -3.669  -2.343  24.369  0.00  0.00    -0.290 N 
ATOM      3  C   UNL     1      -3.572  -3.048  24.786  0.00  0.00    +0.114 C 
ENDBRANCH   4   2
ENDBRANCH  10   7
BRANCH  13  15
ATOM     15  C   UNL     1      -0.495   1.708  25.689  0.00  0.00    +0.138 C 
ATOM     16  C   UNL     1      -0.002   1.610  26.343  0.00  0.00    +0.027 C 
ATOM     17  C   UNL     1       0.121   2.352  26.683  0.00  0.00    +0.019 C 
ATOM     18  C   UNL     1      -0.297   2.908  26.239  0.00  0.00    +0.073 C 
ATOM     19  N   UNL     1      -0.678   2.510  25.624  0.00  0.00    -0.263 NA
BRANCH  19  20
ATOM     20  C   UNL     1      -1.156   2.854  25.048  0.00  0.00    +0.099 C 
BRANCH  20  21
ATOM     21  C   UNL     1      -1.303   3.665  25.063  0.00  0.00    -0.006 A 
ATOM     22  C   UNL     1      -0.759   4.190  24.733  0.00  0.00    -0.002 A 
ATOM     23  C   UNL     1      -0.906   5.002  24.749  0.00  0.00    +0.011 A 
ATOM     24  C   UNL     1      -1.598   5.289  25.095  0.00  0.00    +0.058 A 
ATOM     25 CL   UNL     1      -1.745   6.101  25.110  0.00  0.00    -0.082 Cl
ATOM     26  C   UNL     1      -2.142   4.764  25.424  0.00  0.00    +0.011 A 
ATOM     27  C   UNL     1      -1.995   3.953  25.409  0.00  0.00    -0.002 A 
ENDBRANCH  20  21
ENDBRANCH  19  20
ENDBRANCH  13  15
TORSDOF 5
ENDMDL
MODEL 4
REMARK VINA RESULT:      -9.8      2.060      5.215
REMARK  Name = 
REMARK  5 active torsions:
REMARK  status: ('A' for Active; 'I' for Inactive)
REMARK    1  A    between atoms: N_2  and  C_4
REMARK    2  A    between atoms: C_7  and  C_10
REMARK    3  A    between atoms: C_13  and  C_15
REMARK    4  A    between atoms: N_19  and  C_20
REMARK    5  A    between atoms: C_20  and  C_21
REMARK                            x       y       z     vdW  Elec       q    Type
REMARK                         _______ _______ _______ _____ _____    ______ ____
ROOT
ATOM     10  C   UNL     1      -3.393   2.977  24.444  0.00  0.00    +0.205 A 
ATOM     11  N   UNL     1      -3.899   3.049  23.796  0.00  0.00    -0.056 NA
ATOM     12  O   UNL     1      -4.512   2.504  23.890  0.00  0.00    -0.336 OA
ATOM     13  C   UNL     1      -4.384   2.095  24.595  0.00  0.00    +0.251 A 
ATOM     14  N   UNL     1      -3.692   2.388  24.937  0.00  0.00    -0.190 NA
ENDROOT
BRANCH  10   7
ATOM      4  C   UNL     1      -1.337   4.298  24.836  0.00  0.00    +0.132 A 
ATOM      5  C   UNL     1      -2.058   4.557  25.140  0.00  0.00    +0.034 A 
ATOM      6  C   UNL     1      -2.744   4.117  25.009  0.00  0.00    +0.008 A 
ATOM      7  C   UNL     1      -2.707   3.417  24.575  0.00  0.00    +0.058 A 
ATOM      8  C   UNL     1      -1.986   3.157  24.270  0.00  0.00    +0.103 A 
ATOM      9  N   UNL     1      -1.300   3.597  24.401  0.00  0.00    -0.229 NA
BRANCH   4   2
ATOM      1  C   UNL     1      -0.668   5.560  24.891  0.00  0.00    +0.114 C 
ATOM      2  N   UNL     1      -0.651   4.738  24.967  0.00  0.00    -0.290 N 
ATOM      3  C   UNL     1       0.050   4.357  25.174  0.00  0.00    +0.114 C 
ENDBRANCH   4   2
ENDBRANCH  10   7
BRANCH  13  15
ATOM     15  C   UNL     1      -4.862   1.499  24.904  0.00  0.00    +0.138 C 
ATOM     16  C   UNL     1      -5.570   1.609  25.315  0.00  0.00    +0.027 C 
ATOM     17  C   UNL     1      -5.863   0.866  25.521  0.00  0.00    +0.019 C 
ATOM     18  C   UNL     1      -5.337   0.296  25.237  0.00  0.00    +0.073 C 
ATOM     19  N   UNL     1      -4.719   0.688  24.856  0.00  0.00    -0.263 NA
BRANCH  19  20
ATOM     20  C   UNL     1      -4.071   0.330  24.491  0.00  0.00    +0.099 C 
BRANCH  20  21
ATOM     21  C   UNL     1      -3.963  -0.485  24.548  0.00  0.00    -0.006 A 
ATOM     22  C   UNL     1      -3.588  -0.806  25.209  0.00  0.00    -0.002 A 
ATOM     23  C   UNL     1      -3.479  -1.622  25.266  0.00  0.00    +0.011 A 
ATOM     24  C   UNL     1      -3.747  -2.117  24.663  0.00  0.00    +0.058 A 
ATOM     25 CL   UNL     1      -3.639  -2.933  24.720  0.00  0.00    -0.082 Cl
ATOM     26  C   UNL     1      -4.123  -1.796  24.002  0.00  0.00    +0.011 A 
ATOM     27  C   UNL     1      -4.231  -0.980  23.945  0.00  0.00    -0.002 A 
ENDBRANCH  20  21
ENDBRANCH  19  20
ENDBRANCH  13  15
TORSDOF 5
ENDMDL
MODEL 5
REMARK VINA RESULT:      -9.2      3.201      4.178
REMARK  Name = 
REMARK  5 active torsions:
REMARK  status: ('A' for Active; 'I' for Inactive)
REMARK    1  A    between atoms: N_2  and  C_4
REMARK    2  A    between atoms: C_7  and  C_10
REMARK    3  A    between atoms: C_13  and  C_15
REMARK    4  A    between atoms: N_19  and  C_20
REMARK    5  A    between atoms: C_20  and  C_21
REMARK                            x       y       z     vdW  Elec       q    Type
REMARK                         _______ _______ _______ _____ _____    ______ ____
ROOT
ATOM     10  C   UNL     1      -0.411   1.287  24.667  0.00  0.00    +0.205 A 
ATOM     11  N   UNL     1      -0.604   0.972  25.405  0.00  0.00    -0.056 NA
ATOM     12  O   UNL     1      -1.171   1.463  25.751  0.00  0.00    -0.336 OA
ATOM     13  C   UNL     1      -1.327   2.080  25.227  0.00  0.00    +0.251 A 
ATOM     14  N   UNL     1      -0.858   1.971  24.557  0.00  0.00    -0.190 NA
ENDROOT
BRANCH  10   7
ATOM      4  C   UNL     1       1.223   0.342  23.066  0.00  0.00    +0.132 A 
ATOM      5  C   UNL     1       0.530  -0.070  23.240  0.00  0.00    +0.034 A 
ATOM      6  C   UNL     1      -0.015   0.245  23.774  0.00  0.00    +0.008 A 
ATOM      7  C   UNL     1       0.134   0.972  24.133  0.00  0.00    +0.058 A 
ATOM      8  C   UNL     1       0.827   1.385  23.960  0.00  0.00    +0.103 A 
ATOM      9  N   UNL     1       1.372   1.070  23.427  0.00  0.00    -0.229 NA
BRANCH   4   2
ATOM      1  C   UNL     1       2.577   0.117  22.668  0.00  0.00    +0.114 C 
ATOM      2  N   UNL     1       1.768   0.027  22.533  0.00  0.00    -0.290 N 
ATOM      3  C   UNL     1       1.504  -0.377  21.864  0.00  0.00    +0.114 C 
ENDBRANCH   4   2
ENDBRANCH  10   7
BRANCH  13  15
ATOM     15  C   UNL     1      -1.860   2.698  25.350  0.00  0.00    +0.138 C 
ATOM     16  C   UNL     1      -1.694   3.413  25.727  0.00  0.00    +0.027 C 
ATOM     17  C   UNL     1      -2.383   3.866  25.728  0.00  0.00    +0.019 C 
ATOM     18  C   UNL     1      -2.975   3.432  25.351  0.00  0.00    +0.073 C 
ATOM     19  N   UNL     1      -2.652   2.709  25.118  0.00  0.00    -0.263 NA
BRANCH  19  20
ATOM     20  C   UNL     1      -3.050   2.105  24.722  0.00  0.00    +0.099 C 
BRANCH  20  21
ATOM     21  C   UNL     1      -3.871   2.051  24.771  0.00  0.00    -0.006 A 
ATOM     22  C   UNL     1      -4.219   1.503  25.279  0.00  0.00    -0.002 A 
ATOM     23  C   UNL     1      -5.041   1.448  25.329  0.00  0.00    +0.011 A 
ATOM     24  C   UNL     1      -5.515   1.943  24.869  0.00  0.00    +0.058 A 
ATOM     25 CL   UNL     1      -6.337   1.889  24.918  0.00  0.00    -0.082 Cl
ATOM     26  C   UNL     1      -5.167   2.491  24.360  0.00  0.00    +0.011 A 
ATOM     27  C   UNL     1      -4.346   2.546  24.311  0.00  0.00    -0.002 A 
ENDBRANCH  20  21
ENDBRANCH  19  20
ENDBRANCH  13  15
TORSDOF 5
ENDMDL
MODEL 6
REMARK VINA RESULT:      -9.2      2.888      3.873
REMARK  Name = 
REMARK  5 active torsions:
REMARK  status: ('A' for Active; 'I' for Inactive)
REMARK    1  A    between atoms: N_2  and  C_4
REMARK    2  A    between atoms: C_7  and  C_10
REMARK    3  A    between atoms: C_13  and  C_15
REMARK    4  A    between atoms: N_19  and  C_20
REMARK    5  A    between atoms: C_20  and  C_21
REMARK                            x       y       z     vdW  Elec       q    Type
REMARK                         _______ _______ _______ _____ _____    ______ ____
ROOT
ATOM     10  C   UNL     1      -1.049   0.091  24.523  0.00  0.00    +0.205 A 
ATOM     11  N   UNL     1      -1.081   0.057  25.347  0.00  0.00    -0.056 NA
ATOM     12  O   UNL     1      -1.875   0.078  25.572  0.00  0.00    -0.336 OA
ATOM     13  C   UNL     1      -2.333   0.125  24.887  0.00  0.00    +0.251 A 
ATOM     14  N   UNL     1      -1.822   0.132  24.239  0.00  0.00    -0.190 NA
ENDROOT
BRANCH  10   7
ATOM      4  C   UNL     1       1.008   0.070  23.147  0.00  0.00    +0.132 A 
ATOM      5  C   UNL     1       0.664   0.787  23.364  0.00  0.00    +0.034 A 
ATOM      6  C   UNL     1      -0.022   0.794  23.823  0.00  0.00    +0.008 A 
ATOM      7  C   UNL     1      -0.363   0.084  24.064  0.00  0.00    +0.058 A 
ATOM      8  C   UNL     1      -0.020  -0.635  23.847  0.00  0.00    +0.103 A 
ATOM      9  N   UNL     1       0.665  -0.642  23.388  0.00  0.00    -0.229 NA
BRANCH   4   2
ATOM      1  C   UNL     1       2.388   0.399  22.980  0.00  0.00    +0.114 C 
ATOM      2  N   UNL     1       1.693   0.063  22.688  0.00  0.00    -0.290 N 
ATOM      3  C   UNL     1       1.684  -0.280  21.938  0.00  0.00    +0.114 C 
ENDBRANCH   4   2
ENDBRANCH  10   7
BRANCH  13  15
ATOM     15  C   UNL     1      -3.156   0.158  24.856  0.00  0.00    +0.138 C 
ATOM     16  C   UNL     1      -3.667  -0.490  24.831  0.00  0.00    +0.027 C 
ATOM     17  C   UNL     1      -4.440  -0.205  24.803  0.00  0.00    +0.019 C 
ATOM     18  C   UNL     1      -4.408   0.620  24.811  0.00  0.00    +0.073 C 
ATOM     19  N   UNL     1      -3.614   0.844  24.844  0.00  0.00    -0.263 NA
BRANCH  19  20
ATOM     20  C   UNL     1      -3.330   1.617  24.862  0.00  0.00    +0.099 C 
BRANCH  20  21
ATOM     21  C   UNL     1      -3.852   2.247  24.963  0.00  0.00    -0.006 A 
ATOM     22  C   UNL     1      -4.103   2.457  25.720  0.00  0.00    -0.002 A 
ATOM     23  C   UNL     1      -4.626   3.088  25.822  0.00  0.00    +0.011 A 
ATOM     24  C   UNL     1      -4.897   3.508  25.165  0.00  0.00    +0.058 A 
ATOM     25 CL   UNL     1      -5.420   4.139  25.267  0.00  0.00    -0.082 Cl
ATOM     26  C   UNL     1      -4.646   3.298  24.408  0.00  0.00    +0.011 A 
ATOM     27  C   UNL     1      -4.124   2.668  24.307  0.00  0.00    -0.002 A 
ENDBRANCH  20  21
ENDBRANCH  19  20
ENDBRANCH  13  15
TORSDOF 5
ENDMDL
MODEL 7
REMARK VINA RESULT:      -9.1      2.288      3.141
REMARK  Name = 
REMARK  5 active torsions:
REMARK  status: ('A' for Active; 'I' for Inactive)
REMARK    1  A    between atoms: N_2  and  C_4
REMARK    2  A    between atoms: C_7  and  C_10
REMARK    3  A    between atoms: C_13  and  C_15
REMARK    4  A    between atoms: N_19  and  C_20
REMARK    5  A    between atoms: C_20  and  C_21
REMARK                            x       y       z     vdW  Elec       q    Type
REMARK                         _______ _______ _______ _____ _____    ______ ____
ROOT
ATOM     10  C   UNL     1      -0.729   1.391  25.459  0.00  0.00    +0.205 A 
ATOM     11  N   UNL     1      -0.170   1.745  25.953  0.00  0.00    -0.056 NA
ATOM     12  O   UNL     1      -0.309   2.559  25.952  0.00  0.00    -0.336 OA
ATOM     13  C   UNL     1      -0.954   2.707  25.459  0.00  0.00    +0.251 A 
ATOM     14  N   UNL     1      -1.213   1.985  25.155  0.00  0.00    -0.190 NA
ENDROOT
BRANCH  10   7
ATOM      4  C   UNL     1      -0.918  -1.030  24.980  0.00  0.00    +0.132 A 
ATOM      5  C   UNL     1      -1.251  -0.718  25.667  0.00  0.00    +0.034 A 
ATOM      6  C   UNL     1      -1.188   0.089  25.826  0.00  0.00    +0.008 A 
ATOM      7  C   UNL     1      -0.792   0.584  25.299  0.00  0.00    +0.058 A 
ATOM      8  C   UNL     1      -0.458   0.273  24.612  0.00  0.00    +0.103 A 
ATOM      9  N   UNL     1      -0.521  -0.534  24.452  0.00  0.00    -0.229 NA
BRANCH   4   2
ATOM      1  C   UNL     1      -0.398  -2.357  25.087  0.00  0.00    +0.114 C 
ATOM      2  N   UNL     1      -0.981  -1.837  24.820  0.00  0.00    -0.290 N 
ATOM      3  C   UNL     1      -1.626  -2.124  24.394  0.00  0.00    +0.114 C 
ENDBRANCH   4   2
ENDBRANCH  10   7
BRANCH  13  15
ATOM     15  C   UNL     1      -1.282   3.446  25.299  0.00  0.00    +0.138 C 
ATOM     16  C   UNL     1      -0.863   4.138  25.136  0.00  0.00    +0.027 C 
ATOM     17  C   UNL     1      -1.408   4.743  25.009  0.00  0.00    +0.019 C 
ATOM     18  C   UNL     1      -2.165   4.426  25.094  0.00  0.00    +0.073 C 
ATOM     19  N   UNL     1      -2.087   3.624  25.273  0.00  0.00    -0.263 NA
BRANCH  19  20
ATOM     20  C   UNL     1      -2.706   3.094  25.402  0.00  0.00    +0.099 C 
BRANCH  20  21
ATOM     21  C   UNL     1      -3.485   3.363  25.409  0.00  0.00    -0.006 A 
ATOM     22  C   UNL     1      -3.938   3.332  24.720  0.00  0.00    -0.002 A 
ATOM     23  C   UNL     1      -4.719   3.601  24.727  0.00  0.00    +0.011 A 
ATOM     24  C   UNL     1      -5.045   3.902  25.422  0.00  0.00    +0.058 A 
ATOM     25 CL   UNL     1      -5.825   4.171  25.428  0.00  0.00    -0.082 Cl
ATOM     26  C   UNL     1      -4.592   3.933  26.111  0.00  0.00    +0.011 A 
ATOM     27  C   UNL     1      -3.813   3.664  26.104  0.00  0.00    -0.002 A 
ENDBRANCH  20  21
ENDBRANCH  19  20
ENDBRANCH  13  15
TORSDOF 5
ENDMDL
