MODEL 1
REMARK VINA RESULT:     -11.5      0.000      0.000
REMARK  Name = 
REMARK  6 active torsions:
REMARK  status: ('A' for Active; 'I' for Inactive)
REMARK    1  A    between atoms: O_2  and  C_3
REMARK    2  A    between atoms: C_3  and  C_4
REMARK    3  A    between atoms: N_9  and  S_22
REMARK    4  A    between atoms: C_10  and  C_12
REMARK    5  A    between atoms: N_14  and  C_15
REMARK    6  A    between atoms: S_22  and  C_25
REMARK                            x       y       z     vdW  Elec       q    Type
REMARK                         _______ _______ _______ _____ _____    ______ ____
ROOT
ATOM      4  C   UNL     1      -4.623   2.969  25.390  0.00  0.00    +0.256 C 
ATOM      5  O   UNL     1      -5.347   3.223  25.693  0.00  0.00    -0.272 OA
ATOM      6  N   UNL     1      -4.496   2.170  25.237  0.00  0.00    -0.274 N 
ATOM      7  C   UNL     1      -5.094   1.621  25.388  0.00  0.00    +0.113 C 
ATOM      8  C   UNL     1      -4.967   0.820  25.235  0.00  0.00    +0.118 C 
ATOM      9  N   UNL     1      -4.244   0.568  24.932  0.00  0.00    -0.145 NA
ATOM     10  C   UNL     1      -3.645   1.116  24.781  0.00  0.00    +0.177 C 
ATOM     11  C   UNL     1      -3.771   1.916  24.934  0.00  0.00    +0.121 C 
ENDROOT
BRANCH  10  12
ATOM     12  C   UNL     1      -2.920   0.863  24.478  0.00  0.00    +0.260 C 
ATOM     13  O   UNL     1      -2.889   0.476  23.751  0.00  0.00    -0.272 OA
ATOM     14  N   UNL     1      -2.226   0.999  24.903  0.00  0.00    -0.197 NA
BRANCH  14  15
ATOM     15  C   UNL     1      -1.501   0.748  24.601  0.00  0.00    +0.173 C 
ATOM     16  C   UNL     1      -1.357   0.783  23.790  0.00  0.00    +0.033 C 
ATOM     17  C   UNL     1      -0.631   0.532  23.488  0.00  0.00    +0.026 C 
ATOM     18  C   UNL     1      -0.050   0.244  23.998  0.00  0.00    +0.115 C 
ATOM     19  N   UNL     1      -0.194   0.208  24.810  0.00  0.00    -0.204 NA
ATOM     20  C   UNL     1      -0.920   0.460  25.112  0.00  0.00    +0.261 C 
ATOM     21  O   UNL     1      -1.065   0.425  25.923  0.00  0.00    -0.271 OA
ENDBRANCH  14  15
ENDBRANCH  10  12
BRANCH   9  22
ATOM     22  S   UNL     1      -4.117  -0.233  24.780  0.00  0.00    +0.064 S 
ATOM     23  O   UNL     1      -3.933  -0.355  25.575  0.00  0.00    -0.153 OA
ATOM     24  O   UNL     1      -4.301  -0.111  23.985  0.00  0.00    -0.153 OA
BRANCH  22  25
ATOM     25  C   UNL     1      -3.991  -1.034  24.627  0.00  0.00    +0.122 A 
ATOM     26  C   UNL     1      -4.200  -1.353  23.896  0.00  0.00    +0.022 A 
ATOM     27  C   UNL     1      -4.074  -2.154  23.743  0.00  0.00    +0.031 A 
ATOM     28  C   UNL     1      -3.738  -2.637  24.322  0.00  0.00    +0.140 A 
ATOM     29  F   UNL     1      -3.611  -3.437  24.169  0.00  0.00    -0.204 F 
ATOM     30  C   UNL     1      -3.528  -2.317  25.054  0.00  0.00    +0.031 A 
ATOM     31  C   UNL     1      -3.654  -1.517  25.207  0.00  0.00    +0.022 A 
ENDBRANCH  22  25
ENDBRANCH   9  22
BRANCH   4   3
ATOM      3  C   UNL     1      -4.024   3.518  25.239  0.00  0.00    +0.227 C 
BRANCH   3   2
ATOM      1  C   UNL     1      -3.221   4.587  25.743  0.00  0.00    +0.175 C 
ATOM      2  O   UNL     1      -3.938   4.179  25.725  0.00  0.00    -0.342 OA
ENDBRANCH   3   2
ENDBRANCH   4   3
TORSDOF 6
ENDMDL
MODEL 2
REMARK VINA RESULT:     -10.4      1.400      3.053
REMARK  Name = 
REMARK  6 active torsions:
REMARK  status: ('A' for Active; 'I' for Inactive)
REMARK    1  A    between atoms: O_2  and  C_3
REMARK    2  A    between atoms: C_3  and  C_4
REMARK    3  A    between atoms: N_9  and  S_22
REMARK    4  A    between atoms: C_10  and  C_12
REMARK    5  A    between atoms: N_14  and  C_15
REMARK    6  A    between atoms: S_22  and  C_25
REMARK                            x       y       z     vdW  Elec       q    Type
REMARK                         _______ _______ _______ _____ _____    ______ ____
ROOT
ATOM      4  C   UNL     1      -4.270   3.060  25.369  0.00  0.00    +0.256 C 
ATOM      5  O   UNL     1      -4.147   3.846  25.590  0.00  0.00    -0.272 OA
ATOM      6  N   UNL     1      -3.631   2.590  25.147  0.00  0.00    -0.274 N 
ATOM      7  C   UNL     1      -2.868   2.903  25.144  0.00  0.00    +0.113 C 
ATOM      8  C   UNL     1      -2.229   2.431  24.921  0.00  0.00    +0.118 C 
ATOM      9  N   UNL     1      -2.353   1.647  24.701  0.00  0.00    -0.145 NA
ATOM     10  C   UNL     1      -3.116   1.332  24.703  0.00  0.00    +0.177 C 
ATOM     11  C   UNL     1      -3.755   1.804  24.926  0.00  0.00    +0.121 C 
ENDROOT
BRANCH  10  12
ATOM     12  C   UNL     1      -3.240   0.547  24.483  0.00  0.00    +0.260 C 
ATOM     13  O   UNL     1      -3.041   0.294  23.724  0.00  0.00    -0.272 OA
ATOM     14  N   UNL     1      -3.564   0.014  25.023  0.00  0.00    -0.197 NA
BRANCH  14  15
ATOM     15  C   UNL     1      -3.689  -0.772  24.804  0.00  0.00    +0.173 C 
ATOM     16  C   UNL     1      -3.919  -0.954  24.033  0.00  0.00    +0.033 C 
ATOM     17  C   UNL     1      -4.044  -1.739  23.814  0.00  0.00    +0.026 C 
ATOM     18  C   UNL     1      -3.939  -2.343  24.367  0.00  0.00    +0.115 C 
ATOM     19  N   UNL     1      -3.709  -2.161  25.138  0.00  0.00    -0.204 NA
ATOM     20  C   UNL     1      -3.584  -1.375  25.357  0.00  0.00    +0.261 C 
ATOM     21  O   UNL     1      -3.353  -1.192  26.128  0.00  0.00    -0.271 OA
ENDBRANCH  14  15
ENDBRANCH  10  12
BRANCH   9  22
ATOM     22  S   UNL     1      -1.714   1.175  24.478  0.00  0.00    +0.064 S 
ATOM     23  O   UNL     1      -1.557   1.013  25.273  0.00  0.00    -0.153 OA
ATOM     24  O   UNL     1      -1.871   1.337  23.685  0.00  0.00    -0.153 OA
BRANCH  22  25
ATOM     25  C   UNL     1      -1.074   0.704  24.255  0.00  0.00    +0.122 A 
ATOM     26  C   UNL     1      -0.793   0.728  23.480  0.00  0.00    +0.022 A 
ATOM     27  C   UNL     1      -0.154   0.257  23.257  0.00  0.00    +0.031 A 
ATOM     28  C   UNL     1       0.205  -0.240  23.809  0.00  0.00    +0.140 A 
ATOM     29  F   UNL     1       0.844  -0.712  23.586  0.00  0.00    -0.204 F 
ATOM     30  C   UNL     1      -0.076  -0.265  24.585  0.00  0.00    +0.031 A 
ATOM     31  C   UNL     1      -0.715   0.206  24.808  0.00  0.00    +0.022 A 
ENDBRANCH  22  25
ENDBRANCH   9  22
BRANCH   4   3
ATOM      3  C   UNL     1      -5.034   2.747  25.372  0.00  0.00    +0.227 C 
BRANCH   3   2
ATOM      1  C   UNL     1      -6.308   2.680  26.013  0.00  0.00    +0.175 C 
ATOM      2  O   UNL     1      -5.624   3.101  25.826  0.00  0.00    -0.342 OA
ENDBRANCH   3   2
ENDBRANCH   4   3
TORSDOF 6
ENDMDL
MODEL 3
REMARK VINA RESULT:     -10.2      2.027      4.315
REMARK  Name = 
REMARK  6 active torsions:
REMARK  status: ('A' for Active; 'I' for Inactive)
REMARK    1  A    between atoms: O_2  and  C_3
REMARK    2  A    between atoms: C_3  and  C_4
REMARK    3  A    between atoms: N_9  and  S_22
REMARK    4  A    between atoms: C_10  and  C_12
REMARK    5  A    between atoms: N_14  and  C_15
REMARK    6  A    between atoms: S_22  and  C_25
REMARK                            x       y       z     vdW  Elec       q    Type
REMARK                         _______ _______ _______ _____ _____    ______ ____
ROOT
ATOM      4  C   UNL     1       0.357   1.459  23.926  0.00  0.00    +0.256 C 
ATOM      5  O   UNL     1       0.980   1.997  23.987  0.00  0.00    -0.272 OA
ATOM      6  N   UNL     1      -0.412   1.698  24.098  0.00  0.00    -0.274 N 
ATOM      7  C   UNL     1      -0.561   2.475  24.333  0.00  0.00    +0.113 C 
ATOM      8  C   UNL     1      -1.331   2.714  24.506  0.00  0.00    +0.118 C 
ATOM      9  N   UNL     1      -1.953   2.177  24.444  0.00  0.00    -0.145 NA
ATOM     10  C   UNL     1      -1.806   1.399  24.210  0.00  0.00    +0.177 C 
ATOM     11  C   UNL     1      -1.036   1.160  24.037  0.00  0.00    +0.121 C 
ENDROOT
BRANCH  10  12
ATOM     12  C   UNL     1      -2.428   0.861  24.148  0.00  0.00    +0.260 C 
ATOM     13  O   UNL     1      -3.047   1.003  23.622  0.00  0.00    -0.272 OA
ATOM     14  N   UNL     1      -2.431   0.180  24.614  0.00  0.00    -0.197 NA
BRANCH  14  15
ATOM     15  C   UNL     1      -3.053  -0.359  24.553  0.00  0.00    +0.173 C 
ATOM     16  C   UNL     1      -3.465  -0.436  23.842  0.00  0.00    +0.033 C 
ATOM     17  C   UNL     1      -4.086  -0.975  23.782  0.00  0.00    +0.026 C 
ATOM     18  C   UNL     1      -4.295  -1.438  24.433  0.00  0.00    +0.115 C 
ATOM     19  N   UNL     1      -3.883  -1.361  25.143  0.00  0.00    -0.204 NA
ATOM     20  C   UNL     1      -3.261  -0.821  25.203  0.00  0.00    +0.261 C 
ATOM     21  O   UNL     1      -2.849  -0.744  25.914  0.00  0.00    -0.271 OA
ENDBRANCH  14  15
ENDBRANCH  10  12
BRANCH   9  22
ATOM     22  S   UNL     1      -2.724   2.416  24.617  0.00  0.00    +0.064 S 
ATOM     23  O   UNL     1      -2.588   2.272  25.419  0.00  0.00    -0.153 OA
ATOM     24  O   UNL     1      -2.859   2.559  23.816  0.00  0.00    -0.153 OA
BRANCH  22  25
ATOM     25  C   UNL     1      -3.494   2.655  24.790  0.00  0.00    +0.122 A 
ATOM     26  C   UNL     1      -4.001   2.886  24.182  0.00  0.00    +0.022 A 
ATOM     27  C   UNL     1      -4.771   3.125  24.355  0.00  0.00    +0.031 A 
ATOM     28  C   UNL     1      -5.036   3.134  25.136  0.00  0.00    +0.140 A 
ATOM     29  F   UNL     1      -5.806   3.373  25.309  0.00  0.00    -0.204 F 
ATOM     30  C   UNL     1      -4.528   2.903  25.745  0.00  0.00    +0.031 A 
ATOM     31  C   UNL     1      -3.758   2.664  25.573  0.00  0.00    +0.022 A 
ENDBRANCH  22  25
ENDBRANCH   9  22
BRANCH   4   3
ATOM      3  C   UNL     1       0.505   0.682  23.691  0.00  0.00    +0.227 C 
BRANCH   3   2
ATOM      1  C   UNL     1       1.297  -0.229  22.927  0.00  0.00    +0.175 C 
ATOM      2  O   UNL     1       1.218   0.491  23.322  0.00  0.00    -0.342 OA
ENDBRANCH   3   2
ENDBRANCH   4   3
TORSDOF 6
ENDMDL
MODEL 4
REMARK VINA RESULT:     -10.2      2.443      5.086
REMARK  Name = 
REMARK  6 active torsions:
REMARK  status: ('A' for Active; 'I' for Inactive)
REMARK    1  A    between atoms: O_2  and  C_3
REMARK    2  A    between atoms: C_3  and  C_4
REMARK    3  A    between atoms: N_9  and  S_22
REMARK    4  A    between atoms: C_10  and  C_12
REMARK    5  A    between atoms: N_14  and  C_15
REMARK    6  A    between atoms: S_22  and  C_25
REMARK                            x       y       z     vdW  Elec       q    Type
REMARK                         _______ _______ _______ _____ _____    ______ ____
ROOT
ATOM      4  C   UNL     1      -1.644  -1.440  24.608  0.00  0.00    +0.256 C 
ATOM      5  O   UNL     1      -1.019  -1.965  24.488  0.00  0.00    -0.272 OA
ATOM      6  N   UNL     1      -1.499  -0.631  24.664  0.00  0.00    -0.274 N 
ATOM      7  C   UNL     1      -0.729  -0.344  24.600  0.00  0.00    +0.113 C 
ATOM      8  C   UNL     1      -0.584   0.466  24.656  0.00  0.00    +0.118 C 
ATOM      9  N   UNL     1      -1.209   0.989  24.776  0.00  0.00    -0.145 NA
ATOM     10  C   UNL     1      -1.981   0.703  24.840  0.00  0.00    +0.177 C 
ATOM     11  C   UNL     1      -2.126  -0.107  24.784  0.00  0.00    +0.121 C 
ENDROOT
BRANCH  10  12
ATOM     12  C   UNL     1      -2.607   1.227  24.960  0.00  0.00    +0.260 C 
ATOM     13  O   UNL     1      -2.632   1.692  25.640  0.00  0.00    -0.272 OA
ATOM     14  N   UNL     1      -3.210   1.284  24.400  0.00  0.00    -0.197 NA
BRANCH  14  15
ATOM     15  C   UNL     1      -3.837   1.807  24.519  0.00  0.00    +0.173 C 
ATOM     16  C   UNL     1      -4.175   1.882  25.267  0.00  0.00    +0.033 C 
ATOM     17  C   UNL     1      -4.802   2.405  25.386  0.00  0.00    +0.026 C 
ATOM     18  C   UNL     1      -5.091   2.853  24.755  0.00  0.00    +0.115 C 
ATOM     19  N   UNL     1      -4.752   2.777  24.007  0.00  0.00    -0.204 NA
ATOM     20  C   UNL     1      -4.124   2.254  23.888  0.00  0.00    +0.261 C 
ATOM     21  O   UNL     1      -3.786   2.179  23.140  0.00  0.00    -0.271 OA
ENDBRANCH  14  15
ENDBRANCH  10  12
BRANCH   9  22
ATOM     22  S   UNL     1      -1.064   1.799  24.832  0.00  0.00    +0.064 S 
ATOM     23  O   UNL     1      -1.079   1.859  24.008  0.00  0.00    -0.153 OA
ATOM     24  O   UNL     1      -1.050   1.740  25.655  0.00  0.00    -0.153 OA
BRANCH  22  25
ATOM     25  C   UNL     1      -0.919   2.610  24.888  0.00  0.00    +0.122 A 
ATOM     26  C   UNL     1      -0.889   2.974  25.628  0.00  0.00    +0.022 A 
ATOM     27  C   UNL     1      -0.744   3.784  25.684  0.00  0.00    +0.031 A 
ATOM     28  C   UNL     1      -0.629   4.231  25.000  0.00  0.00    +0.140 A 
ATOM     29  F   UNL     1      -0.484   5.041  25.056  0.00  0.00    -0.204 F 
ATOM     30  C   UNL     1      -0.659   3.867  24.260  0.00  0.00    +0.031 A 
ATOM     31  C   UNL     1      -0.804   3.057  24.204  0.00  0.00    +0.022 A 
ENDBRANCH  22  25
ENDBRANCH   9  22
BRANCH   4   3
ATOM      3  C   UNL     1      -2.416  -1.727  24.672  0.00  0.00    +0.227 C 
BRANCH   3   2
ATOM      1  C   UNL     1      -3.343  -2.812  24.598  0.00  0.00    +0.175 C 
ATOM      2  O   UNL     1      -2.569  -2.529  24.553  0.00  0.00    -0.342 OA
ENDBRANCH   3   2
ENDBRANCH   4   3
TORSDOF 6
ENDMDL
MODEL 5
REMARK VINA RESULT:     -10.2      1.467      3.264
REMARK  Name = 
REMARK  6 active torsions:
REMARK  status: ('A' for Active; 'I' for Inactive)
REMARK    1  A    between atoms: O_2  and  C_3
REMARK    2  A    between atoms: C_3  and  C_4
REMARK    3  A    between atoms: N_9  and  S_22
REMARK    4  A    between atoms: C_10  and  C_12
REMARK    5  A    between atoms: N_14  and  C_15
REMARK    6  A    between atoms: S_22  and  C_25
REMARK                            x       y       z     vdW  Elec       q    Type
REMARK                         _______ _______ _______ _____ _____    ______ ____
ROOT
ATOM      4  C   UNL     1      -0.708   2.738  24.739  0.00  0.00    +0.256 C 
ATOM      5  O   UNL     1       0.088   2.714  24.526  0.00  0.00    -0.272 OA
ATOM      6  N   UNL     1      -1.171   2.059  24.684  0.00  0.00    -0.274 N 
ATOM      7  C   UNL     1      -0.838   1.353  24.417  0.00  0.00    +0.113 C 
ATOM      8  C   UNL     1      -1.301   0.672  24.362  0.00  0.00    +0.118 C 
ATOM      9  N   UNL     1      -2.097   0.697  24.575  0.00  0.00    -0.145 NA
ATOM     10  C   UNL     1      -2.431   1.403  24.842  0.00  0.00    +0.177 C 
ATOM     11  C   UNL     1      -1.968   2.083  24.897  0.00  0.00    +0.121 C 
ENDROOT
BRANCH  10  12
ATOM     12  C   UNL     1      -3.228   1.428  25.055  0.00  0.00    +0.260 C 
ATOM     13  O   UNL     1      -3.526   0.890  25.603  0.00  0.00    -0.272 OA
ATOM     14  N   UNL     1      -3.726   1.993  24.718  0.00  0.00    -0.197 NA
BRANCH  14  15
ATOM     15  C   UNL     1      -4.523   2.019  24.930  0.00  0.00    +0.173 C 
ATOM     16  C   UNL     1      -4.757   1.794  25.688  0.00  0.00    +0.033 C 
ATOM     17  C   UNL     1      -5.553   1.820  25.900  0.00  0.00    +0.026 C 
ATOM     18  C   UNL     1      -6.117   2.073  25.352  0.00  0.00    +0.115 C 
ATOM     19  N   UNL     1      -5.884   2.299  24.594  0.00  0.00    -0.204 NA
ATOM     20  C   UNL     1      -5.086   2.272  24.382  0.00  0.00    +0.261 C 
ATOM     21  O   UNL     1      -4.853   2.498  23.624  0.00  0.00    -0.271 OA
ENDBRANCH  14  15
ENDBRANCH  10  12
BRANCH   9  22
ATOM     22  S   UNL     1      -2.560   0.017  24.520  0.00  0.00    +0.064 S 
ATOM     23  O   UNL     1      -2.392  -0.161  25.309  0.00  0.00    -0.153 OA
ATOM     24  O   UNL     1      -2.727   0.194  23.732  0.00  0.00    -0.153 OA
BRANCH  22  25
ATOM     25  C   UNL     1      -3.023  -0.664  24.465  0.00  0.00    +0.122 A 
ATOM     26  C   UNL     1      -3.497  -0.789  23.802  0.00  0.00    +0.022 A 
ATOM     27  C   UNL     1      -3.960  -1.470  23.747  0.00  0.00    +0.031 A 
ATOM     28  C   UNL     1      -3.949  -2.026  24.356  0.00  0.00    +0.140 A 
ATOM     29  F   UNL     1      -4.412  -2.707  24.301  0.00  0.00    -0.204 F 
ATOM     30  C   UNL     1      -3.475  -1.902  25.020  0.00  0.00    +0.031 A 
ATOM     31  C   UNL     1      -3.012  -1.221  25.075  0.00  0.00    +0.022 A 
ENDBRANCH  22  25
ENDBRANCH   9  22
BRANCH   4   3
ATOM      3  C   UNL     1      -1.042   3.445  25.006  0.00  0.00    +0.227 C 
BRANCH   3   2
ATOM      1  C   UNL     1      -1.015   4.872  25.058  0.00  0.00    +0.175 C 
ATOM      2  O   UNL     1      -0.632   4.155  24.917  0.00  0.00    -0.342 OA
ENDBRANCH   3   2
ENDBRANCH   4   3
TORSDOF 6
ENDMDL
MODEL 6
REMARK VINA RESULT:     -10.0      2.089      4.088
REMARK  Name = 
REMARK  6 active torsions:
REMARK  status: ('A' for Active; 'I' for Inactive)
REMARK    1  A    between atoms: O_2  and  C_3
REMARK    2  A    between atoms: C_3  and  C_4
REMARK    3  A    between atoms: N_9  and  S_22
REMARK    4  A    between atoms: C_10  and  C_12
REMARK    5  A    between atoms: N_14  and  C_15
REMARK    6  A    between atoms: S_22  and  C_25
REMARK                            x       y       z     vdW  Elec       q    Type
REMARK                         _______ _______ _______ _____ _____    ______ ____
ROOT
ATOM      4  C   UNL     1      -3.289  -1.878  24.432  0.00  0.00    +0.256 C 
ATOM      5  O   UNL     1      -3.885  -2.390  24.179  0.00  0.00    -0.272 OA
ATOM      6  N   UNL     1      -3.417  -1.064  24.431  0.00  0.00    -0.274 N 
ATOM      7  C   UNL     1      -4.140  -0.760  24.177  0.00  0.00    +0.113 C 
ATOM      8  C   UNL     1      -4.268   0.055  24.176  0.00  0.00    +0.118 C 
ATOM      9  N   UNL     1      -3.673   0.566  24.430  0.00  0.00    -0.145 NA
ATOM     10  C   UNL     1      -2.949   0.262  24.684  0.00  0.00    +0.177 C 
ATOM     11  C   UNL     1      -2.821  -0.553  24.685  0.00  0.00    +0.121 C 
ENDROOT
BRANCH  10  12
ATOM     12  C   UNL     1      -2.352   0.773  24.938  0.00  0.00    +0.260 C 
ATOM     13  O   UNL     1      -2.493   1.296  25.560  0.00  0.00    -0.272 OA
ATOM     14  N   UNL     1      -1.614   0.760  24.569  0.00  0.00    -0.197 NA
BRANCH  14  15
ATOM     15  C   UNL     1      -1.018   1.271  24.822  0.00  0.00    +0.173 C 
ATOM     16  C   UNL     1      -0.974   1.495  25.615  0.00  0.00    +0.033 C 
ATOM     17  C   UNL     1      -0.377   2.005  25.867  0.00  0.00    +0.026 C 
ATOM     18  C   UNL     1       0.177   2.291  25.326  0.00  0.00    +0.115 C 
ATOM     19  N   UNL     1       0.134   2.066  24.534  0.00  0.00    -0.204 NA
ATOM     20  C   UNL     1      -0.464   1.556  24.281  0.00  0.00    +0.261 C 
ATOM     21  O   UNL     1      -0.507   1.331  23.489  0.00  0.00    -0.271 OA
ENDBRANCH  14  15
ENDBRANCH  10  12
BRANCH   9  22
ATOM     22  S   UNL     1      -3.800   1.381  24.429  0.00  0.00    +0.064 S 
ATOM     23  O   UNL     1      -3.558   1.418  23.640  0.00  0.00    -0.153 OA
ATOM     24  O   UNL     1      -4.042   1.344  25.217  0.00  0.00    -0.153 OA
BRANCH  22  25
ATOM     25  C   UNL     1      -3.928   2.196  24.428  0.00  0.00    +0.122 A 
ATOM     26  C   UNL     1      -4.235   2.566  25.098  0.00  0.00    +0.022 A 
ATOM     27  C   UNL     1      -4.363   3.381  25.097  0.00  0.00    +0.031 A 
ATOM     28  C   UNL     1      -4.184   3.827  24.426  0.00  0.00    +0.140 A 
ATOM     29  F   UNL     1      -4.311   4.642  24.425  0.00  0.00    -0.204 F 
ATOM     30  C   UNL     1      -3.876   3.456  23.756  0.00  0.00    +0.031 A 
ATOM     31  C   UNL     1      -3.748   2.641  23.756  0.00  0.00    +0.022 A 
ENDBRANCH  22  25
ENDBRANCH   9  22
BRANCH   4   3
ATOM      3  C   UNL     1      -2.565  -2.183  24.687  0.00  0.00    +0.227 C 
BRANCH   3   2
ATOM      1  C   UNL     1      -1.456  -3.033  24.390  0.00  0.00    +0.175 C 
ATOM      2  O   UNL     1      -2.264  -2.871  24.346  0.00  0.00    -0.342 OA
ENDBRANCH   3   2
ENDBRANCH   4   3
TORSDOF 6
ENDMDL
