MODEL 1
REMARK VINA RESULT:      -8.9      0.000      0.000
REMARK  Name = 
REMARK  7 active torsions:
REMARK  status: ('A' for Active; 'I' for Inactive)
REMARK    1  A    between atoms: O_2  and  C_3
REMARK    2  A    between atoms: C_3  and  C_4
REMARK    3  A    between atoms: N_6  and  C_7
REMARK    4  A    between atoms: C_10  and  C_13
REMARK    5  A    between atoms: N_18  and  C_19
REMARK    6  A    between atoms: C_19  and  C_20
REMARK    7  A    between atoms: C_23  and  C_24
REMARK                            x       y       z     vdW  Elec       q    Type
REMARK                         _______ _______ _______ _____ _____    ______ ____
ROOT
ATOM     13  C   UNL     1      -1.540  -0.509  24.745  0.00  0.00    +0.159 C 
ATOM     14  O   UNL     1      -0.975  -1.091  24.595  0.00  0.00    -0.341 OA
ATOM     15  C   UNL     1      -1.198  -1.885  24.563  0.00  0.00    +0.227 C 
ATOM     16  C   UNL     1      -1.987  -2.096  24.682  0.00  0.00    +0.256 C 
ATOM     17  O   UNL     1      -2.211  -2.889  24.651  0.00  0.00    -0.272 OA
ATOM     18  N   UNL     1      -2.552  -1.513  24.833  0.00  0.00    -0.274 N 
ATOM     23  C   UNL     1      -2.328  -0.720  24.864  0.00  0.00    +0.140 C 
ENDROOT
BRANCH  13  10
ATOM      7  C   UNL     1      -0.871   1.873  24.837  0.00  0.00    +0.073 A 
ATOM      8  C   UNL     1      -1.174   1.556  24.138  0.00  0.00    +0.016 A 
ATOM      9  C   UNL     1      -1.397   0.763  24.107  0.00  0.00    -0.001 A 
ATOM     10  C   UNL     1      -1.316   0.285  24.776  0.00  0.00    +0.006 A 
ATOM     11  C   UNL     1      -1.013   0.602  25.475  0.00  0.00    -0.001 A 
ATOM     12  C   UNL     1      -0.790   1.395  25.506  0.00  0.00    +0.016 A 
BRANCH   7   6
ATOM      4  C   UNL     1      -1.194   3.240  25.100  0.00  0.00    +0.276 C 
ATOM      5  O   UNL     1      -1.964   3.019  25.301  0.00  0.00    -0.270 OA
ATOM      6  N   UNL     1      -0.648   2.666  24.868  0.00  0.00    -0.177 NA
BRANCH   4   3
ATOM      3  C   UNL     1      -0.971   4.033  25.131  0.00  0.00    +0.229 C 
BRANCH   3   2
ATOM      1  C   UNL     1      -1.336   5.414  25.077  0.00  0.00    +0.175 C 
ATOM      2  O   UNL     1      -1.547   4.622  25.174  0.00  0.00    -0.342 OA
ENDBRANCH   3   2
ENDBRANCH   4   3
ENDBRANCH   7   6
ENDBRANCH  13  10
BRANCH  23  24
ATOM     24  C   UNL     1      -2.894  -0.137  25.014  0.00  0.00    +0.205 C 
ATOM     25  O   UNL     1      -3.287  -0.123  25.739  0.00  0.00    -0.218 OA
ENDBRANCH  23  24
BRANCH  18  19
ATOM     19  C   UNL     1      -3.340  -1.724  24.952  0.00  0.00    +0.094 C 
BRANCH  19  20
ATOM     20  C   UNL     1      -3.760  -2.106  24.352  0.00  0.00    +0.020 C 
ATOM     21  C   UNL     1      -3.792  -2.930  24.333  0.00  0.00    +0.002 C 
ATOM     22  C   UNL     1      -4.147  -1.664  23.773  0.00  0.00    +0.002 C 
ENDBRANCH  19  20
ENDBRANCH  18  19
TORSDOF 7
ENDMDL
MODEL 2
REMARK VINA RESULT:      -8.7      1.472      5.387
REMARK  Name = 
REMARK  7 active torsions:
REMARK  status: ('A' for Active; 'I' for Inactive)
REMARK    1  A    between atoms: O_2  and  C_3
REMARK    2  A    between atoms: C_3  and  C_4
REMARK    3  A    between atoms: N_6  and  C_7
REMARK    4  A    between atoms: C_10  and  C_13
REMARK    5  A    between atoms: N_18  and  C_19
REMARK    6  A    between atoms: C_19  and  C_20
REMARK    7  A    between atoms: C_23  and  C_24
REMARK                            x       y       z     vdW  Elec       q    Type
REMARK                         _______ _______ _______ _____ _____    ______ ____
ROOT
ATOM     13  C   UNL     1      -3.225   2.464  24.647  0.00  0.00    +0.159 C 
ATOM     14  O   UNL     1      -3.764   3.079  24.541  0.00  0.00    -0.341 OA
ATOM     15  C   UNL     1      -3.537   3.858  24.689  0.00  0.00    +0.227 C 
ATOM     16  C   UNL     1      -2.769   4.022  24.942  0.00  0.00    +0.256 C 
ATOM     17  O   UNL     1      -2.541   4.801  25.090  0.00  0.00    -0.272 OA
ATOM     18  N   UNL     1      -2.229   3.407  25.049  0.00  0.00    -0.274 N 
ATOM     23  C   UNL     1      -2.458   2.628  24.901  0.00  0.00    +0.140 C 
ENDROOT
BRANCH  13  10
ATOM      7  C   UNL     1      -3.909   0.126  24.206  0.00  0.00    +0.073 A 
ATOM      8  C   UNL     1      -4.146   0.501  24.902  0.00  0.00    +0.016 A 
ATOM      9  C   UNL     1      -3.919   1.280  25.049  0.00  0.00    -0.001 A 
ATOM     10  C   UNL     1      -3.453   1.685  24.500  0.00  0.00    +0.006 A 
ATOM     11  C   UNL     1      -3.216   1.310  23.805  0.00  0.00    -0.001 A 
ATOM     12  C   UNL     1      -3.443   0.530  23.657  0.00  0.00    +0.016 A 
BRANCH   7   6
ATOM      4  C   UNL     1      -3.692  -1.278  24.364  0.00  0.00    +0.276 C 
ATOM      5  O   UNL     1      -3.018  -1.123  24.816  0.00  0.00    -0.270 OA
ATOM      6  N   UNL     1      -4.137  -0.653  24.059  0.00  0.00    -0.177 NA
BRANCH   4   3
ATOM      3  C   UNL     1      -3.919  -2.057  24.217  0.00  0.00    +0.229 C 
BRANCH   3   2
ATOM      1  C   UNL     1      -3.605  -3.449  24.274  0.00  0.00    +0.175 C 
ATOM      2  O   UNL     1      -3.498  -2.680  24.553  0.00  0.00    -0.342 OA
ENDBRANCH   3   2
ENDBRANCH   4   3
ENDBRANCH   7   6
ENDBRANCH  13  10
BRANCH  23  24
ATOM     24  C   UNL     1      -1.918   2.013  25.007  0.00  0.00    +0.205 C 
ATOM     25  O   UNL     1      -1.619   1.852  25.759  0.00  0.00    -0.218 OA
ENDBRANCH  23  24
BRANCH  18  19
ATOM     19  C   UNL     1      -1.462   3.570  25.302  0.00  0.00    +0.094 C 
BRANCH  19  20
ATOM     20  C   UNL     1      -0.978   4.069  24.857  0.00  0.00    +0.020 C 
ATOM     21  C   UNL     1      -0.911   4.866  25.059  0.00  0.00    +0.002 C 
ATOM     22  C   UNL     1      -0.561   3.770  24.211  0.00  0.00    +0.002 C 
ENDBRANCH  19  20
ENDBRANCH  18  19
TORSDOF 7
ENDMDL
MODEL 3
REMARK VINA RESULT:      -8.6      1.368      1.963
REMARK  Name = 
REMARK  7 active torsions:
REMARK  status: ('A' for Active; 'I' for Inactive)
REMARK    1  A    between atoms: O_2  and  C_3
REMARK    2  A    between atoms: C_3  and  C_4
REMARK    3  A    between atoms: N_6  and  C_7
REMARK    4  A    between atoms: C_10  and  C_13
REMARK    5  A    between atoms: N_18  and  C_19
REMARK    6  A    between atoms: C_19  and  C_20
REMARK    7  A    between atoms: C_23  and  C_24
REMARK                            x       y       z     vdW  Elec       q    Type
REMARK                         _______ _______ _______ _____ _____    ______ ____
ROOT
ATOM     13  C   UNL     1      -3.696  -0.049  24.273  0.00  0.00    +0.159 C 
ATOM     14  O   UNL     1      -4.326  -0.323  23.817  0.00  0.00    -0.341 OA
ATOM     15  C   UNL     1      -4.484  -1.132  23.773  0.00  0.00    +0.227 C 
ATOM     16  C   UNL     1      -4.011  -1.667  24.186  0.00  0.00    +0.256 C 
ATOM     17  O   UNL     1      -4.167  -2.475  24.142  0.00  0.00    -0.272 OA
ATOM     18  N   UNL     1      -3.379  -1.393  24.642  0.00  0.00    -0.274 N 
ATOM     23  C   UNL     1      -3.223  -0.584  24.685  0.00  0.00    +0.140 C 
ENDROOT
BRANCH  13  10
ATOM      7  C   UNL     1      -3.221   2.377  24.403  0.00  0.00    +0.073 A 
ATOM      8  C   UNL     1      -2.797   1.901  23.880  0.00  0.00    +0.016 A 
ATOM      9  C   UNL     1      -2.955   1.093  23.836  0.00  0.00    -0.001 A 
ATOM     10  C   UNL     1      -3.539   0.760  24.317  0.00  0.00    +0.006 A 
ATOM     11  C   UNL     1      -3.963   1.235  24.840  0.00  0.00    -0.001 A 
ATOM     12  C   UNL     1      -3.805   2.044  24.884  0.00  0.00    +0.016 A 
BRANCH   7   6
ATOM      4  C   UNL     1      -2.495   3.467  24.975  0.00  0.00    +0.276 C 
ATOM      5  O   UNL     1      -2.085   2.940  25.460  0.00  0.00    -0.270 OA
ATOM      6  N   UNL     1      -3.063   3.185  24.447  0.00  0.00    -0.177 NA
BRANCH   4   3
ATOM      3  C   UNL     1      -2.337   4.275  25.018  0.00  0.00    +0.229 C 
BRANCH   3   2
ATOM      1  C   UNL     1      -1.359   5.313  25.109  0.00  0.00    +0.175 C 
ATOM      2  O   UNL     1      -1.596   4.538  25.265  0.00  0.00    -0.342 OA
ENDBRANCH   3   2
ENDBRANCH   4   3
ENDBRANCH   7   6
ENDBRANCH  13  10
BRANCH  23  24
ATOM     24  C   UNL     1      -2.592  -0.310  25.142  0.00  0.00    +0.205 C 
ATOM     25  O   UNL     1      -2.591  -0.431  25.958  0.00  0.00    -0.218 OA
ENDBRANCH  23  24
BRANCH  18  19
ATOM     19  C   UNL     1      -2.907  -1.927  25.054  0.00  0.00    +0.094 C 
BRANCH  19  20
ATOM     20  C   UNL     1      -2.512  -2.528  24.648  0.00  0.00    +0.020 C 
ATOM     21  C   UNL     1      -2.850  -3.279  24.595  0.00  0.00    +0.002 C 
ATOM     22  C   UNL     1      -1.782  -2.378  24.296  0.00  0.00    +0.002 C 
ENDBRANCH  19  20
ENDBRANCH  18  19
TORSDOF 7
ENDMDL
MODEL 4
REMARK VINA RESULT:      -8.2      2.650      4.183
REMARK  Name = 
REMARK  7 active torsions:
REMARK  status: ('A' for Active; 'I' for Inactive)
REMARK    1  A    between atoms: O_2  and  C_3
REMARK    2  A    between atoms: C_3  and  C_4
REMARK    3  A    between atoms: N_6  and  C_7
REMARK    4  A    between atoms: C_10  and  C_13
REMARK    5  A    between atoms: N_18  and  C_19
REMARK    6  A    between atoms: C_19  and  C_20
REMARK    7  A    between atoms: C_23  and  C_24
REMARK                            x       y       z     vdW  Elec       q    Type
REMARK                         _______ _______ _______ _____ _____    ______ ____
ROOT
ATOM     13  C   UNL     1      -2.568   2.791  25.064  0.00  0.00    +0.159 C 
ATOM     14  O   UNL     1      -2.620   3.411  25.604  0.00  0.00    -0.341 OA
ATOM     15  C   UNL     1      -3.358   3.722  25.806  0.00  0.00    +0.227 C 
ATOM     16  C   UNL     1      -4.043   3.410  25.468  0.00  0.00    +0.256 C 
ATOM     17  O   UNL     1      -4.780   3.719  25.670  0.00  0.00    -0.272 OA
ATOM     18  N   UNL     1      -3.991   2.788  24.928  0.00  0.00    -0.274 N 
ATOM     23  C   UNL     1      -3.253   2.479  24.726  0.00  0.00    +0.140 C 
ENDROOT
BRANCH  13  10
ATOM      7  C   UNL     1      -0.356   1.858  24.457  0.00  0.00    +0.073 A 
ATOM      8  C   UNL     1      -0.801   1.509  25.057  0.00  0.00    +0.016 A 
ATOM      9  C   UNL     1      -1.538   1.819  25.259  0.00  0.00    -0.001 A 
ATOM     10  C   UNL     1      -1.831   2.480  24.861  0.00  0.00    +0.006 A 
ATOM     11  C   UNL     1      -1.386   2.830  24.261  0.00  0.00    -0.001 A 
ATOM     12  C   UNL     1      -0.649   2.520  24.058  0.00  0.00    +0.016 A 
BRANCH   7   6
ATOM      4  C   UNL     1       0.431   0.909  23.735  0.00  0.00    +0.276 C 
ATOM      5  O   UNL     1      -0.257   0.580  23.417  0.00  0.00    -0.270 OA
ATOM      6  N   UNL     1       0.380   1.548  24.255  0.00  0.00    -0.177 NA
BRANCH   4   3
ATOM      3  C   UNL     1       1.168   0.599  23.533  0.00  0.00    +0.229 C 
BRANCH   3   2
ATOM      1  C   UNL     1       2.001  -0.071  22.584  0.00  0.00    +0.175 C 
ATOM      2  O   UNL     1       1.249   0.141  22.852  0.00  0.00    -0.342 OA
ENDBRANCH   3   2
ENDBRANCH   4   3
ENDBRANCH   7   6
ENDBRANCH  13  10
BRANCH  23  24
ATOM     24  C   UNL     1      -3.201   1.857  24.185  0.00  0.00    +0.205 C 
ATOM     25  O   UNL     1      -3.400   1.982  23.394  0.00  0.00    -0.218 OA
ENDBRANCH  23  24
BRANCH  18  19
ATOM     19  C   UNL     1      -4.675   2.477  24.590  0.00  0.00    +0.094 C 
BRANCH  19  20
ATOM     20  C   UNL     1      -5.238   2.105  25.066  0.00  0.00    +0.020 C 
ATOM     21  C   UNL     1      -5.909   2.517  25.309  0.00  0.00    +0.002 C 
ATOM     22  C   UNL     1      -5.128   1.321  25.298  0.00  0.00    +0.002 C 
ENDBRANCH  19  20
ENDBRANCH  18  19
TORSDOF 7
ENDMDL
MODEL 5
REMARK VINA RESULT:      -8.0      1.084      5.010
REMARK  Name = 
REMARK  7 active torsions:
REMARK  status: ('A' for Active; 'I' for Inactive)
REMARK    1  A    between atoms: O_2  and  C_3
REMARK    2  A    between atoms: C_3  and  C_4
REMARK    3  A    between atoms: N_6  and  C_7
REMARK    4  A    between atoms: C_10  and  C_13
REMARK    5  A    between atoms: N_18  and  C_19
REMARK    6  A    between atoms: C_19  and  C_20
REMARK    7  A    between atoms: C_23  and  C_24
REMARK                            x       y       z     vdW  Elec       q    Type
REMARK                         _______ _______ _______ _____ _____    ______ ____
ROOT
ATOM     13  C   UNL     1      -0.871   1.688  25.232  0.00  0.00    +0.159 C 
ATOM     14  O   UNL     1      -0.150   1.889  25.577  0.00  0.00    -0.341 OA
ATOM     15  C   UNL     1       0.061   2.682  25.662  0.00  0.00    +0.227 C 
ATOM     16  C   UNL     1      -0.450   3.275  25.401  0.00  0.00    +0.256 C 
ATOM     17  O   UNL     1      -0.240   4.068  25.485  0.00  0.00    -0.272 OA
ATOM     18  N   UNL     1      -1.173   3.074  25.055  0.00  0.00    -0.274 N 
ATOM     23  C   UNL     1      -1.383   2.281  24.971  0.00  0.00    +0.140 C 
ENDROOT
BRANCH  13  10
ATOM      7  C   UNL     1      -1.504  -0.692  24.975  0.00  0.00    +0.073 A 
ATOM      8  C   UNL     1      -1.063  -0.316  24.388  0.00  0.00    +0.016 A 
ATOM      9  C   UNL     1      -0.852   0.476  24.473  0.00  0.00    -0.001 A 
ATOM     10  C   UNL     1      -1.083   0.895  25.147  0.00  0.00    +0.006 A 
ATOM     11  C   UNL     1      -1.524   0.520  25.734  0.00  0.00    -0.001 A 
ATOM     12  C   UNL     1      -1.735  -0.273  25.649  0.00  0.00    +0.016 A 
BRANCH   7   6
ATOM      4  C   UNL     1      -2.469  -1.684  24.620  0.00  0.00    +0.276 C 
ATOM      5  O   UNL     1      -3.012  -1.090  24.434  0.00  0.00    -0.270 OA
ATOM      6  N   UNL     1      -1.715  -1.484  24.890  0.00  0.00    -0.177 NA
BRANCH   4   3
ATOM      3  C   UNL     1      -2.680  -2.477  24.535  0.00  0.00    +0.229 C 
BRANCH   3   2
ATOM      1  C   UNL     1      -3.665  -3.463  24.220  0.00  0.00    +0.175 C 
ATOM      2  O   UNL     1      -3.466  -2.682  24.397  0.00  0.00    -0.342 OA
ENDBRANCH   3   2
ENDBRANCH   4   3
ENDBRANCH   7   6
ENDBRANCH  13  10
BRANCH  23  24
ATOM     24  C   UNL     1      -2.105   2.080  24.625  0.00  0.00    +0.205 C 
ATOM     25  O   UNL     1      -2.248   2.266  23.834  0.00  0.00    -0.218 OA
ENDBRANCH  23  24
BRANCH  18  19
ATOM     19  C   UNL     1      -1.683   3.666  24.794  0.00  0.00    +0.094 C 
BRANCH  19  20
ATOM     20  C   UNL     1      -1.907   4.274  25.306  0.00  0.00    +0.020 C 
ATOM     21  C   UNL     1      -1.614   5.036  25.192  0.00  0.00    +0.002 C 
ATOM     22  C   UNL     1      -2.422   4.118  25.931  0.00  0.00    +0.002 C 
ENDBRANCH  19  20
ENDBRANCH  18  19
TORSDOF 7
ENDMDL
MODEL 6
REMARK VINA RESULT:      -8.0      2.159      2.313
REMARK  Name = 
REMARK  7 active torsions:
REMARK  status: ('A' for Active; 'I' for Inactive)
REMARK    1  A    between atoms: O_2  and  C_3
REMARK    2  A    between atoms: C_3  and  C_4
REMARK    3  A    between atoms: N_6  and  C_7
REMARK    4  A    between atoms: C_10  and  C_13
REMARK    5  A    between atoms: N_18  and  C_19
REMARK    6  A    between atoms: C_19  and  C_20
REMARK    7  A    between atoms: C_23  and  C_24
REMARK                            x       y       z     vdW  Elec       q    Type
REMARK                         _______ _______ _______ _____ _____    ______ ____
ROOT
ATOM     13  C   UNL     1      -2.725   0.048  24.564  0.00  0.00    +0.159 C 
ATOM     14  O   UNL     1      -1.967  -0.068  24.262  0.00  0.00    -0.341 OA
ATOM     15  C   UNL     1      -1.648  -0.828  24.224  0.00  0.00    +0.227 C 
ATOM     16  C   UNL     1      -2.088  -1.473  24.489  0.00  0.00    +0.256 C 
ATOM     17  O   UNL     1      -1.770  -2.233  24.452  0.00  0.00    -0.272 OA
ATOM     18  N   UNL     1      -2.847  -1.358  24.792  0.00  0.00    -0.274 N 
ATOM     23  C   UNL     1      -3.165  -0.598  24.829  0.00  0.00    +0.140 C 
ENDROOT
BRANCH  13  10
ATOM      7  C   UNL     1      -3.683   2.328  24.676  0.00  0.00    +0.073 A 
ATOM      8  C   UNL     1      -3.951   1.794  24.105  0.00  0.00    +0.016 A 
ATOM      9  C   UNL     1      -3.632   1.035  24.068  0.00  0.00    -0.001 A 
ATOM     10  C   UNL     1      -3.044   0.808  24.602  0.00  0.00    +0.006 A 
ATOM     11  C   UNL     1      -2.776   1.340  25.171  0.00  0.00    -0.001 A 
ATOM     12  C   UNL     1      -3.095   2.100  25.209  0.00  0.00    +0.016 A 
BRANCH   7   6
ATOM      4  C   UNL     1      -4.640   3.243  25.213  0.00  0.00    +0.276 C 
ATOM      5  O   UNL     1      -4.958   2.638  25.677  0.00  0.00    -0.270 OA
ATOM      6  N   UNL     1      -4.002   3.087  24.713  0.00  0.00    -0.177 NA
BRANCH   4   3
ATOM      3  C   UNL     1      -4.959   4.002  25.251  0.00  0.00    +0.229 C 
BRANCH   3   2
ATOM      1  C   UNL     1      -6.042   4.867  25.597  0.00  0.00    +0.175 C 
ATOM      2  O   UNL     1      -5.670   4.132  25.646  0.00  0.00    -0.342 OA
ENDBRANCH   3   2
ENDBRANCH   4   3
ENDBRANCH   7   6
ENDBRANCH  13  10
BRANCH  23  24
ATOM     24  C   UNL     1      -3.925  -0.483  25.132  0.00  0.00    +0.205 C 
ATOM     25  O   UNL     1      -4.079  -0.641  25.927  0.00  0.00    -0.218 OA
ENDBRANCH  23  24
BRANCH  18  19
ATOM     19  C   UNL     1      -3.287  -2.002  25.057  0.00  0.00    +0.094 C 
BRANCH  19  20
ATOM     20  C   UNL     1      -3.501  -2.601  24.530  0.00  0.00    +0.020 C 
ATOM     21  C   UNL     1      -3.163  -3.350  24.599  0.00  0.00    +0.002 C 
ATOM     22  C   UNL     1      -4.052  -2.450  23.935  0.00  0.00    +0.002 C 
ENDBRANCH  19  20
ENDBRANCH  18  19
TORSDOF 7
ENDMDL
