MODEL 1
REMARK VINA RESULT:     -12.3      0.000      0.000
REMARK  Name = 
REMARK  6 active torsions:
REMARK  status: ('A' for Active; 'I' for Inactive)
REMARK    1  A    between atoms: O_2  and  C_3
REMARK    2  A    between atoms: C_6  and  N_9
REMARK    3  A    between atoms: C_13  and  C_14
REMARK    4  A    between atoms: C_16  and  N_17
REMARK    5  A    between atoms: N_17  and  C_18
REMARK    6  A    between atoms: C_18  and  C_19
REMARK                            x       y       z     vdW  Elec       q    Type
REMARK                         _______ _______ _______ _____ _____    ______ ____
ROOT
ATOM      9  N   UNL     1      -4.377  -0.023  24.851  0.00  0.00    -0.234 N 
ATOM     10  N   UNL     1      -5.029   0.216  25.295  0.00  0.00    -0.170 NA
ATOM     11  C   UNL     1      -5.084   1.038  25.246  0.00  0.00    +0.077 A 
ATOM     12  C   UNL     1      -5.656   1.508  25.609  0.00  0.00    +0.054 C 
ATOM     13  C   UNL     1      -4.466   1.307  24.772  0.00  0.00    +0.010 A 
ATOM     28  C   UNL     1      -4.029   0.651  24.527  0.00  0.00    +0.058 A 
ATOM     29  C   UNL     1      -3.360   0.667  24.043  0.00  0.00    +0.052 C 
ENDROOT
BRANCH   9   6
ATOM      3  C   UNL     1      -3.601  -2.353  24.543  0.00  0.00    +0.139 A 
ATOM      4  C   UNL     1      -3.371  -1.926  25.211  0.00  0.00    +0.038 A 
ATOM      5  C   UNL     1      -3.630  -1.150  25.314  0.00  0.00    +0.022 A 
ATOM      6  C   UNL     1      -4.118  -0.800  24.748  0.00  0.00    +0.083 A 
ATOM      7  C   UNL     1      -4.348  -1.226  24.079  0.00  0.00    +0.022 A 
ATOM      8  C   UNL     1      -4.089  -2.002  23.977  0.00  0.00    +0.038 A 
BRANCH   3   2
ATOM      1  C   UNL     1      -2.569  -3.277  24.190  0.00  0.00    +0.252 C 
ATOM      2  O   UNL     1      -3.342  -3.130  24.440  0.00  0.00    -0.471 OA
ENDBRANCH   3   2
ENDBRANCH   9   6
BRANCH  13  14
ATOM     14  C   UNL     1      -4.312   2.093  24.575  0.00  0.00    +0.048 C 
ATOM     15  C   UNL     1      -3.725   2.569  24.907  0.00  0.00    +0.031 C 
ATOM     16  C   UNL     1      -3.768   3.311  24.549  0.00  0.00    +0.095 C 
ATOM     26  C   UNL     1      -4.380   3.294  23.997  0.00  0.00    -0.013 C 
ATOM     27  C   UNL     1      -4.716   2.540  24.013  0.00  0.00    -0.025 C 
BRANCH  16  17
ATOM     17  N   UNL     1      -3.283   3.958  24.715  0.00  0.00    -0.210 NA
BRANCH  17  18
ATOM     18  C   UNL     1      -2.636   3.869  25.220  0.00  0.00    +0.115 C 
BRANCH  18  19
ATOM     19  C   UNL     1      -1.966   4.340  25.118  0.00  0.00    -0.005 A 
ATOM     20  C   UNL     1      -2.027   5.161  25.164  0.00  0.00    -0.001 A 
ATOM     21  C   UNL     1      -1.358   5.631  25.063  0.00  0.00    +0.029 A 
ATOM     22  C   UNL     1      -0.626   5.281  24.914  0.00  0.00    +0.140 A 
ATOM     23  F   UNL     1       0.044   5.752  24.812  0.00  0.00    -0.204 F 
ATOM     24  C   UNL     1      -0.564   4.459  24.867  0.00  0.00    +0.029 A 
ATOM     25  C   UNL     1      -1.233   3.989  24.969  0.00  0.00    -0.001 A 
ENDBRANCH  18  19
ENDBRANCH  17  18
ENDBRANCH  16  17
ENDBRANCH  13  14
TORSDOF 6
ENDMDL
MODEL 2
REMARK VINA RESULT:     -11.4      2.634      5.801
REMARK  Name = 
REMARK  6 active torsions:
REMARK  status: ('A' for Active; 'I' for Inactive)
REMARK    1  A    between atoms: O_2  and  C_3
REMARK    2  A    between atoms: C_6  and  N_9
REMARK    3  A    between atoms: C_13  and  C_14
REMARK    4  A    between atoms: C_16  and  N_17
REMARK    5  A    between atoms: N_17  and  C_18
REMARK    6  A    between atoms: C_18  and  C_19
REMARK                            x       y       z     vdW  Elec       q    Type
REMARK                         _______ _______ _______ _____ _____    ______ ____
ROOT
ATOM      9  N   UNL     1      -3.300   3.609  25.361  0.00  0.00    -0.234 N 
ATOM     10  N   UNL     1      -3.950   3.795  25.832  0.00  0.00    -0.170 NA
ATOM     11  C   UNL     1      -4.499   3.183  25.763  0.00  0.00    +0.077 A 
ATOM     12  C   UNL     1      -5.231   3.143  26.142  0.00  0.00    +0.054 C 
ATOM     13  C   UNL     1      -4.188   2.618  25.250  0.00  0.00    +0.010 A 
ATOM     28  C   UNL     1      -3.446   2.882  25.001  0.00  0.00    +0.058 A 
ATOM     29  C   UNL     1      -2.940   2.486  24.483  0.00  0.00    +0.052 C 
ENDROOT
BRANCH   9   6
ATOM      3  C   UNL     1      -1.265   4.990  25.077  0.00  0.00    +0.139 A 
ATOM      4  C   UNL     1      -1.992   5.261  24.792  0.00  0.00    +0.038 A 
ATOM      5  C   UNL     1      -2.670   4.800  24.887  0.00  0.00    +0.022 A 
ATOM      6  C   UNL     1      -2.622   4.069  25.266  0.00  0.00    +0.083 A 
ATOM      7  C   UNL     1      -1.896   3.798  25.552  0.00  0.00    +0.022 A 
ATOM      8  C   UNL     1      -1.218   4.258  25.457  0.00  0.00    +0.038 A 
BRANCH   3   2
ATOM      1  C   UNL     1      -0.027   5.246  24.412  0.00  0.00    +0.252 C 
ATOM      2  O   UNL     1      -0.587   5.450  24.982  0.00  0.00    -0.471 OA
ENDBRANCH   3   2
ENDBRANCH   9   6
BRANCH  13  14
ATOM     14  C   UNL     1      -4.553   1.914  25.025  0.00  0.00    +0.048 C 
ATOM     15  C   UNL     1      -4.242   1.155  25.119  0.00  0.00    +0.031 C 
ATOM     16  C   UNL     1      -4.790   0.617  24.818  0.00  0.00    +0.095 C 
ATOM     26  C   UNL     1      -5.438   1.042  24.537  0.00  0.00    -0.013 C 
ATOM     27  C   UNL     1      -5.292   1.844  24.665  0.00  0.00    -0.025 C 
BRANCH  16  17
ATOM     17  N   UNL     1      -4.704  -0.203  24.800  0.00  0.00    -0.210 NA
BRANCH  17  18
ATOM     18  C   UNL     1      -4.109  -0.546  24.341  0.00  0.00    +0.115 C 
BRANCH  18  19
ATOM     19  C   UNL     1      -3.968  -1.358  24.388  0.00  0.00    -0.005 A 
ATOM     20  C   UNL     1      -3.507  -1.662  25.000  0.00  0.00    -0.001 A 
ATOM     21  C   UNL     1      -3.366  -2.472  25.047  0.00  0.00    +0.029 A 
ATOM     22  C   UNL     1      -3.686  -2.981  24.482  0.00  0.00    +0.140 A 
ATOM     23  F   UNL     1      -3.545  -3.792  24.529  0.00  0.00    -0.204 F 
ATOM     24  C   UNL     1      -4.148  -2.677  23.869  0.00  0.00    +0.029 A 
ATOM     25  C   UNL     1      -4.289  -1.866  23.822  0.00  0.00    -0.001 A 
ENDBRANCH  18  19
ENDBRANCH  17  18
ENDBRANCH  16  17
ENDBRANCH  13  14
TORSDOF 6
ENDMDL
MODEL 3
REMARK VINA RESULT:     -10.0      3.202      4.723
REMARK  Name = 
REMARK  6 active torsions:
REMARK  status: ('A' for Active; 'I' for Inactive)
REMARK    1  A    between atoms: O_2  and  C_3
REMARK    2  A    between atoms: C_6  and  N_9
REMARK    3  A    between atoms: C_13  and  C_14
REMARK    4  A    between atoms: C_16  and  N_17
REMARK    5  A    between atoms: N_17  and  C_18
REMARK    6  A    between atoms: C_18  and  C_19
REMARK                            x       y       z     vdW  Elec       q    Type
REMARK                         _______ _______ _______ _____ _____    ______ ____
ROOT
ATOM      9  N   UNL     1       0.106   1.753  24.641  0.00  0.00    -0.234 N 
ATOM     10  N   UNL     1       0.344   1.900  25.417  0.00  0.00    -0.170 NA
ATOM     11  C   UNL     1      -0.197   2.424  25.755  0.00  0.00    +0.077 A 
ATOM     12  C   UNL     1      -0.170   2.719  26.525  0.00  0.00    +0.054 C 
ATOM     13  C   UNL     1      -0.768   2.601  25.188  0.00  0.00    +0.010 A 
ATOM     28  C   UNL     1      -0.582   2.186  24.500  0.00  0.00    +0.058 A 
ATOM     29  C   UNL     1      -1.008   2.202  23.793  0.00  0.00    +0.052 C 
ENDROOT
BRANCH   9   6
ATOM      3  C   UNL     1       1.252   0.273  23.023  0.00  0.00    +0.139 A 
ATOM      4  C   UNL     1       1.584   1.002  23.222  0.00  0.00    +0.038 A 
ATOM      5  C   UNL     1       1.201   1.496  23.761  0.00  0.00    +0.022 A 
ATOM      6  C   UNL     1       0.488   1.260  24.102  0.00  0.00    +0.083 A 
ATOM      7  C   UNL     1       0.156   0.530  23.904  0.00  0.00    +0.022 A 
ATOM      8  C   UNL     1       0.538   0.037  23.364  0.00  0.00    +0.038 A 
BRANCH   3   2
ATOM      1  C   UNL     1       2.432  -0.101  22.309  0.00  0.00    +0.252 C 
ATOM      2  O   UNL     1       1.634  -0.221  22.483  0.00  0.00    -0.471 OA
ENDBRANCH   3   2
ENDBRANCH   9   6
BRANCH  13  14
ATOM     14  C   UNL     1      -1.414   3.104  25.291  0.00  0.00    +0.048 C 
ATOM     15  C   UNL     1      -2.194   2.871  25.427  0.00  0.00    +0.031 C 
ATOM     16  C   UNL     1      -2.654   3.552  25.496  0.00  0.00    +0.095 C 
ATOM     26  C   UNL     1      -2.161   4.205  25.402  0.00  0.00    -0.013 C 
ATOM     27  C   UNL     1      -1.394   3.929  25.276  0.00  0.00    -0.025 C 
BRANCH  16  17
ATOM     17  N   UNL     1      -3.467   3.574  25.634  0.00  0.00    -0.210 NA
BRANCH  17  18
ATOM     18  C   UNL     1      -3.996   3.472  25.007  0.00  0.00    +0.115 C 
BRANCH  18  19
ATOM     19  C   UNL     1      -4.693   3.045  25.121  0.00  0.00    -0.005 A 
ATOM     20  C   UNL     1      -5.195   3.234  25.748  0.00  0.00    -0.001 A 
ATOM     21  C   UNL     1      -5.891   2.808  25.861  0.00  0.00    +0.029 A 
ATOM     22  C   UNL     1      -6.086   2.192  25.348  0.00  0.00    +0.140 A 
ATOM     23  F   UNL     1      -6.783   1.766  25.462  0.00  0.00    -0.204 F 
ATOM     24  C   UNL     1      -5.584   2.003  24.721  0.00  0.00    +0.029 A 
ATOM     25  C   UNL     1      -4.888   2.429  24.607  0.00  0.00    -0.001 A 
ENDBRANCH  18  19
ENDBRANCH  17  18
ENDBRANCH  16  17
ENDBRANCH  13  14
TORSDOF 6
ENDMDL
MODEL 4
REMARK VINA RESULT:      -9.9      3.381      4.662
REMARK  Name = 
REMARK  6 active torsions:
REMARK  status: ('A' for Active; 'I' for Inactive)
REMARK    1  A    between atoms: O_2  and  C_3
REMARK    2  A    between atoms: C_6  and  N_9
REMARK    3  A    between atoms: C_13  and  C_14
REMARK    4  A    between atoms: C_16  and  N_17
REMARK    5  A    between atoms: N_17  and  C_18
REMARK    6  A    between atoms: C_18  and  C_19
REMARK                            x       y       z     vdW  Elec       q    Type
REMARK                         _______ _______ _______ _____ _____    ______ ____
ROOT
ATOM      9  N   UNL     1      -0.201  -0.213  24.030  0.00  0.00    -0.234 N 
ATOM     10  N   UNL     1      -0.267  -0.771  24.634  0.00  0.00    -0.170 NA
ATOM     11  C   UNL     1      -1.051  -0.774  24.894  0.00  0.00    +0.077 A 
ATOM     12  C   UNL     1      -1.361  -1.250  25.492  0.00  0.00    +0.054 C 
ATOM     13  C   UNL     1      -1.468  -0.218  24.452  0.00  0.00    +0.010 A 
ATOM     28  C   UNL     1      -0.943   0.129  23.918  0.00  0.00    +0.058 A 
ATOM     29  C   UNL     1      -1.128   0.715  23.367  0.00  0.00    +0.052 C 
ENDROOT
BRANCH   9   6
ATOM      3  C   UNL     1       1.861   0.338  22.778  0.00  0.00    +0.139 A 
ATOM      4  C   UNL     1       1.412  -0.321  22.565  0.00  0.00    +0.038 A 
ATOM      5  C   UNL     1       0.725  -0.505  22.982  0.00  0.00    +0.022 A 
ATOM      6  C   UNL     1       0.486  -0.029  23.613  0.00  0.00    +0.083 A 
ATOM      7  C   UNL     1       0.934   0.630  23.826  0.00  0.00    +0.022 A 
ATOM      8  C   UNL     1       1.621   0.814  23.409  0.00  0.00    +0.038 A 
BRANCH   3   2
ATOM      1  C   UNL     1       3.284   0.453  22.727  0.00  0.00    +0.252 C 
ATOM      2  O   UNL     1       2.548   0.522  22.360  0.00  0.00    -0.471 OA
ENDBRANCH   3   2
ENDBRANCH   9   6
BRANCH  13  14
ATOM     14  C   UNL     1      -2.269  -0.040  24.529  0.00  0.00    +0.048 C 
ATOM     15  C   UNL     1      -2.584   0.626  24.902  0.00  0.00    +0.031 C 
ATOM     16  C   UNL     1      -3.406   0.581  24.850  0.00  0.00    +0.095 C 
ATOM     26  C   UNL     1      -3.600  -0.110  24.446  0.00  0.00    -0.013 C 
ATOM     27  C   UNL     1      -2.897  -0.495  24.247  0.00  0.00    -0.025 C 
BRANCH  16  17
ATOM     17  N   UNL     1      -3.941   1.133  25.151  0.00  0.00    -0.210 NA
BRANCH  17  18
ATOM     18  C   UNL     1      -4.365   1.620  24.636  0.00  0.00    +0.115 C 
BRANCH  18  19
ATOM     19  C   UNL     1      -4.754   2.287  24.926  0.00  0.00    -0.005 A 
ATOM     20  C   UNL     1      -4.415   3.034  24.835  0.00  0.00    -0.001 A 
ATOM     21  C   UNL     1      -4.803   3.701  25.124  0.00  0.00    +0.029 A 
ATOM     22  C   UNL     1      -5.531   3.623  25.505  0.00  0.00    +0.140 A 
ATOM     23  F   UNL     1      -5.919   4.290  25.795  0.00  0.00    -0.204 F 
ATOM     24  C   UNL     1      -5.870   2.875  25.596  0.00  0.00    +0.029 A 
ATOM     25  C   UNL     1      -5.482   2.209  25.307  0.00  0.00    -0.001 A 
ENDBRANCH  18  19
ENDBRANCH  17  18
ENDBRANCH  16  17
ENDBRANCH  13  14
TORSDOF 6
ENDMDL
MODEL 5
REMARK VINA RESULT:      -9.9      3.206      6.412
REMARK  Name = 
REMARK  6 active torsions:
REMARK  status: ('A' for Active; 'I' for Inactive)
REMARK    1  A    between atoms: O_2  and  C_3
REMARK    2  A    between atoms: C_6  and  N_9
REMARK    3  A    between atoms: C_13  and  C_14
REMARK    4  A    between atoms: C_16  and  N_17
REMARK    5  A    between atoms: N_17  and  C_18
REMARK    6  A    between atoms: C_18  and  C_19
REMARK                            x       y       z     vdW  Elec       q    Type
REMARK                         _______ _______ _______ _____ _____    ______ ____
ROOT
ATOM      9  N   UNL     1      -0.741   2.664  24.771  0.00  0.00    -0.234 N 
ATOM     10  N   UNL     1      -0.159   2.343  24.284  0.00  0.00    -0.170 NA
ATOM     11  C   UNL     1      -0.179   1.522  24.369  0.00  0.00    +0.077 A 
ATOM     12  C   UNL     1       0.310   0.983  23.982  0.00  0.00    +0.054 C 
ATOM     13  C   UNL     1      -0.773   1.336  24.909  0.00  0.00    +0.010 A 
ATOM     28  C   UNL     1      -1.121   2.042  25.158  0.00  0.00    +0.058 A 
ATOM     29  C   UNL     1      -1.740   2.113  25.699  0.00  0.00    +0.052 C 
ENDROOT
BRANCH   9   6
ATOM      3  C   UNL     1      -1.258   5.071  25.030  0.00  0.00    +0.139 A 
ATOM      4  C   UNL     1      -1.865   4.512  25.065  0.00  0.00    +0.038 A 
ATOM      5  C   UNL     1      -1.693   3.710  24.979  0.00  0.00    +0.022 A 
ATOM      6  C   UNL     1      -0.914   3.466  24.857  0.00  0.00    +0.083 A 
ATOM      7  C   UNL     1      -0.307   4.024  24.822  0.00  0.00    +0.022 A 
ATOM      8  C   UNL     1      -0.479   4.826  24.908  0.00  0.00    +0.038 A 
BRANCH   3   2
ATOM      1  C   UNL     1      -2.211   6.135  25.057  0.00  0.00    +0.252 C 
ATOM      2  O   UNL     1      -1.431   5.873  25.116  0.00  0.00    -0.471 OA
ENDBRANCH   3   2
ENDBRANCH   9   6
BRANCH  13  14
ATOM     14  C   UNL     1      -0.984   0.579  25.157  0.00  0.00    +0.048 C 
ATOM     15  C   UNL     1      -1.490   0.061  24.760  0.00  0.00    +0.031 C 
ATOM     16  C   UNL     1      -1.543  -0.632  25.204  0.00  0.00    +0.095 C 
ATOM     26  C   UNL     1      -1.072  -0.544  25.874  0.00  0.00    -0.013 C 
ATOM     27  C   UNL     1      -0.725   0.204  25.845  0.00  0.00    -0.025 C 
BRANCH  16  17
ATOM     17  N   UNL     1      -1.991  -1.297  25.010  0.00  0.00    -0.210 NA
BRANCH  17  18
ATOM     18  C   UNL     1      -2.793  -1.326  25.205  0.00  0.00    +0.115 C 
BRANCH  18  19
ATOM     19  C   UNL     1      -3.314  -1.772  24.746  0.00  0.00    -0.005 A 
ATOM     20  C   UNL     1      -3.892  -1.397  24.293  0.00  0.00    -0.001 A 
ATOM     21  C   UNL     1      -4.411  -1.843  23.835  0.00  0.00    +0.029 A 
ATOM     22  C   UNL     1      -4.354  -2.666  23.829  0.00  0.00    +0.140 A 
ATOM     23  F   UNL     1      -4.874  -3.113  23.370  0.00  0.00    -0.204 F 
ATOM     24  C   UNL     1      -3.776  -3.042  24.282  0.00  0.00    +0.029 A 
ATOM     25  C   UNL     1      -3.256  -2.596  24.740  0.00  0.00    -0.001 A 
ENDBRANCH  18  19
ENDBRANCH  17  18
ENDBRANCH  16  17
ENDBRANCH  13  14
TORSDOF 6
ENDMDL
MODEL 6
REMARK VINA RESULT:      -9.9      3.324      4.736
REMARK  Name = 
REMARK  6 active torsions:
REMARK  status: ('A' for Active; 'I' for Inactive)
REMARK    1  A    between atoms: O_2  and  C_3
REMARK    2  A    between atoms: C_6  and  N_9
REMARK    3  A    between atoms: C_13  and  C_14
REMARK    4  A    between atoms: C_16  and  N_17
REMARK    5  A    between atoms: N_17  and  C_18
REMARK    6  A    between atoms: C_18  and  C_19
REMARK                            x       y       z     vdW  Elec       q    Type
REMARK                         _______ _______ _______ _____ _____    ______ ____
ROOT
ATOM      9  N   UNL     1      -3.861   0.516  24.729  0.00  0.00    -0.234 N 
ATOM     10  N   UNL     1      -4.077  -0.236  24.471  0.00  0.00    -0.170 NA
ATOM     11  C   UNL     1      -3.392  -0.694  24.416  0.00  0.00    +0.077 A 
ATOM     12  C   UNL     1      -3.354  -1.482  24.178  0.00  0.00    +0.054 C 
ATOM     13  C   UNL     1      -2.754  -0.224  24.641  0.00  0.00    +0.010 A 
ATOM     28  C   UNL     1      -3.044   0.524  24.835  0.00  0.00    +0.058 A 
ATOM     29  C   UNL     1      -2.594   1.168  25.090  0.00  0.00    +0.052 C 
ENDROOT
BRANCH   9   6
ATOM      3  C   UNL     1      -5.398   2.417  25.121  0.00  0.00    +0.139 A 
ATOM      4  C   UNL     1      -4.838   2.456  24.515  0.00  0.00    +0.038 A 
ATOM      5  C   UNL     1      -4.326   1.823  24.385  0.00  0.00    +0.022 A 
ATOM      6  C   UNL     1      -4.374   1.150  24.860  0.00  0.00    +0.083 A 
ATOM      7  C   UNL     1      -4.933   1.109  25.465  0.00  0.00    +0.022 A 
ATOM      8  C   UNL     1      -5.445   1.743  25.596  0.00  0.00    +0.038 A 
BRANCH   3   2
ATOM      1  C   UNL     1      -5.618   3.762  25.548  0.00  0.00    +0.252 C 
ATOM      2  O   UNL     1      -5.910   3.050  25.251  0.00  0.00    -0.471 OA
ENDBRANCH   3   2
ENDBRANCH   9   6
BRANCH  13  14
ATOM     14  C   UNL     1      -1.964  -0.459  24.668  0.00  0.00    +0.048 C 
ATOM     15  C   UNL     1      -1.390  -0.297  24.098  0.00  0.00    +0.031 C 
ATOM     16  C   UNL     1      -0.680  -0.636  24.348  0.00  0.00    +0.095 C 
ATOM     26  C   UNL     1      -0.815  -1.007  25.072  0.00  0.00    -0.013 C 
ATOM     27  C   UNL     1      -1.609  -0.898  25.270  0.00  0.00    -0.025 C 
BRANCH  16  17
ATOM     17  N   UNL     1       0.038  -0.608  23.944  0.00  0.00    -0.210 NA
BRANCH  17  18
ATOM     18  C   UNL     1       0.231   0.053  23.488  0.00  0.00    +0.115 C 
BRANCH  18  19
ATOM     19  C   UNL     1       0.994   0.139  23.187  0.00  0.00    -0.005 A 
ATOM     20  C   UNL     1       1.504   0.702  23.509  0.00  0.00    -0.001 A 
ATOM     21  C   UNL     1       2.266   0.787  23.208  0.00  0.00    +0.029 A 
ATOM     22  C   UNL     1       2.521   0.310  22.585  0.00  0.00    +0.140 A 
ATOM     23  F   UNL     1       3.284   0.396  22.284  0.00  0.00    -0.204 F 
ATOM     24  C   UNL     1       2.010  -0.254  22.263  0.00  0.00    +0.029 A 
ATOM     25  C   UNL     1       1.248  -0.339  22.564  0.00  0.00    -0.001 A 
ENDBRANCH  18  19
ENDBRANCH  17  18
ENDBRANCH  16  17
ENDBRANCH  13  14
TORSDOF 6
ENDMDL
MODEL 7
REMARK VINA RESULT:      -9.7      1.950      2.760
REMARK  Name = 
REMARK  6 active torsions:
REMARK  status: ('A' for Active; 'I' for Inactive)
REMARK    1  A    between atoms: O_2  and  C_3
REMARK    2  A    between atoms: C_6  and  N_9
REMARK    3  A    between atoms: C_13  and  C_14
REMARK    4  A    between atoms: C_16  and  N_17
REMARK    5  A    between atoms: N_17  and  C_18
REMARK    6  A    between atoms: C_18  and  C_19
REMARK                            x       y       z     vdW  Elec       q    Type
REMARK                         _______ _______ _______ _____ _____    ______ ____
ROOT
ATOM      9  N   UNL     1      -1.970  -1.112  24.537  0.00  0.00    -0.234 N 
ATOM     10  N   UNL     1      -1.215  -1.216  24.222  0.00  0.00    -0.170 NA
ATOM     11  C   UNL     1      -0.750  -0.576  24.458  0.00  0.00    +0.077 A 
ATOM     12  C   UNL     1       0.043  -0.457  24.267  0.00  0.00    +0.054 C 
ATOM     13  C   UNL     1      -1.218  -0.076  24.917  0.00  0.00    +0.010 A 
ATOM     28  C   UNL     1      -1.972  -0.408  24.966  0.00  0.00    +0.058 A 
ATOM     29  C   UNL     1      -2.616  -0.090  25.374  0.00  0.00    +0.052 C 
ENDROOT
BRANCH   9   6
ATOM      3  C   UNL     1      -3.892  -2.643  24.243  0.00  0.00    +0.139 A 
ATOM      4  C   UNL     1      -3.225  -2.893  24.660  0.00  0.00    +0.038 A 
ATOM      5  C   UNL     1      -2.584  -2.383  24.758  0.00  0.00    +0.022 A 
ATOM      6  C   UNL     1      -2.611  -1.622  24.439  0.00  0.00    +0.083 A 
ATOM      7  C   UNL     1      -3.277  -1.371  24.022  0.00  0.00    +0.022 A 
ATOM      8  C   UNL     1      -3.918  -1.882  23.924  0.00  0.00    +0.038 A 
BRANCH   3   2
ATOM      1  C   UNL     1      -4.864  -3.260  23.397  0.00  0.00    +0.252 C 
ATOM      2  O   UNL     1      -4.533  -3.154  24.145  0.00  0.00    -0.471 OA
ENDBRANCH   3   2
ENDBRANCH   9   6
BRANCH  13  14
ATOM     14  C   UNL     1      -0.975   0.630  25.267  0.00  0.00    +0.048 C 
ATOM     15  C   UNL     1      -1.050   1.384  24.939  0.00  0.00    +0.031 C 
ATOM     16  C   UNL     1      -0.736   1.926  25.476  0.00  0.00    +0.095 C 
ATOM     26  C   UNL     1      -0.467   1.509  26.134  0.00  0.00    -0.013 C 
ATOM     27  C   UNL     1      -0.615   0.707  26.005  0.00  0.00    -0.025 C 
BRANCH  16  17
ATOM     17  N   UNL     1      -0.698   2.744  25.371  0.00  0.00    -0.210 NA
BRANCH  17  18
ATOM     18  C   UNL     1      -1.326   3.145  25.017  0.00  0.00    +0.115 C 
BRANCH  18  19
ATOM     19  C   UNL     1      -1.352   3.969  25.033  0.00  0.00    -0.005 A 
ATOM     20  C   UNL     1      -2.014   4.356  25.337  0.00  0.00    -0.001 A 
ATOM     21  C   UNL     1      -2.039   5.179  25.353  0.00  0.00    +0.029 A 
ATOM     22  C   UNL     1      -1.403   5.618  25.066  0.00  0.00    +0.140 A 
ATOM     23  F   UNL     1      -1.428   6.442  25.082  0.00  0.00    -0.204 F 
ATOM     24  C   UNL     1      -0.740   5.231  24.761  0.00  0.00    +0.029 A 
ATOM     25  C   UNL     1      -0.714   4.408  24.745  0.00  0.00    -0.001 A 
ENDBRANCH  18  19
ENDBRANCH  17  18
ENDBRANCH  16  17
ENDBRANCH  13  14
TORSDOF 6
ENDMDL
MODEL 8
REMARK VINA RESULT:      -9.5      3.237      4.897
REMARK  Name = 
REMARK  6 active torsions:
REMARK  status: ('A' for Active; 'I' for Inactive)
REMARK    1  A    between atoms: O_2  and  C_3
REMARK    2  A    between atoms: C_6  and  N_9
REMARK    3  A    between atoms: C_13  and  C_14
REMARK    4  A    between atoms: C_16  and  N_17
REMARK    5  A    between atoms: N_17  and  C_18
REMARK    6  A    between atoms: C_18  and  C_19
REMARK                            x       y       z     vdW  Elec       q    Type
REMARK                         _______ _______ _______ _____ _____    ______ ____
ROOT
ATOM      9  N   UNL     1      -3.069   3.219  25.175  0.00  0.00    -0.234 N 
ATOM     10  N   UNL     1      -2.743   3.976  25.153  0.00  0.00    -0.170 NA
ATOM     11  C   UNL     1      -1.921   3.901  25.146  0.00  0.00    +0.077 A 
ATOM     12  C   UNL     1      -1.378   4.521  25.125  0.00  0.00    +0.054 C 
ATOM     13  C   UNL     1      -1.739   3.097  25.165  0.00  0.00    +0.010 A 
ATOM     28  C   UNL     1      -2.448   2.676  25.183  0.00  0.00    +0.058 A 
ATOM     29  C   UNL     1      -2.523   1.854  25.204  0.00  0.00    +0.052 C 
ENDROOT
BRANCH   9   6
ATOM      3  C   UNL     1      -5.482   2.673  25.213  0.00  0.00    +0.139 A 
ATOM      4  C   UNL     1      -5.023   2.470  24.558  0.00  0.00    +0.038 A 
ATOM      5  C   UNL     1      -4.219   2.652  24.545  0.00  0.00    +0.022 A 
ATOM      6  C   UNL     1      -3.873   3.037  25.188  0.00  0.00    +0.083 A 
ATOM      7  C   UNL     1      -4.331   3.240  25.843  0.00  0.00    +0.022 A 
ATOM      8  C   UNL     1      -5.136   3.058  25.856  0.00  0.00    +0.038 A 
BRANCH   3   2
ATOM      1  C   UNL     1      -6.540   1.729  25.033  0.00  0.00    +0.252 C 
ATOM      2  O   UNL     1      -6.287   2.491  25.226  0.00  0.00    -0.471 OA
ENDBRANCH   3   2
ENDBRANCH   9   6
BRANCH  13  14
ATOM     14  C   UNL     1      -0.981   2.772  25.165  0.00  0.00    +0.048 C 
ATOM     15  C   UNL     1      -0.589   2.456  24.512  0.00  0.00    +0.031 C 
ATOM     16  C   UNL     1       0.152   2.194  24.762  0.00  0.00    +0.095 C 
ATOM     26  C   UNL     1       0.218   2.347  25.569  0.00  0.00    -0.013 C 
ATOM     27  C   UNL     1      -0.483   2.705  25.819  0.00  0.00    -0.025 C 
BRANCH  16  17
ATOM     17  N   UNL     1       0.726   1.839  24.288  0.00  0.00    -0.210 NA
BRANCH  17  18
ATOM     18  C   UNL     1       0.651   1.046  24.071  0.00  0.00    +0.115 C 
BRANCH  18  19
ATOM     19  C   UNL     1       1.165   0.721  23.513  0.00  0.00    -0.005 A 
ATOM     20  C   UNL     1       1.939   0.999  23.453  0.00  0.00    -0.001 A 
ATOM     21  C   UNL     1       2.453   0.673  22.897  0.00  0.00    +0.029 A 
ATOM     22  C   UNL     1       2.193   0.069  22.399  0.00  0.00    +0.140 A 
ATOM     23  F   UNL     1       2.706  -0.256  21.841  0.00  0.00    -0.204 F 
ATOM     24  C   UNL     1       1.418  -0.209  22.458  0.00  0.00    +0.029 A 
ATOM     25  C   UNL     1       0.904   0.116  23.015  0.00  0.00    -0.001 A 
ENDBRANCH  18  19
ENDBRANCH  17  18
ENDBRANCH  16  17
ENDBRANCH  13  14
TORSDOF 6
ENDMDL
MODEL 9
REMARK VINA RESULT:      -9.3      4.295      5.443
REMARK  Name = 
REMARK  6 active torsions:
REMARK  status: ('A' for Active; 'I' for Inactive)
REMARK    1  A    between atoms: O_2  and  C_3
REMARK    2  A    between atoms: C_6  and  N_9
REMARK    3  A    between atoms: C_13  and  C_14
REMARK    4  A    between atoms: C_16  and  N_17
REMARK    5  A    between atoms: N_17  and  C_18
REMARK    6  A    between atoms: C_18  and  C_19
REMARK                            x       y       z     vdW  Elec       q    Type
REMARK                         _______ _______ _______ _____ _____    ______ ____
ROOT
ATOM      9  N   UNL     1      -2.121   1.127  24.697  0.00  0.00    -0.234 N 
ATOM     10  N   UNL     1      -1.934   0.538  25.243  0.00  0.00    -0.170 NA
ATOM     11  C   UNL     1      -1.232   0.179  25.000  0.00  0.00    +0.077 A 
ATOM     12  C   UNL     1      -0.845  -0.439  25.386  0.00  0.00    +0.054 C 
ATOM     13  C   UNL     1      -0.986   0.546  24.304  0.00  0.00    +0.010 A 
ATOM     28  C   UNL     1      -1.535   1.132  24.117  0.00  0.00    +0.058 A 
ATOM     29  C   UNL     1      -1.504   1.635  23.463  0.00  0.00    +0.052 C 
ENDROOT
BRANCH   9   6
ATOM      3  C   UNL     1      -4.095   2.618  24.785  0.00  0.00    +0.139 A 
ATOM      4  C   UNL     1      -4.166   1.857  24.473  0.00  0.00    +0.038 A 
ATOM      5  C   UNL     1      -3.508   1.360  24.443  0.00  0.00    +0.022 A 
ATOM      6  C   UNL     1      -2.779   1.624  24.727  0.00  0.00    +0.083 A 
ATOM      7  C   UNL     1      -2.708   2.385  25.039  0.00  0.00    +0.022 A 
ATOM      8  C   UNL     1      -3.365   2.882  25.068  0.00  0.00    +0.038 A 
BRANCH   3   2
ATOM      1  C   UNL     1      -5.279   3.065  25.448  0.00  0.00    +0.252 C 
ATOM      2  O   UNL     1      -4.753   3.115  24.814  0.00  0.00    -0.471 OA
ENDBRANCH   3   2
ENDBRANCH   9   6
BRANCH  13  14
ATOM     14  C   UNL     1      -0.309   0.360  23.871  0.00  0.00    +0.048 C 
ATOM     15  C   UNL     1       0.411   0.763  23.899  0.00  0.00    +0.031 C 
ATOM     16  C   UNL     1       0.931   0.390  23.379  0.00  0.00    +0.095 C 
ATOM     26  C   UNL     1       0.535  -0.243  23.030  0.00  0.00    -0.013 C 
ATOM     27  C   UNL     1      -0.232  -0.262  23.334  0.00  0.00    -0.025 C 
BRANCH  16  17
ATOM     17  N   UNL     1       1.712   0.612  23.234  0.00  0.00    -0.210 NA
BRANCH  17  18
ATOM     18  C   UNL     1       2.224   0.092  22.847  0.00  0.00    +0.115 C 
BRANCH  18  19
ATOM     19  C   UNL     1       3.040   0.205  22.894  0.00  0.00    -0.005 A 
ATOM     20  C   UNL     1       3.378   0.903  22.613  0.00  0.00    -0.001 A 
ATOM     21  C   UNL     1       4.193   1.015  22.660  0.00  0.00    +0.029 A 
ATOM     22  C   UNL     1       4.672   0.430  22.988  0.00  0.00    +0.140 A 
ATOM     23  F   UNL     1       5.488   0.542  23.036  0.00  0.00    -0.204 F 
ATOM     24  C   UNL     1       4.334  -0.269  23.270  0.00  0.00    +0.029 A 
ATOM     25  C   UNL     1       3.519  -0.382  23.223  0.00  0.00    -0.001 A 
ENDBRANCH  18  19
ENDBRANCH  17  18
ENDBRANCH  16  17
ENDBRANCH  13  14
TORSDOF 6
ENDMDL
