MODEL 1
REMARK VINA RESULT:     -12.0      0.000      0.000
REMARK  Name = 
REMARK  6 active torsions:
REMARK  status: ('A' for Active; 'I' for Inactive)
REMARK    1  A    between atoms: C_2  and  C_3
REMARK    2  A    between atoms: C_2  and  C_27
REMARK    3  A    between atoms: C_10  and  N_11
REMARK    4  A    between atoms: C_12  and  C_14
REMARK    5  A    between atoms: C_17  and  C_20
REMARK    6  A    between atoms: N_29  and  C_30
REMARK                            x       y       z     vdW  Elec       q    Type
REMARK                         _______ _______ _______ _____ _____    ______ ____
ROOT
ATOM      3  C   UNL     1      -3.162   3.625  25.015  0.00  0.00    +0.039 C 
ATOM      4  C   UNL     1      -3.925   3.873  25.214  0.00  0.00    +0.003 C 
ATOM      5  C   UNL     1      -4.550   3.336  25.199  0.00  0.00    +0.000 C 
ATOM      6  C   UNL     1      -4.415   2.551  24.987  0.00  0.00    +0.002 C 
ATOM      7  C   UNL     1      -5.175   2.799  25.185  0.00  0.00    +0.000 C 
ATOM      8  C   UNL     1      -5.040   2.013  24.972  0.00  0.00    +0.002 C 
ATOM      9  C   UNL     1      -4.905   1.228  24.760  0.00  0.00    +0.022 C 
ATOM     10  C   UNL     1      -4.143   0.980  24.562  0.00  0.00    +0.096 C 
ATOM     22  C   UNL     1      -3.517   1.517  24.576  0.00  0.00    +0.022 C 
ATOM     23  C   UNL     1      -2.756   1.269  24.378  0.00  0.00    +0.002 C 
ATOM     24  C   UNL     1      -3.652   2.303  24.789  0.00  0.00    +0.032 C 
ATOM     25  C   UNL     1      -3.027   2.840  24.803  0.00  0.00    +0.152 C 
ATOM     26  O   UNL     1      -2.266   2.592  24.605  0.00  0.00    -0.223 OA
ENDROOT
BRANCH  10  11
ATOM     11  N   UNL     1      -4.008   0.194  24.349  0.00  0.00    -0.203 NA
ATOM     12  C   UNL     1      -4.160  -0.411  24.888  0.00  0.00    +0.265 C 
ATOM     13  O   UNL     1      -4.448  -0.231  25.641  0.00  0.00    -0.268 OA
BRANCH  12  14
ATOM     14  C   UNL     1      -4.025  -1.197  24.675  0.00  0.00    +0.055 A 
ATOM     15  C   UNL     1      -4.348  -1.498  23.979  0.00  0.00    +0.005 A 
ATOM     16  C   UNL     1      -4.213  -2.284  23.766  0.00  0.00    +0.010 A 
ATOM     17  C   UNL     1      -3.755  -2.769  24.251  0.00  0.00    +0.068 A 
ATOM     18  C   UNL     1      -3.431  -2.468  24.949  0.00  0.00    +0.010 A 
ATOM     19  C   UNL     1      -3.567  -1.682  25.160  0.00  0.00    +0.005 A 
BRANCH  17  20
ATOM     20  C   UNL     1      -3.619  -3.555  24.040  0.00  0.00    +0.100 C 
ATOM     21  N   UNL     1      -3.484  -4.340  23.827  0.00  0.00    -0.191 NA
ENDBRANCH  17  20
ENDBRANCH  12  14
ENDBRANCH  10  11
BRANCH   3   2
ATOM      1  C   UNL     1      -2.207   4.433  24.323  0.00  0.00    +0.010 C 
ATOM      2  C   UNL     1      -2.537   4.163  25.030  0.00  0.00    +0.081 C 
BRANCH   2  27
ATOM     27  C   UNL     1      -2.241   4.431  25.752  0.00  0.00    +0.241 C 
ATOM     28  O   UNL     1      -2.595   4.191  26.458  0.00  0.00    -0.273 OA
ATOM     29  N   UNL     1      -1.590   4.939  25.768  0.00  0.00    -0.209 NA
BRANCH  29  30
ATOM     30  C   UNL     1      -1.237   5.178  25.062  0.00  0.00    +0.079 C 
ATOM     31  C   UNL     1      -0.883   5.417  24.357  0.00  0.00    +0.022 C 
ATOM     32  C   UNL     1      -0.706   4.548  25.114  0.00  0.00    +0.022 C 
ATOM     33  C   UNL     1      -1.767   5.808  25.011  0.00  0.00    +0.022 C 
ENDBRANCH  29  30
ENDBRANCH   2  27
ENDBRANCH   3   2
TORSDOF 6
ENDMDL
MODEL 2
REMARK VINA RESULT:     -10.9      3.186      4.746
REMARK  Name = 
REMARK  6 active torsions:
REMARK  status: ('A' for Active; 'I' for Inactive)
REMARK    1  A    between atoms: C_2  and  C_3
REMARK    2  A    between atoms: C_2  and  C_27
REMARK    3  A    between atoms: C_10  and  N_11
REMARK    4  A    between atoms: C_12  and  C_14
REMARK    5  A    between atoms: C_17  and  C_20
REMARK    6  A    between atoms: N_29  and  C_30
REMARK                            x       y       z     vdW  Elec       q    Type
REMARK                         _______ _______ _______ _____ _____    ______ ____
ROOT
ATOM      3  C   UNL     1      -3.477   1.588  24.799  0.00  0.00    +0.039 C 
ATOM      4  C   UNL     1      -3.724   0.825  24.997  0.00  0.00    +0.003 C 
ATOM      5  C   UNL     1      -3.202   0.191  24.928  0.00  0.00    +0.000 C 
ATOM      6  C   UNL     1      -2.432   0.318  24.662  0.00  0.00    +0.002 C 
ATOM      7  C   UNL     1      -2.679  -0.443  24.859  0.00  0.00    +0.000 C 
ATOM      8  C   UNL     1      -1.909  -0.316  24.592  0.00  0.00    +0.002 C 
ATOM      9  C   UNL     1      -1.139  -0.189  24.326  0.00  0.00    +0.022 C 
ATOM     10  C   UNL     1      -0.891   0.574  24.128  0.00  0.00    +0.096 C 
ATOM     22  C   UNL     1      -1.414   1.208  24.197  0.00  0.00    +0.022 C 
ATOM     23  C   UNL     1      -1.166   1.969  24.000  0.00  0.00    +0.002 C 
ATOM     24  C   UNL     1      -2.184   1.081  24.464  0.00  0.00    +0.032 C 
ATOM     25  C   UNL     1      -2.707   1.715  24.533  0.00  0.00    +0.152 C 
ATOM     26  O   UNL     1      -2.459   2.477  24.335  0.00  0.00    -0.223 OA
ENDROOT
BRANCH  10  11
ATOM     11  N   UNL     1      -0.121   0.700  23.862  0.00  0.00    -0.203 NA
ATOM     12  C   UNL     1       0.308   0.081  23.527  0.00  0.00    +0.265 C 
ATOM     13  O   UNL     1      -0.035  -0.668  23.458  0.00  0.00    -0.268 OA
BRANCH  12  14
ATOM     14  C   UNL     1       1.078   0.207  23.260  0.00  0.00    +0.055 A 
ATOM     15  C   UNL     1       1.557   0.766  23.632  0.00  0.00    +0.005 A 
ATOM     16  C   UNL     1       2.328   0.893  23.365  0.00  0.00    +0.010 A 
ATOM     17  C   UNL     1       2.619   0.460  22.726  0.00  0.00    +0.068 A 
ATOM     18  C   UNL     1       2.139  -0.100  22.354  0.00  0.00    +0.010 A 
ATOM     19  C   UNL     1       1.369  -0.225  22.621  0.00  0.00    +0.005 A 
BRANCH  17  20
ATOM     20  C   UNL     1       3.389   0.586  22.459  0.00  0.00    +0.100 C 
ATOM     21  N   UNL     1       4.160   0.711  22.192  0.00  0.00    -0.191 NA
ENDBRANCH  17  20
ENDBRANCH  12  14
ENDBRANCH  10  11
BRANCH   3   2
ATOM      1  C   UNL     1      -3.865   2.811  25.431  0.00  0.00    +0.010 C 
ATOM      2  C   UNL     1      -4.000   2.222  24.869  0.00  0.00    +0.081 C 
BRANCH   2  27
ATOM     27  C   UNL     1      -4.660   2.267  24.375  0.00  0.00    +0.241 C 
ATOM     28  O   UNL     1      -4.602   2.032  23.586  0.00  0.00    -0.273 OA
ATOM     29  N   UNL     1      -5.378   2.548  24.671  0.00  0.00    -0.209 NA
BRANCH  29  30
ATOM     30  C   UNL     1      -5.435   2.783  25.459  0.00  0.00    +0.079 C 
ATOM     31  C   UNL     1      -5.492   3.017  26.248  0.00  0.00    +0.022 C 
ATOM     32  C   UNL     1      -5.727   2.037  25.661  0.00  0.00    +0.022 C 
ATOM     33  C   UNL     1      -5.143   3.527  25.258  0.00  0.00    +0.022 C 
ENDBRANCH  29  30
ENDBRANCH   2  27
ENDBRANCH   3   2
TORSDOF 6
ENDMDL
MODEL 3
REMARK VINA RESULT:     -10.3      1.553      6.331
REMARK  Name = 
REMARK  6 active torsions:
REMARK  status: ('A' for Active; 'I' for Inactive)
REMARK    1  A    between atoms: C_2  and  C_3
REMARK    2  A    between atoms: C_2  and  C_27
REMARK    3  A    between atoms: C_10  and  N_11
REMARK    4  A    between atoms: C_12  and  C_14
REMARK    5  A    between atoms: C_17  and  C_20
REMARK    6  A    between atoms: N_29  and  C_30
REMARK                            x       y       z     vdW  Elec       q    Type
REMARK                         _______ _______ _______ _____ _____    ______ ____
ROOT
ATOM      3  C   UNL     1      -2.603  -1.078  24.799  0.00  0.00    +0.039 C 
ATOM      4  C   UNL     1      -1.885  -1.394  25.057  0.00  0.00    +0.003 C 
ATOM      5  C   UNL     1      -1.249  -0.896  25.218  0.00  0.00    +0.000 C 
ATOM      6  C   UNL     1      -1.329  -0.081  25.121  0.00  0.00    +0.002 C 
ATOM      7  C   UNL     1      -0.612  -0.397  25.378  0.00  0.00    +0.000 C 
ATOM      8  C   UNL     1      -0.692   0.419  25.281  0.00  0.00    +0.002 C 
ATOM      9  C   UNL     1      -0.772   1.234  25.184  0.00  0.00    +0.022 C 
ATOM     10  C   UNL     1      -1.490   1.550  24.926  0.00  0.00    +0.096 C 
ATOM     22  C   UNL     1      -2.126   1.051  24.766  0.00  0.00    +0.022 C 
ATOM     23  C   UNL     1      -2.843   1.368  24.508  0.00  0.00    +0.002 C 
ATOM     24  C   UNL     1      -2.046   0.236  24.863  0.00  0.00    +0.032 C 
ATOM     25  C   UNL     1      -2.683  -0.263  24.702  0.00  0.00    +0.152 C 
ATOM     26  O   UNL     1      -3.400   0.053  24.445  0.00  0.00    -0.223 OA
ENDROOT
BRANCH  10  11
ATOM     11  N   UNL     1      -1.569   2.366  24.830  0.00  0.00    -0.203 NA
ATOM     12  C   UNL     1      -1.261   2.881  25.395  0.00  0.00    +0.265 C 
ATOM     13  O   UNL     1      -0.872   2.580  26.059  0.00  0.00    -0.268 OA
BRANCH  12  14
ATOM     14  C   UNL     1      -1.340   3.696  25.298  0.00  0.00    +0.055 A 
ATOM     15  C   UNL     1      -0.746   4.128  24.923  0.00  0.00    +0.005 A 
ATOM     16  C   UNL     1      -0.826   4.943  24.826  0.00  0.00    +0.010 A 
ATOM     17  C   UNL     1      -1.501   5.327  25.105  0.00  0.00    +0.068 A 
ATOM     18  C   UNL     1      -2.096   4.896  25.480  0.00  0.00    +0.010 A 
ATOM     19  C   UNL     1      -2.015   4.080  25.576  0.00  0.00    +0.005 A 
BRANCH  17  20
ATOM     20  C   UNL     1      -1.581   6.143  25.009  0.00  0.00    +0.100 C 
ATOM     21  N   UNL     1      -1.662   6.958  24.911  0.00  0.00    -0.191 NA
ENDBRANCH  17  20
ENDBRANCH  12  14
ENDBRANCH  10  11
BRANCH   3   2
ATOM      1  C   UNL     1      -3.593  -1.571  23.893  0.00  0.00    +0.010 C 
ATOM      2  C   UNL     1      -3.240  -1.578  24.639  0.00  0.00    +0.081 C 
BRANCH   2  27
ATOM     27  C   UNL     1      -3.523  -2.085  25.224  0.00  0.00    +0.241 C 
ATOM     28  O   UNL     1      -3.518  -1.847  26.015  0.00  0.00    -0.273 OA
ATOM     29  N   UNL     1      -3.812  -2.831  25.020  0.00  0.00    -0.209 NA
BRANCH  29  30
ATOM     30  C   UNL     1      -3.817  -3.068  24.230  0.00  0.00    +0.079 C 
ATOM     31  C   UNL     1      -3.822  -3.306  23.440  0.00  0.00    +0.022 C 
ATOM     32  C   UNL     1      -3.099  -3.460  24.343  0.00  0.00    +0.022 C 
ATOM     33  C   UNL     1      -4.534  -2.677  24.118  0.00  0.00    +0.022 C 
ENDBRANCH  29  30
ENDBRANCH   2  27
ENDBRANCH   3   2
TORSDOF 6
ENDMDL
MODEL 4
REMARK VINA RESULT:     -10.2      1.058      5.896
REMARK  Name = 
REMARK  6 active torsions:
REMARK  status: ('A' for Active; 'I' for Inactive)
REMARK    1  A    between atoms: C_2  and  C_3
REMARK    2  A    between atoms: C_2  and  C_27
REMARK    3  A    between atoms: C_10  and  N_11
REMARK    4  A    between atoms: C_12  and  C_14
REMARK    5  A    between atoms: C_17  and  C_20
REMARK    6  A    between atoms: N_29  and  C_30
REMARK                            x       y       z     vdW  Elec       q    Type
REMARK                         _______ _______ _______ _____ _____    ______ ____
ROOT
ATOM      3  C   UNL     1      -3.973  -0.605  24.722  0.00  0.00    +0.039 C 
ATOM      4  C   UNL     1      -4.759  -0.434  24.912  0.00  0.00    +0.003 C 
ATOM      5  C   UNL     1      -5.000   0.348  25.005  0.00  0.00    +0.000 C 
ATOM      6  C   UNL     1      -4.457   0.961  24.909  0.00  0.00    +0.002 C 
ATOM      7  C   UNL     1      -5.240   1.131  25.099  0.00  0.00    +0.000 C 
ATOM      8  C   UNL     1      -4.697   1.745  25.003  0.00  0.00    +0.002 C 
ATOM      9  C   UNL     1      -4.155   2.358  24.907  0.00  0.00    +0.022 C 
ATOM     10  C   UNL     1      -3.369   2.188  24.717  0.00  0.00    +0.096 C 
ATOM     22  C   UNL     1      -3.128   1.405  24.623  0.00  0.00    +0.022 C 
ATOM     23  C   UNL     1      -2.344   1.235  24.433  0.00  0.00    +0.002 C 
ATOM     24  C   UNL     1      -3.671   0.791  24.719  0.00  0.00    +0.032 C 
ATOM     25  C   UNL     1      -3.430   0.008  24.626  0.00  0.00    +0.152 C 
ATOM     26  O   UNL     1      -2.646  -0.162  24.436  0.00  0.00    -0.223 OA
ENDROOT
BRANCH  10  11
ATOM     11  N   UNL     1      -2.826   2.802  24.620  0.00  0.00    -0.203 NA
ATOM     12  C   UNL     1      -2.700   3.341  25.231  0.00  0.00    +0.265 C 
ATOM     13  O   UNL     1      -3.118   3.267  25.940  0.00  0.00    -0.268 OA
BRANCH  12  14
ATOM     14  C   UNL     1      -2.157   3.955  25.135  0.00  0.00    +0.055 A 
ATOM     15  C   UNL     1      -2.416   4.738  25.129  0.00  0.00    +0.005 A 
ATOM     16  C   UNL     1      -1.873   5.351  25.032  0.00  0.00    +0.010 A 
ATOM     17  C   UNL     1      -1.070   5.181  24.943  0.00  0.00    +0.068 A 
ATOM     18  C   UNL     1      -0.811   4.398  24.949  0.00  0.00    +0.010 A 
ATOM     19  C   UNL     1      -1.355   3.785  25.045  0.00  0.00    +0.005 A 
BRANCH  17  20
ATOM     20  C   UNL     1      -0.527   5.794  24.847  0.00  0.00    +0.100 C 
ATOM     21  N   UNL     1       0.018   6.406  24.750  0.00  0.00    -0.191 NA
ENDBRANCH  17  20
ENDBRANCH  12  14
ENDBRANCH  10  11
BRANCH   3   2
ATOM      1  C   UNL     1      -3.626  -1.701  23.872  0.00  0.00    +0.010 C 
ATOM      2  C   UNL     1      -3.732  -1.388  24.628  0.00  0.00    +0.081 C 
BRANCH   2  27
ATOM     27  C   UNL     1      -3.597  -1.860  25.292  0.00  0.00    +0.241 C 
ATOM     28  O   UNL     1      -3.683  -1.542  26.049  0.00  0.00    -0.273 OA
ATOM     29  N   UNL     1      -3.377  -2.650  25.199  0.00  0.00    -0.209 NA
BRANCH  29  30
ATOM     30  C   UNL     1      -3.292  -2.968  24.442  0.00  0.00    +0.079 C 
ATOM     31  C   UNL     1      -3.206  -3.285  23.686  0.00  0.00    +0.022 C 
ATOM     32  C   UNL     1      -4.102  -3.121  24.415  0.00  0.00    +0.022 C 
ATOM     33  C   UNL     1      -2.482  -2.814  24.470  0.00  0.00    +0.022 C 
ENDBRANCH  29  30
ENDBRANCH   2  27
ENDBRANCH   3   2
TORSDOF 6
ENDMDL
MODEL 5
REMARK VINA RESULT:      -9.5      3.498      5.339
REMARK  Name = 
REMARK  6 active torsions:
REMARK  status: ('A' for Active; 'I' for Inactive)
REMARK    1  A    between atoms: C_2  and  C_3
REMARK    2  A    between atoms: C_2  and  C_27
REMARK    3  A    between atoms: C_10  and  N_11
REMARK    4  A    between atoms: C_12  and  C_14
REMARK    5  A    between atoms: C_17  and  C_20
REMARK    6  A    between atoms: N_29  and  C_30
REMARK                            x       y       z     vdW  Elec       q    Type
REMARK                         _______ _______ _______ _____ _____    ______ ____
ROOT
ATOM      3  C   UNL     1       0.648   0.101  23.554  0.00  0.00    +0.039 C 
ATOM      4  C   UNL     1       0.510  -0.687  23.757  0.00  0.00    +0.003 C 
ATOM      5  C   UNL     1      -0.186  -0.896  24.146  0.00  0.00    +0.000 C 
ATOM      6  C   UNL     1      -0.744  -0.319  24.333  0.00  0.00    +0.002 C 
ATOM      7  C   UNL     1      -0.882  -1.106  24.535  0.00  0.00    +0.000 C 
ATOM      8  C   UNL     1      -1.441  -0.528  24.722  0.00  0.00    +0.002 C 
ATOM      9  C   UNL     1      -1.998   0.050  24.909  0.00  0.00    +0.022 C 
ATOM     10  C   UNL     1      -1.860   0.838  24.706  0.00  0.00    +0.096 C 
ATOM     22  C   UNL     1      -1.164   1.048  24.317  0.00  0.00    +0.022 C 
ATOM     23  C   UNL     1      -1.026   1.835  24.114  0.00  0.00    +0.002 C 
ATOM     24  C   UNL     1      -0.605   0.470  24.130  0.00  0.00    +0.032 C 
ATOM     25  C   UNL     1       0.091   0.679  23.740  0.00  0.00    +0.152 C 
ATOM     26  O   UNL     1       0.229   1.467  23.538  0.00  0.00    -0.223 OA
ENDROOT
BRANCH  10  11
ATOM     11  N   UNL     1      -2.419   1.416  24.893  0.00  0.00    -0.203 NA
ATOM     12  C   UNL     1      -3.219   1.276  24.755  0.00  0.00    +0.265 C 
ATOM     13  O   UNL     1      -3.463   0.557  24.430  0.00  0.00    -0.268 OA
BRANCH  12  14
ATOM     14  C   UNL     1      -3.778   1.854  24.942  0.00  0.00    +0.055 A 
ATOM     15  C   UNL     1      -3.534   2.619  25.131  0.00  0.00    +0.005 A 
ATOM     16  C   UNL     1      -4.093   3.197  25.318  0.00  0.00    +0.010 A 
ATOM     17  C   UNL     1      -4.896   3.009  25.316  0.00  0.00    +0.068 A 
ATOM     18  C   UNL     1      -5.141   2.243  25.128  0.00  0.00    +0.010 A 
ATOM     19  C   UNL     1      -4.581   1.666  24.941  0.00  0.00    +0.005 A 
BRANCH  17  20
ATOM     20  C   UNL     1      -5.455   3.585  25.503  0.00  0.00    +0.100 C 
ATOM     21  N   UNL     1      -6.016   4.161  25.691  0.00  0.00    -0.191 NA
ENDBRANCH  17  20
ENDBRANCH  12  14
ENDBRANCH  10  11
BRANCH   3   2
ATOM      1  C   UNL     1       1.851   0.873  23.493  0.00  0.00    +0.010 C 
ATOM      2  C   UNL     1       1.345   0.310  23.164  0.00  0.00    +0.081 C 
BRANCH   2  27
ATOM     27  C   UNL     1       1.537  -0.044  22.444  0.00  0.00    +0.241 C 
ATOM     28  O   UNL     1       0.937  -0.319  21.947  0.00  0.00    -0.273 OA
ATOM     29  N   UNL     1       2.327  -0.124  22.220  0.00  0.00    -0.209 NA
BRANCH  29  30
ATOM     30  C   UNL     1       2.926   0.151  22.717  0.00  0.00    +0.079 C 
ATOM     31  C   UNL     1       3.524   0.425  23.214  0.00  0.00    +0.022 C 
ATOM     32  C   UNL     1       2.883   0.893  22.358  0.00  0.00    +0.022 C 
ATOM     33  C   UNL     1       2.967  -0.591  23.075  0.00  0.00    +0.022 C 
ENDBRANCH  29  30
ENDBRANCH   2  27
ENDBRANCH   3   2
TORSDOF 6
ENDMDL
MODEL 6
REMARK VINA RESULT:      -8.9      1.391      2.077
REMARK  Name = 
REMARK  6 active torsions:
REMARK  status: ('A' for Active; 'I' for Inactive)
REMARK    1  A    between atoms: C_2  and  C_3
REMARK    2  A    between atoms: C_2  and  C_27
REMARK    3  A    between atoms: C_10  and  N_11
REMARK    4  A    between atoms: C_12  and  C_14
REMARK    5  A    between atoms: C_17  and  C_20
REMARK    6  A    between atoms: N_29  and  C_30
REMARK                            x       y       z     vdW  Elec       q    Type
REMARK                         _______ _______ _______ _____ _____    ______ ____
ROOT
ATOM      3  C   UNL     1      -1.430   3.059  25.185  0.00  0.00    +0.039 C 
ATOM      4  C   UNL     1      -0.801   2.889  25.691  0.00  0.00    +0.003 C 
ATOM      5  C   UNL     1      -0.610   2.105  25.862  0.00  0.00    +0.000 C 
ATOM      6  C   UNL     1      -1.047   1.492  25.527  0.00  0.00    +0.002 C 
ATOM      7  C   UNL     1      -0.419   1.321  26.032  0.00  0.00    +0.000 C 
ATOM      8  C   UNL     1      -0.857   0.707  25.697  0.00  0.00    +0.002 C 
ATOM      9  C   UNL     1      -1.294   0.094  25.362  0.00  0.00    +0.022 C 
ATOM     10  C   UNL     1      -1.924   0.265  24.855  0.00  0.00    +0.096 C 
ATOM     22  C   UNL     1      -2.114   1.048  24.685  0.00  0.00    +0.022 C 
ATOM     23  C   UNL     1      -2.743   1.219  24.179  0.00  0.00    +0.002 C 
ATOM     24  C   UNL     1      -1.677   1.663  25.020  0.00  0.00    +0.032 C 
ATOM     25  C   UNL     1      -1.868   2.446  24.850  0.00  0.00    +0.152 C 
ATOM     26  O   UNL     1      -2.497   2.617  24.344  0.00  0.00    -0.223 OA
ENDROOT
BRANCH  10  11
ATOM     11  N   UNL     1      -2.361  -0.349  24.520  0.00  0.00    -0.203 NA
ATOM     12  C   UNL     1      -2.715  -0.916  25.003  0.00  0.00    +0.265 C 
ATOM     13  O   UNL     1      -2.632  -0.869  25.823  0.00  0.00    -0.268 OA
BRANCH  12  14
ATOM     14  C   UNL     1      -3.153  -1.530  24.668  0.00  0.00    +0.055 A 
ATOM     15  C   UNL     1      -2.875  -2.305  24.708  0.00  0.00    +0.005 A 
ATOM     16  C   UNL     1      -3.312  -2.919  24.373  0.00  0.00    +0.010 A 
ATOM     17  C   UNL     1      -4.028  -2.757  23.997  0.00  0.00    +0.068 A 
ATOM     18  C   UNL     1      -4.307  -1.981  23.956  0.00  0.00    +0.010 A 
ATOM     19  C   UNL     1      -3.869  -1.368  24.292  0.00  0.00    +0.005 A 
BRANCH  17  20
ATOM     20  C   UNL     1      -4.467  -3.370  23.661  0.00  0.00    +0.100 C 
ATOM     21  N   UNL     1      -4.906  -3.982  23.325  0.00  0.00    -0.191 NA
ENDBRANCH  17  20
ENDBRANCH  12  14
ENDBRANCH  10  11
BRANCH   3   2
ATOM      1  C   UNL     1      -1.569   4.124  24.240  0.00  0.00    +0.010 C 
ATOM      2  C   UNL     1      -1.621   3.844  25.015  0.00  0.00    +0.081 C 
BRANCH   2  27
ATOM     27  C   UNL     1      -1.863   4.350  25.620  0.00  0.00    +0.241 C 
ATOM     28  O   UNL     1      -2.275   4.049  26.269  0.00  0.00    -0.273 OA
ATOM     29  N   UNL     1      -1.695   5.157  25.576  0.00  0.00    -0.209 NA
BRANCH  29  30
ATOM     30  C   UNL     1      -1.283   5.457  24.927  0.00  0.00    +0.079 C 
ATOM     31  C   UNL     1      -0.872   5.757  24.278  0.00  0.00    +0.022 C 
ATOM     32  C   UNL     1      -0.568   5.243  25.281  0.00  0.00    +0.022 C 
ATOM     33  C   UNL     1      -1.997   5.670  24.575  0.00  0.00    +0.022 C 
ENDBRANCH  29  30
ENDBRANCH   2  27
ENDBRANCH   3   2
TORSDOF 6
ENDMDL
MODEL 7
REMARK VINA RESULT:      -8.8      4.005      6.320
REMARK  Name = 
REMARK  6 active torsions:
REMARK  status: ('A' for Active; 'I' for Inactive)
REMARK    1  A    between atoms: C_2  and  C_3
REMARK    2  A    between atoms: C_2  and  C_27
REMARK    3  A    between atoms: C_10  and  N_11
REMARK    4  A    between atoms: C_12  and  C_14
REMARK    5  A    between atoms: C_17  and  C_20
REMARK    6  A    between atoms: N_29  and  C_30
REMARK                            x       y       z     vdW  Elec       q    Type
REMARK                         _______ _______ _______ _____ _____    ______ ____
ROOT
ATOM      3  C   UNL     1      -2.130  -0.600  24.454  0.00  0.00    +0.039 C 
ATOM      4  C   UNL     1      -2.501   0.085  24.179  0.00  0.00    +0.003 C 
ATOM      5  C   UNL     1      -2.048   0.707  23.883  0.00  0.00    +0.000 C 
ATOM      6  C   UNL     1      -1.226   0.647  23.862  0.00  0.00    +0.002 C 
ATOM      7  C   UNL     1      -1.596   1.330  23.587  0.00  0.00    +0.000 C 
ATOM      8  C   UNL     1      -0.773   1.269  23.566  0.00  0.00    +0.002 C 
ATOM      9  C   UNL     1       0.049   1.209  23.545  0.00  0.00    +0.022 C 
ATOM     10  C   UNL     1       0.419   0.524  23.820  0.00  0.00    +0.096 C 
ATOM     22  C   UNL     1      -0.033  -0.099  24.116  0.00  0.00    +0.022 C 
ATOM     23  C   UNL     1       0.337  -0.783  24.391  0.00  0.00    +0.002 C 
ATOM     24  C   UNL     1      -0.856  -0.038  24.137  0.00  0.00    +0.032 C 
ATOM     25  C   UNL     1      -1.308  -0.661  24.433  0.00  0.00    +0.152 C 
ATOM     26  O   UNL     1      -0.938  -1.345  24.708  0.00  0.00    -0.223 OA
ENDROOT
BRANCH  10  11
ATOM     11  N   UNL     1       1.242   0.463  23.799  0.00  0.00    -0.203 NA
ATOM     12  C   UNL     1       1.633   0.414  23.075  0.00  0.00    +0.265 C 
ATOM     13  O   UNL     1       1.202   0.425  22.370  0.00  0.00    -0.268 OA
BRANCH  12  14
ATOM     14  C   UNL     1       2.456   0.353  23.054  0.00  0.00    +0.055 A 
ATOM     15  C   UNL     1       2.918   1.032  22.978  0.00  0.00    +0.005 A 
ATOM     16  C   UNL     1       3.741   0.971  22.957  0.00  0.00    +0.010 A 
ATOM     17  C   UNL     1       4.101   0.231  23.011  0.00  0.00    +0.068 A 
ATOM     18  C   UNL     1       3.639  -0.449  23.086  0.00  0.00    +0.010 A 
ATOM     19  C   UNL     1       2.816  -0.387  23.107  0.00  0.00    +0.005 A 
BRANCH  17  20
ATOM     20  C   UNL     1       4.923   0.169  22.990  0.00  0.00    +0.100 C 
ATOM     21  N   UNL     1       5.746   0.108  22.967  0.00  0.00    -0.191 NA
ENDBRANCH  17  20
ENDBRANCH  12  14
ENDBRANCH  10  11
BRANCH   3   2
ATOM      1  C   UNL     1      -2.381  -2.003  24.571  0.00  0.00    +0.010 C 
ATOM      2  C   UNL     1      -2.583  -1.223  24.750  0.00  0.00    +0.081 C 
BRANCH   2  27
ATOM     27  C   UNL     1      -3.239  -1.066  25.226  0.00  0.00    +0.241 C 
ATOM     28  O   UNL     1      -3.202  -0.470  25.796  0.00  0.00    -0.273 OA
ATOM     29  N   UNL     1      -3.932  -1.504  25.131  0.00  0.00    -0.209 NA
BRANCH  29  30
ATOM     30  C   UNL     1      -3.968  -2.100  24.561  0.00  0.00    +0.079 C 
ATOM     31  C   UNL     1      -4.005  -2.695  23.992  0.00  0.00    +0.022 C 
ATOM     32  C   UNL     1      -3.621  -2.629  25.092  0.00  0.00    +0.022 C 
ATOM     33  C   UNL     1      -4.315  -1.571  24.032  0.00  0.00    +0.022 C 
ENDBRANCH  29  30
ENDBRANCH   2  27
ENDBRANCH   3   2
TORSDOF 6
ENDMDL
