MODEL 1
REMARK VINA RESULT:     -12.0      0.000      0.000
REMARK  Name = 
REMARK  6 active torsions:
REMARK  status: ('A' for Active; 'I' for Inactive)
REMARK    1  A    between atoms: O_2  and  C_3
REMARK    2  A    between atoms: C_5  and  N_6
REMARK    3  A    between atoms: N_9  and  C_10
REMARK    4  A    between atoms: C_16  and  N_19
REMARK    5  A    between atoms: N_22  and  C_25
REMARK    6  A    between atoms: C_30  and  O_31
REMARK                            x       y       z     vdW  Elec       q    Type
REMARK                         _______ _______ _______ _____ _____    ______ ____
ROOT
ATOM     10  C   UNL     1      -4.252   1.325  24.963  0.00  0.00    +0.158 C 
ATOM     11  C   UNL     1      -4.617   2.106  24.617  0.00  0.00    +0.170 C 
ATOM     12  C   UNL     1      -4.136   2.717  24.598  0.00  0.00    +0.176 C 
ATOM     13  O   UNL     1      -4.063   3.416  24.419  0.00  0.00    -0.327 OA
ATOM     14  C   UNL     1      -4.467   2.637  24.513  0.00  0.00    +0.253 C 
ATOM     15  O   UNL     1      -5.225   2.359  24.345  0.00  0.00    -0.327 OA
ATOM     16  C   UNL     1      -4.071   1.828  24.876  0.00  0.00    +0.147 C 
ATOM     17  C   UNL     1      -3.491   1.607  25.130  0.00  0.00    +0.194 C 
ATOM     18  O   UNL     1      -2.706   1.610  25.386  0.00  0.00    -0.220 OA
ENDROOT
BRANCH  16  19
ATOM     19  N   UNL     1      -3.516   2.438  24.881  0.00  0.00    -0.265 NA
ATOM     20  C   UNL     1      -3.121   2.643  24.186  0.00  0.00    +0.094 C 
ATOM     21  C   UNL     1      -2.565   3.253  24.191  0.00  0.00    +0.108 C 
ATOM     22  N   UNL     1      -2.405   3.658  24.892  0.00  0.00    -0.302 N 
ATOM     23  C   UNL     1      -2.799   3.454  25.587  0.00  0.00    +0.108 C 
ATOM     24  C   UNL     1      -3.354   2.844  25.582  0.00  0.00    +0.094 C 
BRANCH  22  25
ATOM     25  C   UNL     1      -1.849   4.268  24.898  0.00  0.00    +0.082 A 
ATOM     26  C   UNL     1      -2.091   5.044  25.039  0.00  0.00    +0.018 A 
ATOM     27  C   UNL     1      -1.536   5.655  25.046  0.00  0.00    +0.001 A 
ATOM     28  C   UNL     1      -0.740   5.489  24.910  0.00  0.00    +0.003 A 
ATOM     29  C   UNL     1      -0.498   4.713  24.768  0.00  0.00    +0.038 A 
ATOM     30  C   UNL     1      -1.052   4.103  24.762  0.00  0.00    +0.152 A 
BRANCH  30  31
ATOM     31  O   UNL     1      -0.810   3.327  24.620  0.00  0.00    -0.470 OA
ATOM     32  C   UNL     1      -0.011   3.160  24.499  0.00  0.00    +0.253 C 
ENDBRANCH  30  31
ENDBRANCH  22  25
ENDBRANCH  16  19
BRANCH  10   9
ATOM      6  N   UNL     1      -4.547  -0.835  24.861  0.00  0.00    -0.161 NA
ATOM      7  C   UNL     1      -4.215  -0.089  24.753  0.00  0.00    +0.344 C 
ATOM      8  O   UNL     1      -3.512  -0.006  24.328  0.00  0.00    -0.249 OA
ATOM      9  N   UNL     1      -4.585   0.577  25.071  0.00  0.00    -0.183 NA
BRANCH   6   5
ATOM      3  C   UNL     1      -3.146  -2.488  24.599  0.00  0.00    +0.140 A 
ATOM      4  C   UNL     1      -3.515  -1.823  24.916  0.00  0.00    +0.054 A 
ATOM      5  C   UNL     1      -4.177  -1.501  24.543  0.00  0.00    +0.078 A 
ATOM     33  C   UNL     1      -4.469  -1.844  23.852  0.00  0.00    +0.017 A 
ATOM     34  C   UNL     1      -4.099  -2.510  23.534  0.00  0.00    +0.004 A 
ATOM     35  C   UNL     1      -3.437  -2.832  23.908  0.00  0.00    +0.037 A 
BRANCH   3   2
ATOM      1  C   UNL     1      -1.739  -2.744  24.622  0.00  0.00    +0.252 C 
ATOM      2  O   UNL     1      -2.484  -2.810  24.973  0.00  0.00    -0.471 OA
ENDBRANCH   3   2
ENDBRANCH   6   5
ENDBRANCH  10   9
TORSDOF 6
ENDMDL
MODEL 2
REMARK VINA RESULT:     -11.2      1.894      2.859
REMARK  Name = 
REMARK  6 active torsions:
REMARK  status: ('A' for Active; 'I' for Inactive)
REMARK    1  A    between atoms: O_2  and  C_3
REMARK    2  A    between atoms: C_5  and  N_6
REMARK    3  A    between atoms: N_9  and  C_10
REMARK    4  A    between atoms: C_16  and  N_19
REMARK    5  A    between atoms: N_22  and  C_25
REMARK    6  A    between atoms: C_30  and  O_31
REMARK                            x       y       z     vdW  Elec       q    Type
REMARK                         _______ _______ _______ _____ _____    ______ ____
ROOT
ATOM     10  C   UNL     1      -0.591   0.281  24.735  0.00  0.00    +0.158 C 
ATOM     11  C   UNL     1      -0.056   0.767  24.151  0.00  0.00    +0.170 C 
ATOM     12  C   UNL     1      -0.147   1.539  24.183  0.00  0.00    +0.176 C 
ATOM     13  O   UNL     1       0.066   2.178  23.915  0.00  0.00    -0.327 OA
ATOM     14  C   UNL     1       0.042   1.301  24.008  0.00  0.00    +0.253 C 
ATOM     15  O   UNL     1       0.442   0.675  23.651  0.00  0.00    -0.327 OA
ATOM     16  C   UNL     1      -0.523   0.807  24.624  0.00  0.00    +0.147 C 
ATOM     17  C   UNL     1      -0.991   0.912  25.093  0.00  0.00    +0.194 C 
ATOM     18  O   UNL     1      -1.511   1.316  25.590  0.00  0.00    -0.220 OA
ENDROOT
BRANCH  16  19
ATOM     19  N   UNL     1      -0.664   1.616  24.703  0.00  0.00    -0.265 NA
ATOM     20  C   UNL     1      -0.292   2.042  25.304  0.00  0.00    +0.094 C 
ATOM     21  C   UNL     1      -0.433   2.851  25.383  0.00  0.00    +0.108 C 
ATOM     22  N   UNL     1      -0.945   3.233  24.862  0.00  0.00    -0.302 N 
ATOM     23  C   UNL     1      -1.317   2.808  24.262  0.00  0.00    +0.108 C 
ATOM     24  C   UNL     1      -1.176   1.999  24.182  0.00  0.00    +0.094 C 
BRANCH  22  25
ATOM     25  C   UNL     1      -1.087   4.043  24.940  0.00  0.00    +0.082 A 
ATOM     26  C   UNL     1      -0.537   4.587  24.652  0.00  0.00    +0.018 A 
ATOM     27  C   UNL     1      -0.678   5.396  24.730  0.00  0.00    +0.001 A 
ATOM     28  C   UNL     1      -1.368   5.661  25.097  0.00  0.00    +0.003 A 
ATOM     29  C   UNL     1      -1.917   5.117  25.385  0.00  0.00    +0.038 A 
ATOM     30  C   UNL     1      -1.776   4.309  25.307  0.00  0.00    +0.152 A 
BRANCH  30  31
ATOM     31  O   UNL     1      -2.325   3.764  25.596  0.00  0.00    -0.470 OA
ATOM     32  C   UNL     1      -3.010   4.030  25.973  0.00  0.00    +0.253 C 
ENDBRANCH  30  31
ENDBRANCH  22  25
ENDBRANCH  16  19
BRANCH  10   9
ATOM      6  N   UNL     1      -1.450  -1.708  25.001  0.00  0.00    -0.161 NA
ATOM      7  C   UNL     1      -1.391  -0.896  24.876  0.00  0.00    +0.344 C 
ATOM      8  O   UNL     1      -2.074  -0.443  24.769  0.00  0.00    -0.249 OA
ATOM      9  N   UNL     1      -0.650  -0.534  24.859  0.00  0.00    -0.183 NA
BRANCH   6   5
ATOM      3  C   UNL     1      -3.297  -2.659  24.331  0.00  0.00    +0.140 A 
ATOM      4  C   UNL     1      -2.557  -2.297  24.313  0.00  0.00    +0.054 A 
ATOM      5  C   UNL     1      -2.191  -2.070  25.018  0.00  0.00    +0.078 A 
ATOM     33  C   UNL     1      -2.567  -2.206  25.739  0.00  0.00    +0.017 A 
ATOM     34  C   UNL     1      -3.309  -2.568  25.756  0.00  0.00    +0.004 A 
ATOM     35  C   UNL     1      -3.674  -2.794  25.052  0.00  0.00    +0.037 A 
BRANCH   3   2
ATOM      1  C   UNL     1      -4.415  -2.603  23.442  0.00  0.00    +0.252 C 
ATOM      2  O   UNL     1      -3.662  -2.885  23.625  0.00  0.00    -0.471 OA
ENDBRANCH   3   2
ENDBRANCH   6   5
ENDBRANCH  10   9
TORSDOF 6
ENDMDL
MODEL 3
REMARK VINA RESULT:     -10.5      1.927      5.977
REMARK  Name = 
REMARK  6 active torsions:
REMARK  status: ('A' for Active; 'I' for Inactive)
REMARK    1  A    between atoms: O_2  and  C_3
REMARK    2  A    between atoms: C_5  and  N_6
REMARK    3  A    between atoms: N_9  and  C_10
REMARK    4  A    between atoms: C_16  and  N_19
REMARK    5  A    between atoms: N_22  and  C_25
REMARK    6  A    between atoms: C_30  and  O_31
REMARK                            x       y       z     vdW  Elec       q    Type
REMARK                         _______ _______ _______ _____ _____    ______ ____
ROOT
ATOM     10  C   UNL     1      -0.557   1.069  25.127  0.00  0.00    +0.158 C 
ATOM     11  C   UNL     1      -0.189   0.461  24.529  0.00  0.00    +0.170 C 
ATOM     12  C   UNL     1      -0.623  -0.169  24.387  0.00  0.00    +0.176 C 
ATOM     13  O   UNL     1      -0.669  -0.795  24.022  0.00  0.00    -0.327 OA
ATOM     14  C   UNL     1      -0.314  -0.033  24.292  0.00  0.00    +0.253 C 
ATOM     15  O   UNL     1       0.391   0.362  24.127  0.00  0.00    -0.327 OA
ATOM     16  C   UNL     1      -0.711   0.593  24.919  0.00  0.00    +0.147 C 
ATOM     17  C   UNL     1      -1.264   0.669  25.291  0.00  0.00    +0.194 C 
ATOM     18  O   UNL     1      -2.002   0.508  25.623  0.00  0.00    -0.220 OA
ENDROOT
BRANCH  16  19
ATOM     19  N   UNL     1      -1.215  -0.051  24.810  0.00  0.00    -0.265 NA
ATOM     20  C   UNL     1      -1.674  -0.106  24.126  0.00  0.00    +0.094 C 
ATOM     21  C   UNL     1      -2.177  -0.750  24.017  0.00  0.00    +0.108 C 
ATOM     22  N   UNL     1      -2.222  -1.340  24.591  0.00  0.00    -0.302 N 
ATOM     23  C   UNL     1      -1.763  -1.287  25.274  0.00  0.00    +0.108 C 
ATOM     24  C   UNL     1      -1.260  -0.642  25.384  0.00  0.00    +0.094 C 
BRANCH  22  25
ATOM     25  C   UNL     1      -2.725  -1.985  24.483  0.00  0.00    +0.082 A 
ATOM     26  C   UNL     1      -2.421  -2.752  24.499  0.00  0.00    +0.018 A 
ATOM     27  C   UNL     1      -2.924  -3.398  24.391  0.00  0.00    +0.001 A 
ATOM     28  C   UNL     1      -3.730  -3.276  24.266  0.00  0.00    +0.003 A 
ATOM     29  C   UNL     1      -4.034  -2.509  24.250  0.00  0.00    +0.038 A 
ATOM     30  C   UNL     1      -3.532  -1.864  24.359  0.00  0.00    +0.152 A 
BRANCH  30  31
ATOM     31  O   UNL     1      -3.835  -1.097  24.343  0.00  0.00    -0.470 OA
ATOM     32  C   UNL     1      -4.642  -0.976  24.217  0.00  0.00    +0.253 C 
ENDBRANCH  30  31
ENDBRANCH  22  25
ENDBRANCH  16  19
BRANCH  10   9
ATOM      6  N   UNL     1      -0.388   3.207  25.534  0.00  0.00    -0.161 NA
ATOM      7  C   UNL     1      -0.677   2.488  25.253  0.00  0.00    +0.344 C 
ATOM      8  O   UNL     1      -1.376   2.467  24.814  0.00  0.00    -0.249 OA
ATOM      9  N   UNL     1      -0.267   1.789  25.409  0.00  0.00    -0.183 NA
BRANCH   6   5
ATOM      3  C   UNL     1      -1.917   4.762  25.610  0.00  0.00    +0.140 A 
ATOM      4  C   UNL     1      -1.508   4.064  25.767  0.00  0.00    +0.054 A 
ATOM      5  C   UNL     1      -0.798   3.906  25.378  0.00  0.00    +0.078 A 
ATOM     33  C   UNL     1      -0.497   4.446  24.832  0.00  0.00    +0.017 A 
ATOM     34  C   UNL     1      -0.907   5.145  24.676  0.00  0.00    +0.004 A 
ATOM     35  C   UNL     1      -1.617   5.304  25.064  0.00  0.00    +0.037 A 
BRANCH   3   2
ATOM      1  C   UNL     1      -3.311   4.506  25.794  0.00  0.00    +0.252 C 
ATOM      2  O   UNL     1      -2.628   4.920  26.000  0.00  0.00    -0.471 OA
ENDBRANCH   3   2
ENDBRANCH   6   5
ENDBRANCH  10   9
TORSDOF 6
ENDMDL
MODEL 4
REMARK VINA RESULT:     -10.3      0.946      5.431
REMARK  Name = 
REMARK  6 active torsions:
REMARK  status: ('A' for Active; 'I' for Inactive)
REMARK    1  A    between atoms: O_2  and  C_3
REMARK    2  A    between atoms: C_5  and  N_6
REMARK    3  A    between atoms: N_9  and  C_10
REMARK    4  A    between atoms: C_16  and  N_19
REMARK    5  A    between atoms: N_22  and  C_25
REMARK    6  A    between atoms: C_30  and  O_31
REMARK                            x       y       z     vdW  Elec       q    Type
REMARK                         _______ _______ _______ _____ _____    ______ ____
ROOT
ATOM     10  C   UNL     1      -4.061   1.813  24.390  0.00  0.00    +0.158 C 
ATOM     11  C   UNL     1      -4.719   1.310  24.813  0.00  0.00    +0.170 C 
ATOM     12  C   UNL     1      -4.588   0.544  24.833  0.00  0.00    +0.176 C 
ATOM     13  O   UNL     1      -4.841  -0.101  25.049  0.00  0.00    -0.327 OA
ATOM     14  C   UNL     1      -4.830   0.774  24.938  0.00  0.00    +0.253 C 
ATOM     15  O   UNL     1      -5.343   1.386  25.147  0.00  0.00    -0.327 OA
ATOM     16  C   UNL     1      -4.135   1.286  24.494  0.00  0.00    +0.147 C 
ATOM     17  C   UNL     1      -3.548   1.197  24.182  0.00  0.00    +0.194 C 
ATOM     18  O   UNL     1      -2.890   0.811  23.866  0.00  0.00    -0.220 OA
ENDROOT
BRANCH  16  19
ATOM     19  N   UNL     1      -3.942   0.484  24.484  0.00  0.00    -0.265 NA
ATOM     20  C   UNL     1      -3.667   0.117  25.170  0.00  0.00    +0.094 C 
ATOM     21  C   UNL     1      -3.473  -0.685  25.160  0.00  0.00    +0.108 C 
ATOM     22  N   UNL     1      -3.556  -1.120  24.464  0.00  0.00    -0.302 N 
ATOM     23  C   UNL     1      -3.831  -0.753  23.778  0.00  0.00    +0.108 C 
ATOM     24  C   UNL     1      -4.024   0.049  23.788  0.00  0.00    +0.094 C 
BRANCH  22  25
ATOM     25  C   UNL     1      -3.363  -1.922  24.453  0.00  0.00    +0.082 A 
ATOM     26  C   UNL     1      -3.954  -2.487  24.337  0.00  0.00    +0.018 A 
ATOM     27  C   UNL     1      -3.762  -3.289  24.325  0.00  0.00    +0.001 A 
ATOM     28  C   UNL     1      -2.979  -3.527  24.430  0.00  0.00    +0.003 A 
ATOM     29  C   UNL     1      -2.388  -2.962  24.547  0.00  0.00    +0.038 A 
ATOM     30  C   UNL     1      -2.580  -2.161  24.558  0.00  0.00    +0.152 A 
BRANCH  30  31
ATOM     31  O   UNL     1      -1.989  -1.596  24.674  0.00  0.00    -0.470 OA
ATOM     32  C   UNL     1      -1.203  -1.833  24.755  0.00  0.00    +0.253 C 
ENDBRANCH  30  31
ENDBRANCH  22  25
ENDBRANCH  16  19
BRANCH  10   9
ATOM      6  N   UNL     1      -3.361   3.877  24.512  0.00  0.00    -0.161 NA
ATOM      7  C   UNL     1      -3.417   3.064  24.640  0.00  0.00    +0.344 C 
ATOM      8  O   UNL     1      -2.884   2.688  25.147  0.00  0.00    -0.249 OA
ATOM      9  N   UNL     1      -4.005   2.627  24.262  0.00  0.00    -0.183 NA
BRANCH   6   5
ATOM      3  C   UNL     1      -1.461   4.882  24.893  0.00  0.00    +0.140 A 
ATOM      4  C   UNL     1      -2.049   4.445  24.515  0.00  0.00    +0.054 A 
ATOM      5  C   UNL     1      -2.772   4.314  24.890  0.00  0.00    +0.078 A 
ATOM     33  C   UNL     1      -2.906   4.621  25.644  0.00  0.00    +0.017 A 
ATOM     34  C   UNL     1      -2.318   5.058  26.022  0.00  0.00    +0.004 A 
ATOM     35  C   UNL     1      -1.595   5.189  25.647  0.00  0.00    +0.037 A 
BRANCH   3   2
ATOM      1  C   UNL     1      -0.143   4.443  24.558  0.00  0.00    +0.252 C 
ATOM      2  O   UNL     1      -0.738   5.013  24.516  0.00  0.00    -0.471 OA
ENDBRANCH   3   2
ENDBRANCH   6   5
ENDBRANCH  10   9
TORSDOF 6
ENDMDL
MODEL 5
REMARK VINA RESULT:     -10.3      3.521      5.135
REMARK  Name = 
REMARK  6 active torsions:
REMARK  status: ('A' for Active; 'I' for Inactive)
REMARK    1  A    between atoms: O_2  and  C_3
REMARK    2  A    between atoms: C_5  and  N_6
REMARK    3  A    between atoms: N_9  and  C_10
REMARK    4  A    between atoms: C_16  and  N_19
REMARK    5  A    between atoms: N_22  and  C_25
REMARK    6  A    between atoms: C_30  and  O_31
REMARK                            x       y       z     vdW  Elec       q    Type
REMARK                         _______ _______ _______ _____ _____    ______ ____
ROOT
ATOM     10  C   UNL     1       0.221   0.322  23.505  0.00  0.00    +0.158 C 
ATOM     11  C   UNL     1      -0.321  -0.053  24.160  0.00  0.00    +0.170 C 
ATOM     12  C   UNL     1      -0.826   0.437  24.492  0.00  0.00    +0.176 C 
ATOM     13  O   UNL     1      -1.354   0.509  24.985  0.00  0.00    -0.327 OA
ATOM     14  C   UNL     1      -0.732   0.100  24.511  0.00  0.00    +0.253 C 
ATOM     15  O   UNL     1      -0.445  -0.673  24.486  0.00  0.00    -0.327 OA
ATOM     16  C   UNL     1      -0.172   0.505  23.829  0.00  0.00    +0.147 C 
ATOM     17  C   UNL     1      -0.069   1.098  23.532  0.00  0.00    +0.194 C 
ATOM     18  O   UNL     1      -0.155   1.898  23.351  0.00  0.00    -0.220 OA
ENDROOT
BRANCH  16  19
ATOM     19  N   UNL     1      -0.685   1.070  24.143  0.00  0.00    -0.265 NA
ATOM     20  C   UNL     1      -0.535   1.395  24.887  0.00  0.00    +0.094 C 
ATOM     21  C   UNL     1      -1.047   1.960  25.202  0.00  0.00    +0.108 C 
ATOM     22  N   UNL     1      -1.709   2.201  24.772  0.00  0.00    -0.302 N 
ATOM     23  C   UNL     1      -1.859   1.876  24.029  0.00  0.00    +0.108 C 
ATOM     24  C   UNL     1      -1.347   1.311  23.715  0.00  0.00    +0.094 C 
BRANCH  22  25
ATOM     25  C   UNL     1      -2.222   2.766  25.086  0.00  0.00    +0.082 A 
ATOM     26  C   UNL     1      -2.996   2.557  25.280  0.00  0.00    +0.018 A 
ATOM     27  C   UNL     1      -3.510   3.122  25.594  0.00  0.00    +0.001 A 
ATOM     28  C   UNL     1      -3.249   3.895  25.713  0.00  0.00    +0.003 A 
ATOM     29  C   UNL     1      -2.474   4.104  25.519  0.00  0.00    +0.038 A 
ATOM     30  C   UNL     1      -1.962   3.540  25.205  0.00  0.00    +0.152 A 
BRANCH  30  31
ATOM     31  O   UNL     1      -1.187   3.749  25.011  0.00  0.00    -0.470 OA
ATOM     32  C   UNL     1      -0.946   4.536  25.069  0.00  0.00    +0.253 C 
ENDBRANCH  30  31
ENDBRANCH  22  25
ENDBRANCH  16  19
BRANCH  10   9
ATOM      6  N   UNL     1       2.188  -0.118  22.667  0.00  0.00    -0.161 NA
ATOM      7  C   UNL     1       1.597   0.219  23.133  0.00  0.00    +0.344 C 
ATOM      8  O   UNL     1       1.791   0.792  23.696  0.00  0.00    -0.249 OA
ATOM      9  N   UNL     1       0.812  -0.016  23.038  0.00  0.00    -0.183 NA
BRANCH   6   5
ATOM      3  C   UNL     1       4.292  -0.142  23.246  0.00  0.00    +0.140 A 
ATOM      4  C   UNL     1       3.508  -0.377  23.151  0.00  0.00    +0.054 A 
ATOM      5  C   UNL     1       2.973   0.117  22.762  0.00  0.00    +0.078 A 
ATOM     33  C   UNL     1       3.224   0.846  22.469  0.00  0.00    +0.017 A 
ATOM     34  C   UNL     1       4.009   1.081  22.565  0.00  0.00    +0.004 A 
ATOM     35  C   UNL     1       4.544   0.587  22.953  0.00  0.00    +0.037 A 
BRANCH   3   2
ATOM      1  C   UNL     1       5.490  -0.317  24.006  0.00  0.00    +0.252 C 
ATOM      2  O   UNL     1       4.826  -0.638  23.635  0.00  0.00    -0.471 OA
ENDBRANCH   3   2
ENDBRANCH   6   5
ENDBRANCH  10   9
TORSDOF 6
ENDMDL
MODEL 6
REMARK VINA RESULT:      -9.5      2.785      4.462
REMARK  Name = 
REMARK  6 active torsions:
REMARK  status: ('A' for Active; 'I' for Inactive)
REMARK    1  A    between atoms: O_2  and  C_3
REMARK    2  A    between atoms: C_5  and  N_6
REMARK    3  A    between atoms: N_9  and  C_10
REMARK    4  A    between atoms: C_16  and  N_19
REMARK    5  A    between atoms: N_22  and  C_25
REMARK    6  A    between atoms: C_30  and  O_31
REMARK                            x       y       z     vdW  Elec       q    Type
REMARK                         _______ _______ _______ _____ _____    ______ ____
ROOT
ATOM     10  C   UNL     1      -1.227  -0.288  24.522  0.00  0.00    +0.158 C 
ATOM     11  C   UNL     1      -2.026  -0.750  24.417  0.00  0.00    +0.170 C 
ATOM     12  C   UNL     1      -2.670  -0.322  24.501  0.00  0.00    +0.176 C 
ATOM     13  O   UNL     1      -3.396  -0.324  24.494  0.00  0.00    -0.327 OA
ATOM     14  C   UNL     1      -2.579  -0.653  24.432  0.00  0.00    +0.253 C 
ATOM     15  O   UNL     1      -2.273  -1.404  24.277  0.00  0.00    -0.327 OA
ATOM     16  C   UNL     1      -1.752  -0.158  24.544  0.00  0.00    +0.147 C 
ATOM     17  C   UNL     1      -1.537   0.464  24.677  0.00  0.00    +0.194 C 
ATOM     18  O   UNL     1      -1.561   1.271  24.847  0.00  0.00    -0.220 OA
ENDROOT
BRANCH  16  19
ATOM     19  N   UNL     1      -2.397   0.347  24.645  0.00  0.00    -0.265 NA
ATOM     20  C   UNL     1      -2.728   0.729  23.992  0.00  0.00    +0.094 C 
ATOM     21  C   UNL     1      -3.372   1.234  24.093  0.00  0.00    +0.108 C 
ATOM     22  N   UNL     1      -3.687   1.356  24.845  0.00  0.00    -0.302 N 
ATOM     23  C   UNL     1      -3.357   0.975  25.498  0.00  0.00    +0.108 C 
ATOM     24  C   UNL     1      -2.712   0.470  25.397  0.00  0.00    +0.094 C 
BRANCH  22  25
ATOM     25  C   UNL     1      -4.332   1.861  24.947  0.00  0.00    +0.082 A 
ATOM     26  C   UNL     1      -5.099   1.557  24.934  0.00  0.00    +0.018 A 
ATOM     27  C   UNL     1      -5.744   2.061  25.035  0.00  0.00    +0.001 A 
ATOM     28  C   UNL     1      -5.623   2.869  25.149  0.00  0.00    +0.003 A 
ATOM     29  C   UNL     1      -4.855   3.173  25.162  0.00  0.00    +0.038 A 
ATOM     30  C   UNL     1      -4.211   2.669  25.061  0.00  0.00    +0.152 A 
BRANCH  30  31
ATOM     31  O   UNL     1      -3.444   2.973  25.074  0.00  0.00    -0.470 OA
ATOM     32  C   UNL     1      -3.322   3.781  25.195  0.00  0.00    +0.253 C 
ENDBRANCH  30  31
ENDBRANCH  22  25
ENDBRANCH  16  19
BRANCH  10   9
ATOM      6  N   UNL     1       0.818  -0.557  23.806  0.00  0.00    -0.161 NA
ATOM      7  C   UNL     1       0.037  -0.297  23.853  0.00  0.00    +0.344 C 
ATOM      8  O   UNL     1      -0.264   0.216  23.280  0.00  0.00    -0.249 OA
ATOM      9  N   UNL     1      -0.445  -0.549  24.474  0.00  0.00    -0.183 NA
BRANCH   6   5
ATOM      3  C   UNL     1       2.422   0.443  22.715  0.00  0.00    +0.140 A 
ATOM      4  C   UNL     1       1.941   0.191  23.335  0.00  0.00    +0.054 A 
ATOM      5  C   UNL     1       1.299  -0.304  23.185  0.00  0.00    +0.078 A 
ATOM     33  C   UNL     1       1.138  -0.548  22.413  0.00  0.00    +0.017 A 
ATOM     34  C   UNL     1       1.619  -0.296  21.792  0.00  0.00    +0.004 A 
ATOM     35  C   UNL     1       2.262   0.200  21.943  0.00  0.00    +0.037 A 
BRANCH   3   2
ATOM      1  C   UNL     1       3.829   0.692  22.677  0.00  0.00    +0.252 C 
ATOM      2  O   UNL     1       3.065   0.939  22.866  0.00  0.00    -0.471 OA
ENDBRANCH   3   2
ENDBRANCH   6   5
ENDBRANCH  10   9
TORSDOF 6
ENDMDL
MODEL 7
REMARK VINA RESULT:      -9.2      2.402      4.498
REMARK  Name = 
REMARK  6 active torsions:
REMARK  status: ('A' for Active; 'I' for Inactive)
REMARK    1  A    between atoms: O_2  and  C_3
REMARK    2  A    between atoms: C_5  and  N_6
REMARK    3  A    between atoms: N_9  and  C_10
REMARK    4  A    between atoms: C_16  and  N_19
REMARK    5  A    between atoms: N_22  and  C_25
REMARK    6  A    between atoms: C_30  and  O_31
REMARK                            x       y       z     vdW  Elec       q    Type
REMARK                         _______ _______ _______ _____ _____    ______ ____
ROOT
ATOM     10  C   UNL     1      -0.474   2.448  24.825  0.00  0.00    +0.158 C 
ATOM     11  C   UNL     1      -0.801   3.301  24.654  0.00  0.00    +0.170 C 
ATOM     12  C   UNL     1      -1.571   3.383  24.731  0.00  0.00    +0.176 C 
ATOM     13  O   UNL     1      -2.131   3.842  24.689  0.00  0.00    -0.327 OA
ATOM     14  C   UNL     1      -1.291   3.577  24.648  0.00  0.00    +0.253 C 
ATOM     15  O   UNL     1      -0.579   3.951  24.464  0.00  0.00    -0.327 OA
ATOM     16  C   UNL     1      -0.964   2.680  24.829  0.00  0.00    +0.147 C 
ATOM     17  C   UNL     1      -1.191   2.075  25.009  0.00  0.00    +0.194 C 
ATOM     18  O   UNL     1      -1.720   1.479  25.224  0.00  0.00    -0.220 OA
ENDROOT
BRANCH  16  19
ATOM     19  N   UNL     1      -1.783   2.705  24.927  0.00  0.00    -0.265 NA
ATOM     20  C   UNL     1      -2.279   2.635  24.272  0.00  0.00    +0.094 C 
ATOM     21  C   UNL     1      -3.098   2.659  24.370  0.00  0.00    +0.108 C 
ATOM     22  N   UNL     1      -3.420   2.754  25.123  0.00  0.00    -0.302 N 
ATOM     23  C   UNL     1      -2.924   2.825  25.778  0.00  0.00    +0.108 C 
ATOM     24  C   UNL     1      -2.106   2.800  25.680  0.00  0.00    +0.094 C 
BRANCH  22  25
ATOM     25  C   UNL     1      -4.239   2.779  25.222  0.00  0.00    +0.082 A 
ATOM     26  C   UNL     1      -4.611   3.493  25.403  0.00  0.00    +0.018 A 
ATOM     27  C   UNL     1      -5.430   3.519  25.502  0.00  0.00    +0.001 A 
ATOM     28  C   UNL     1      -5.876   2.831  25.420  0.00  0.00    +0.003 A 
ATOM     29  C   UNL     1      -5.505   2.116  25.239  0.00  0.00    +0.038 A 
ATOM     30  C   UNL     1      -4.687   2.091  25.140  0.00  0.00    +0.152 A 
BRANCH  30  31
ATOM     31  O   UNL     1      -4.315   1.377  24.958  0.00  0.00    -0.470 OA
ATOM     32  C   UNL     1      -4.759   0.683  24.904  0.00  0.00    +0.253 C 
ENDBRANCH  30  31
ENDBRANCH  22  25
ENDBRANCH  16  19
BRANCH  10   9
ATOM      6  N   UNL     1       1.294   1.353  24.164  0.00  0.00    -0.161 NA
ATOM      7  C   UNL     1       0.525   1.648  24.188  0.00  0.00    +0.344 C 
ATOM      8  O   UNL     1      -0.017   1.440  23.601  0.00  0.00    -0.249 OA
ATOM      9  N   UNL     1       0.296   2.152  24.800  0.00  0.00    -0.183 NA
BRANCH   6   5
ATOM      3  C   UNL     1       2.479   0.453  22.567  0.00  0.00    +0.140 A 
ATOM      4  C   UNL     1       2.251   0.957  23.178  0.00  0.00    +0.054 A 
ATOM      5  C   UNL     1       1.523   0.849  23.552  0.00  0.00    +0.078 A 
ATOM     33  C   UNL     1       1.024   0.236  23.314  0.00  0.00    +0.017 A 
ATOM     34  C   UNL     1       1.253  -0.268  22.702  0.00  0.00    +0.004 A 
ATOM     35  C   UNL     1       1.981  -0.160  22.328  0.00  0.00    +0.037 A 
BRANCH   3   2
ATOM      1  C   UNL     1       3.903   0.562  22.637  0.00  0.00    +0.252 C 
ATOM      2  O   UNL     1       3.207   0.562  22.193  0.00  0.00    -0.471 OA
ENDBRANCH   3   2
ENDBRANCH   6   5
ENDBRANCH  10   9
TORSDOF 6
ENDMDL
