MODEL 1
REMARK VINA RESULT:     -11.5      0.000      0.000
REMARK  Name = 
REMARK  9 active torsions:
REMARK  status: ('A' for Active; 'I' for Inactive)
REMARK    1  A    between atoms: C_2  and  N_4
REMARK    2  A    between atoms: N_7  and  C_8
REMARK    3  A    between atoms: C_12  and  C_13
REMARK    4  A    between atoms: N_15  and  C_16
REMARK    5  A    between atoms: C_16  and  C_17
REMARK    6  A    between atoms: C_16  and  C_27
REMARK    7  A    between atoms: C_17  and  C_18
REMARK    8  A    between atoms: C_30  and  C_32
REMARK    9  A    between atoms: C_32  and  C_33
REMARK                            x       y       z     vdW  Elec       q    Type
REMARK                         _______ _______ _______ _____ _____    ______ ____
ROOT
ATOM      8  C   UNL     1      -4.018   1.005  24.686  0.00  0.00    +0.126 C 
ATOM      9  C   UNL     1      -4.749   0.663  24.852  0.00  0.00    +0.045 C 
ATOM     10  C   UNL     1      -4.662  -0.157  24.809  0.00  0.00    +0.096 C 
ATOM     11  N   UNL     1      -3.877  -0.320  24.616  0.00  0.00    -0.272 N 
ATOM     12  C   UNL     1      -3.479   0.398  24.540  0.00  0.00    +0.174 C 
ATOM     30  C   UNL     1      -3.549  -1.071  24.517  0.00  0.00    +0.226 C 
ATOM     31  O   UNL     1      -2.751  -1.149  24.323  0.00  0.00    -0.275 OA
ENDROOT
BRANCH   8   7
ATOM      4  N   UNL     1      -4.145   3.145  25.096  0.00  0.00    -0.189 NA
ATOM      5  C   UNL     1      -4.309   2.337  25.114  0.00  0.00    +0.339 C 
ATOM      6  O   UNL     1      -4.929   2.052  25.578  0.00  0.00    -0.249 OA
ATOM      7  N   UNL     1      -3.853   1.813  24.668  0.00  0.00    -0.187 NA
BRANCH   4   2
ATOM      1  C   UNL     1      -4.304   3.974  26.250  0.00  0.00    +0.023 C 
ATOM      2  C   UNL     1      -4.601   3.668  25.543  0.00  0.00    +0.097 C 
ATOM      3  C   UNL     1      -5.353   3.885  25.283  0.00  0.00    +0.023 C 
ENDBRANCH   4   2
ENDBRANCH   8   7
BRANCH  12  13
ATOM     13  C   UNL     1      -2.681   0.492  24.350  0.00  0.00    +0.262 C 
ATOM     14  O   UNL     1      -2.435   0.437  23.565  0.00  0.00    -0.271 OA
ATOM     15  N   UNL     1      -2.130   0.641  24.946  0.00  0.00    -0.196 NA
BRANCH  15  16
ATOM     16  C   UNL     1      -1.334   0.735  24.757  0.00  0.00    +0.179 C 
BRANCH  16  27
ATOM     27  C   UNL     1      -0.812   0.101  24.838  0.00  0.00    +0.281 C 
ATOM     28  N   UNL     1      -0.339  -0.129  24.203  0.00  0.00    -0.086 NA
ATOM     29  O   UNL     1      -0.764  -0.304  25.556  0.00  0.00    -0.270 OA
ENDBRANCH  16  27
BRANCH  16  17
ATOM     17  C   UNL     1      -1.057   1.463  24.486  0.00  0.00    +0.059 C 
BRANCH  17  18
ATOM     18  C   UNL     1      -0.849   2.053  25.025  0.00  0.00    +0.001 A 
ATOM     19  C   UNL     1      -0.682   1.940  25.824  0.00  0.00    +0.095 A 
ATOM     20  N   UNL     1      -0.501   2.676  26.153  0.00  0.00    -0.244 NA
ATOM     21  C   UNL     1      -0.558   3.242  25.556  0.00  0.00    +0.081 A 
ATOM     22  C   UNL     1      -0.773   2.857  24.859  0.00  0.00    +0.015 A 
ATOM     23  C   UNL     1      -0.871   3.288  24.162  0.00  0.00    +0.001 A 
ATOM     24  C   UNL     1      -0.754   4.105  24.163  0.00  0.00    +0.000 A 
ATOM     25  C   UNL     1      -0.539   4.491  24.860  0.00  0.00    +0.002 A 
ATOM     26  C   UNL     1      -0.441   4.059  25.556  0.00  0.00    +0.019 A 
ENDBRANCH  17  18
ENDBRANCH  16  17
ENDBRANCH  15  16
ENDBRANCH  12  13
BRANCH  30  32
ATOM     32  C   UNL     1      -4.017  -1.742  24.611  0.00  0.00    +0.085 C 
BRANCH  32  33
ATOM     33  C   UNL     1      -3.692  -2.492  24.501  0.00  0.00    +0.009 C 
ATOM     34  C   UNL     1      -3.965  -2.495  23.722  0.00  0.00    +0.000 C 
ATOM     35  C   UNL     1      -3.419  -2.489  25.279  0.00  0.00    +0.000 C 
ATOM     36  C   UNL     1      -3.367  -3.242  24.389  0.00  0.00    +0.000 C 
ENDBRANCH  32  33
ENDBRANCH  30  32
TORSDOF 9
ENDMDL
MODEL 2
REMARK VINA RESULT:     -10.9      1.359      4.493
REMARK  Name = 
REMARK  9 active torsions:
REMARK  status: ('A' for Active; 'I' for Inactive)
REMARK    1  A    between atoms: C_2  and  N_4
REMARK    2  A    between atoms: N_7  and  C_8
REMARK    3  A    between atoms: C_12  and  C_13
REMARK    4  A    between atoms: N_15  and  C_16
REMARK    5  A    between atoms: C_16  and  C_17
REMARK    6  A    between atoms: C_16  and  C_27
REMARK    7  A    between atoms: C_17  and  C_18
REMARK    8  A    between atoms: C_30  and  C_32
REMARK    9  A    between atoms: C_32  and  C_33
REMARK                            x       y       z     vdW  Elec       q    Type
REMARK                         _______ _______ _______ _____ _____    ______ ____
ROOT
ATOM      8  C   UNL     1      -3.618   2.776  25.387  0.00  0.00    +0.126 C 
ATOM      9  C   UNL     1      -3.774   3.498  25.755  0.00  0.00    +0.045 C 
ATOM     10  C   UNL     1      -3.113   3.982  25.655  0.00  0.00    +0.096 C 
ATOM     11  N   UNL     1      -2.549   3.559  25.227  0.00  0.00    -0.272 N 
ATOM     12  C   UNL     1      -2.861   2.814  25.061  0.00  0.00    +0.174 C 
ATOM     30  C   UNL     1      -1.803   3.834  25.003  0.00  0.00    +0.226 C 
ATOM     31  O   UNL     1      -1.296   3.346  24.574  0.00  0.00    -0.275 OA
ENDROOT
BRANCH   8   7
ATOM      4  N   UNL     1      -5.454   1.597  25.388  0.00  0.00    -0.189 NA
ATOM      5  C   UNL     1      -4.943   2.243  25.423  0.00  0.00    +0.339 C 
ATOM      6  O   UNL     1      -5.246   3.003  25.530  0.00  0.00    -0.249 OA
ATOM      7  N   UNL     1      -4.129   2.130  25.352  0.00  0.00    -0.187 NA
BRANCH   4   2
ATOM      1  C   UNL     1      -6.617   1.732  26.207  0.00  0.00    +0.023 C 
ATOM      2  C   UNL     1      -6.268   1.711  25.459  0.00  0.00    +0.097 C 
ATOM      3  C   UNL     1      -6.733   1.804  24.785  0.00  0.00    +0.023 C 
ENDBRANCH   4   2
ENDBRANCH   8   7
BRANCH  12  13
ATOM     13  C   UNL     1      -2.482   2.212  24.643  0.00  0.00    +0.262 C 
ATOM     14  O   UNL     1      -2.401   2.268  23.824  0.00  0.00    -0.271 OA
ATOM     15  N   UNL     1      -2.186   1.554  25.043  0.00  0.00    -0.196 NA
BRANCH  15  16
ATOM     16  C   UNL     1      -1.808   0.953  24.625  0.00  0.00    +0.179 C 
BRANCH  16  27
ATOM     27  C   UNL     1      -0.984   0.943  24.569  0.00  0.00    +0.281 C 
ATOM     28  N   UNL     1      -0.621   0.902  23.831  0.00  0.00    -0.086 NA
ATOM     29  O   UNL     1      -0.525   0.973  25.254  0.00  0.00    -0.270 OA
ENDBRANCH  16  27
BRANCH  16  17
ATOM     17  C   UNL     1      -2.253   0.361  24.261  0.00  0.00    +0.059 C 
BRANCH  17  18
ATOM     18  C   UNL     1      -2.453  -0.321  24.680  0.00  0.00    +0.001 A 
ATOM     19  C   UNL     1      -2.111  -0.573  25.387  0.00  0.00    +0.095 A 
ATOM     20  N   UNL     1      -2.478  -1.279  25.611  0.00  0.00    -0.244 NA
ATOM     21  C   UNL     1      -3.047  -1.461  25.041  0.00  0.00    +0.081 A 
ATOM     22  C   UNL     1      -3.031  -0.869  24.466  0.00  0.00    +0.015 A 
ATOM     23  C   UNL     1      -3.545  -0.906  23.822  0.00  0.00    +0.001 A 
ATOM     24  C   UNL     1      -4.075  -1.535  23.753  0.00  0.00    +0.000 A 
ATOM     25  C   UNL     1      -4.091  -2.128  24.327  0.00  0.00    +0.002 A 
ATOM     26  C   UNL     1      -3.576  -2.091  24.971  0.00  0.00    +0.019 A 
ENDBRANCH  17  18
ENDBRANCH  16  17
ENDBRANCH  15  16
ENDBRANCH  12  13
BRANCH  30  32
ATOM     32  C   UNL     1      -1.566   4.596  25.210  0.00  0.00    +0.085 C 
BRANCH  32  33
ATOM     33  C   UNL     1      -0.887   4.922  24.872  0.00  0.00    +0.009 C 
ATOM     34  C   UNL     1      -1.357   5.424  24.416  0.00  0.00    +0.000 C 
ATOM     35  C   UNL     1      -0.418   4.420  25.329  0.00  0.00    +0.000 C 
ATOM     36  C   UNL     1      -0.209   5.250  24.534  0.00  0.00    +0.000 C 
ENDBRANCH  32  33
ENDBRANCH  30  32
TORSDOF 9
ENDMDL
MODEL 3
REMARK VINA RESULT:     -10.7      1.867      4.253
REMARK  Name = 
REMARK  9 active torsions:
REMARK  status: ('A' for Active; 'I' for Inactive)
REMARK    1  A    between atoms: C_2  and  N_4
REMARK    2  A    between atoms: N_7  and  C_8
REMARK    3  A    between atoms: C_12  and  C_13
REMARK    4  A    between atoms: N_15  and  C_16
REMARK    5  A    between atoms: C_16  and  C_17
REMARK    6  A    between atoms: C_16  and  C_27
REMARK    7  A    between atoms: C_17  and  C_18
REMARK    8  A    between atoms: C_30  and  C_32
REMARK    9  A    between atoms: C_32  and  C_33
REMARK                            x       y       z     vdW  Elec       q    Type
REMARK                         _______ _______ _______ _____ _____    ______ ____
ROOT
ATOM      8  C   UNL     1      -0.206  -0.052  23.976  0.00  0.00    +0.126 C 
ATOM      9  C   UNL     1      -0.310  -0.851  23.798  0.00  0.00    +0.045 C 
ATOM     10  C   UNL     1      -0.972  -1.119  24.212  0.00  0.00    +0.096 C 
ATOM     11  N   UNL     1      -1.276  -0.486  24.645  0.00  0.00    -0.272 N 
ATOM     12  C   UNL     1      -0.803   0.173  24.499  0.00  0.00    +0.174 C 
ATOM     30  C   UNL     1      -1.938  -0.510  25.138  0.00  0.00    +0.226 C 
ATOM     31  O   UNL     1      -2.178   0.170  25.538  0.00  0.00    -0.275 OA
ENDROOT
BRANCH   8   7
ATOM      4  N   UNL     1       1.620   0.598  22.972  0.00  0.00    -0.189 NA
ATOM      5  C   UNL     1       1.023   0.110  23.266  0.00  0.00    +0.339 C 
ATOM      6  O   UNL     1       1.059  -0.705  23.143  0.00  0.00    -0.249 OA
ATOM      7  N   UNL     1       0.390   0.436  23.682  0.00  0.00    -0.187 NA
BRANCH   4   2
ATOM      1  C   UNL     1       3.019   0.333  22.855  0.00  0.00    +0.023 C 
ATOM      2  C   UNL     1       2.252   0.271  22.555  0.00  0.00    +0.097 C 
ATOM      3  C   UNL     1       2.119  -0.118  21.840  0.00  0.00    +0.023 C 
ENDBRANCH   4   2
ENDBRANCH   8   7
BRANCH  12  13
ATOM     13  C   UNL     1      -0.908   0.926  24.821  0.00  0.00    +0.262 C 
ATOM     14  O   UNL     1      -0.670   1.080  25.595  0.00  0.00    -0.271 OA
ATOM     15  N   UNL     1      -1.251   1.524  24.368  0.00  0.00    -0.196 NA
BRANCH  15  16
ATOM     16  C   UNL     1      -1.356   2.276  24.689  0.00  0.00    +0.179 C 
BRANCH  16  27
ATOM     27  C   UNL     1      -0.743   2.827  24.660  0.00  0.00    +0.281 C 
ATOM     28  N   UNL     1      -0.423   3.125  25.359  0.00  0.00    -0.086 NA
ATOM     29  O   UNL     1      -0.449   3.079  23.932  0.00  0.00    -0.270 OA
ENDBRANCH  16  27
BRANCH  16  17
ATOM     17  C   UNL     1      -2.075   2.477  25.039  0.00  0.00    +0.059 C 
BRANCH  17  18
ATOM     18  C   UNL     1      -2.728   2.661  24.568  0.00  0.00    +0.001 A 
ATOM     19  C   UNL     1      -2.724   2.740  23.747  0.00  0.00    +0.095 A 
ATOM     20  N   UNL     1      -3.492   2.925  23.505  0.00  0.00    -0.244 NA
ATOM     21  C   UNL     1      -3.969   2.960  24.178  0.00  0.00    +0.081 A 
ATOM     22  C   UNL     1      -3.496   2.796  24.834  0.00  0.00    +0.015 A 
ATOM     23  C   UNL     1      -3.827   2.792  25.590  0.00  0.00    +0.001 A 
ATOM     24  C   UNL     1      -4.630   2.952  25.690  0.00  0.00    +0.000 A 
ATOM     25  C   UNL     1      -5.103   3.115  25.034  0.00  0.00    +0.002 A 
ATOM     26  C   UNL     1      -4.773   3.119  24.278  0.00  0.00    +0.019 A 
ENDBRANCH  17  18
ENDBRANCH  16  17
ENDBRANCH  15  16
ENDBRANCH  12  13
BRANCH  30  32
ATOM     32  C   UNL     1      -2.359  -1.213  25.230  0.00  0.00    +0.085 C 
BRANCH  32  33
ATOM     33  C   UNL     1      -3.102  -1.205  25.588  0.00  0.00    +0.009 C 
ATOM     34  C   UNL     1      -3.456  -1.112  24.849  0.00  0.00    +0.000 C 
ATOM     35  C   UNL     1      -2.747  -1.298  26.327  0.00  0.00    +0.000 C 
ATOM     36  C   UNL     1      -3.846  -1.197  25.945  0.00  0.00    +0.000 C 
ENDBRANCH  32  33
ENDBRANCH  30  32
TORSDOF 9
ENDMDL
MODEL 4
REMARK VINA RESULT:     -10.6      1.407      4.154
REMARK  Name = 
REMARK  9 active torsions:
REMARK  status: ('A' for Active; 'I' for Inactive)
REMARK    1  A    between atoms: C_2  and  N_4
REMARK    2  A    between atoms: N_7  and  C_8
REMARK    3  A    between atoms: C_12  and  C_13
REMARK    4  A    between atoms: N_15  and  C_16
REMARK    5  A    between atoms: C_16  and  C_17
REMARK    6  A    between atoms: C_16  and  C_27
REMARK    7  A    between atoms: C_17  and  C_18
REMARK    8  A    between atoms: C_30  and  C_32
REMARK    9  A    between atoms: C_32  and  C_33
REMARK                            x       y       z     vdW  Elec       q    Type
REMARK                         _______ _______ _______ _____ _____    ______ ____
ROOT
ATOM      8  C   UNL     1      -2.827   3.277  25.370  0.00  0.00    +0.126 C 
ATOM      9  C   UNL     1      -3.328   3.761  25.812  0.00  0.00    +0.045 C 
ATOM     10  C   UNL     1      -4.089   3.445  25.769  0.00  0.00    +0.096 C 
ATOM     11  N   UNL     1      -4.058   2.767  25.300  0.00  0.00    -0.272 N 
ATOM     12  C   UNL     1      -3.278   2.664  25.054  0.00  0.00    +0.174 C 
ATOM     30  C   UNL     1      -4.696   2.279  25.112  0.00  0.00    +0.226 C 
ATOM     31  O   UNL     1      -4.580   1.616  24.635  0.00  0.00    -0.275 OA
ENDROOT
BRANCH   8   7
ATOM      4  N   UNL     1      -0.919   4.230  24.902  0.00  0.00    -0.189 NA
ATOM      5  C   UNL     1      -1.730   4.119  25.010  0.00  0.00    +0.339 C 
ATOM      6  O   UNL     1      -2.254   4.740  24.864  0.00  0.00    -0.249 OA
ATOM      7  N   UNL     1      -2.016   3.388  25.262  0.00  0.00    -0.187 NA
BRANCH   4   2
ATOM      1  C   UNL     1      -0.204   5.016  23.946  0.00  0.00    +0.023 C 
ATOM      2  C   UNL     1      -0.634   4.962  24.650  0.00  0.00    +0.097 C 
ATOM      3  C   UNL     1      -0.776   5.639  25.099  0.00  0.00    +0.023 C 
ENDBRANCH   4   2
ENDBRANCH   8   7
BRANCH  12  13
ATOM     13  C   UNL     1      -2.998   2.052  24.575  0.00  0.00    +0.262 C 
ATOM     14  O   UNL     1      -3.135   2.071  23.761  0.00  0.00    -0.271 OA
ATOM     15  N   UNL     1      -2.582   1.423  24.909  0.00  0.00    -0.196 NA
BRANCH  15  16
ATOM     16  C   UNL     1      -2.302   0.813  24.430  0.00  0.00    +0.179 C 
BRANCH  16  27
ATOM     27  C   UNL     1      -1.524   0.827  24.155  0.00  0.00    +0.281 C 
ATOM     28  N   UNL     1      -1.373   0.861  23.346  0.00  0.00    -0.086 NA
ATOM     29  O   UNL     1      -0.898   0.806  24.691  0.00  0.00    -0.270 OA
ENDBRANCH  16  27
BRANCH  16  17
ATOM     17  C   UNL     1      -2.801   0.189  24.225  0.00  0.00    +0.059 C 
BRANCH  17  18
ATOM     18  C   UNL     1      -2.821  -0.493  24.690  0.00  0.00    +0.001 A 
ATOM     19  C   UNL     1      -2.420  -0.606  25.402  0.00  0.00    +0.095 A 
ATOM     20  N   UNL     1      -2.596  -1.364  25.677  0.00  0.00    -0.244 NA
ATOM     21  C   UNL     1      -3.106  -1.720  25.133  0.00  0.00    +0.081 A 
ATOM     22  C   UNL     1      -3.244  -1.181  24.524  0.00  0.00    +0.015 A 
ATOM     23  C   UNL     1      -3.739  -1.387  23.897  0.00  0.00    +0.001 A 
ATOM     24  C   UNL     1      -4.095  -2.131  23.879  0.00  0.00    +0.000 A 
ATOM     25  C   UNL     1      -3.956  -2.670  24.488  0.00  0.00    +0.002 A 
ATOM     26  C   UNL     1      -3.462  -2.464  25.115  0.00  0.00    +0.019 A 
ENDBRANCH  17  18
ENDBRANCH  16  17
ENDBRANCH  15  16
ENDBRANCH  12  13
BRANCH  30  32
ATOM     32  C   UNL     1      -5.448   2.453  25.400  0.00  0.00    +0.085 C 
BRANCH  32  33
ATOM     33  C   UNL     1      -6.071   1.925  25.276  0.00  0.00    +0.009 C 
ATOM     34  C   UNL     1      -6.232   2.288  24.553  0.00  0.00    +0.000 C 
ATOM     35  C   UNL     1      -5.908   1.563  25.999  0.00  0.00    +0.000 C 
ATOM     36  C   UNL     1      -6.693   1.398  25.151  0.00  0.00    +0.000 C 
ENDBRANCH  32  33
ENDBRANCH  30  32
TORSDOF 9
ENDMDL
MODEL 5
REMARK VINA RESULT:     -10.6      1.309      5.314
REMARK  Name = 
REMARK  9 active torsions:
REMARK  status: ('A' for Active; 'I' for Inactive)
REMARK    1  A    between atoms: C_2  and  N_4
REMARK    2  A    between atoms: N_7  and  C_8
REMARK    3  A    between atoms: C_12  and  C_13
REMARK    4  A    between atoms: N_15  and  C_16
REMARK    5  A    between atoms: C_16  and  C_17
REMARK    6  A    between atoms: C_16  and  C_27
REMARK    7  A    between atoms: C_17  and  C_18
REMARK    8  A    between atoms: C_30  and  C_32
REMARK    9  A    between atoms: C_32  and  C_33
REMARK                            x       y       z     vdW  Elec       q    Type
REMARK                         _______ _______ _______ _____ _____    ______ ____
ROOT
ATOM      8  C   UNL     1      -1.453   1.754  24.184  0.00  0.00    +0.126 C 
ATOM      9  C   UNL     1      -0.849   2.277  24.392  0.00  0.00    +0.045 C 
ATOM     10  C   UNL     1      -1.195   2.935  24.749  0.00  0.00    +0.096 C 
ATOM     11  N   UNL     1      -2.012   2.819  24.762  0.00  0.00    -0.272 N 
ATOM     12  C   UNL     1      -2.170   2.089  24.413  0.00  0.00    +0.174 C 
ATOM     30  C   UNL     1      -2.570   3.342  25.070  0.00  0.00    +0.226 C 
ATOM     31  O   UNL     1      -3.372   3.150  25.045  0.00  0.00    -0.275 OA
ENDROOT
BRANCH   8   7
ATOM      4  N   UNL     1      -0.572  -0.148  23.572  0.00  0.00    -0.189 NA
ATOM      5  C   UNL     1      -0.670   0.582  23.944  0.00  0.00    +0.339 C 
ATOM      6  O   UNL     1      -0.083   0.872  24.446  0.00  0.00    -0.249 OA
ATOM      7  N   UNL     1      -1.355   1.024  23.813  0.00  0.00    -0.187 NA
BRANCH   4   2
ATOM      1  C   UNL     1       0.783  -0.455  23.241  0.00  0.00    +0.023 C 
ATOM      2  C   UNL     1       0.113  -0.588  23.704  0.00  0.00    +0.097 C 
ATOM      3  C   UNL     1       0.128  -1.161  24.296  0.00  0.00    +0.023 C 
ENDBRANCH   4   2
ENDBRANCH   8   7
BRANCH  12  13
ATOM     13  C   UNL     1      -2.917   1.753  24.311  0.00  0.00    +0.262 C 
ATOM     14  O   UNL     1      -3.359   1.929  23.637  0.00  0.00    -0.271 OA
ATOM     15  N   UNL     1      -3.222   1.242  24.883  0.00  0.00    -0.196 NA
BRANCH  15  16
ATOM     16  C   UNL     1      -3.968   0.906  24.780  0.00  0.00    +0.179 C 
BRANCH  16  27
ATOM     27  C   UNL     1      -4.641   1.309  25.037  0.00  0.00    +0.281 C 
ATOM     28  N   UNL     1      -5.214   1.544  24.493  0.00  0.00    -0.086 NA
ATOM     29  O   UNL     1      -4.740   1.477  25.838  0.00  0.00    -0.270 OA
ENDBRANCH  16  27
BRANCH  16  17
ATOM     17  C   UNL     1      -4.042   0.167  24.421  0.00  0.00    +0.059 C 
BRANCH  17  18
ATOM     18  C   UNL     1      -3.857  -0.518  24.843  0.00  0.00    +0.001 A 
ATOM     19  C   UNL     1      -3.641  -0.552  25.638  0.00  0.00    +0.095 A 
ATOM     20  N   UNL     1      -3.506  -1.344  25.832  0.00  0.00    -0.244 NA
ATOM     21  C   UNL     1      -3.639  -1.797  25.154  0.00  0.00    +0.081 A 
ATOM     22  C   UNL     1      -3.855  -1.286  24.544  0.00  0.00    +0.015 A 
ATOM     23  C   UNL     1      -4.023  -1.587  23.795  0.00  0.00    +0.001 A 
ATOM     24  C   UNL     1      -3.974  -2.399  23.655  0.00  0.00    +0.000 A 
ATOM     25  C   UNL     1      -3.758  -2.910  24.266  0.00  0.00    +0.002 A 
ATOM     26  C   UNL     1      -3.590  -2.609  25.015  0.00  0.00    +0.019 A 
ENDBRANCH  17  18
ENDBRANCH  16  17
ENDBRANCH  15  16
ENDBRANCH  12  13
BRANCH  30  32
ATOM     32  C   UNL     1      -2.328   4.056  25.404  0.00  0.00    +0.085 C 
BRANCH  32  33
ATOM     33  C   UNL     1      -2.875   4.538  25.791  0.00  0.00    +0.009 C 
ATOM     34  C   UNL     1      -2.710   4.153  26.501  0.00  0.00    +0.000 C 
ATOM     35  C   UNL     1      -3.038   4.923  25.079  0.00  0.00    +0.000 C 
ATOM     36  C   UNL     1      -3.421   5.020  26.178  0.00  0.00    +0.000 C 
ENDBRANCH  32  33
ENDBRANCH  30  32
TORSDOF 9
ENDMDL
MODEL 6
REMARK VINA RESULT:     -10.5      1.043      3.584
REMARK  Name = 
REMARK  9 active torsions:
REMARK  status: ('A' for Active; 'I' for Inactive)
REMARK    1  A    between atoms: C_2  and  N_4
REMARK    2  A    between atoms: N_7  and  C_8
REMARK    3  A    between atoms: C_12  and  C_13
REMARK    4  A    between atoms: N_15  and  C_16
REMARK    5  A    between atoms: C_16  and  C_17
REMARK    6  A    between atoms: C_16  and  C_27
REMARK    7  A    between atoms: C_17  and  C_18
REMARK    8  A    between atoms: C_30  and  C_32
REMARK    9  A    between atoms: C_32  and  C_33
REMARK                            x       y       z     vdW  Elec       q    Type
REMARK                         _______ _______ _______ _____ _____    ______ ____
ROOT
ATOM      8  C   UNL     1      -3.723   0.017  24.422  0.00  0.00    +0.126 C 
ATOM      9  C   UNL     1      -4.493   0.044  24.127  0.00  0.00    +0.045 C 
ATOM     10  C   UNL     1      -4.813   0.779  24.322  0.00  0.00    +0.096 C 
ATOM     11  N   UNL     1      -4.242   1.205  24.736  0.00  0.00    -0.272 N 
ATOM     12  C   UNL     1      -3.568   0.734  24.797  0.00  0.00    +0.174 C 
ATOM     30  C   UNL     1      -4.329   1.969  25.036  0.00  0.00    +0.226 C 
ATOM     31  O   UNL     1      -3.706   2.327  25.440  0.00  0.00    -0.275 OA
ENDROOT
BRANCH   8   7
ATOM      4  N   UNL     1      -2.955  -2.025  24.343  0.00  0.00    -0.189 NA
ATOM      5  C   UNL     1      -3.478  -1.391  24.412  0.00  0.00    +0.339 C 
ATOM      6  O   UNL     1      -4.281  -1.531  24.542  0.00  0.00    -0.249 OA
ATOM      7  N   UNL     1      -3.200  -0.617  24.352  0.00  0.00    -0.187 NA
BRANCH   4   2
ATOM      1  C   UNL     1      -3.310  -3.153  25.145  0.00  0.00    +0.023 C 
ATOM      2  C   UNL     1      -3.235  -2.799  24.403  0.00  0.00    +0.097 C 
ATOM      3  C   UNL     1      -3.439  -3.219  23.724  0.00  0.00    +0.023 C 
ENDBRANCH   4   2
ENDBRANCH   8   7
BRANCH  12  13
ATOM     13  C   UNL     1      -2.862   0.944  25.170  0.00  0.00    +0.262 C 
ATOM     14  O   UNL     1      -2.802   0.903  25.992  0.00  0.00    -0.271 OA
ATOM     15  N   UNL     1      -2.217   1.195  24.721  0.00  0.00    -0.196 NA
BRANCH  15  16
ATOM     16  C   UNL     1      -1.512   1.404  25.094  0.00  0.00    +0.179 C 
BRANCH  16  27
ATOM     27  C   UNL     1      -0.921   0.840  25.208  0.00  0.00    +0.281 C 
ATOM     28  N   UNL     1      -0.656   0.668  25.969  0.00  0.00    -0.086 NA
ATOM     29  O   UNL     1      -0.595   0.448  24.559  0.00  0.00    -0.270 OA
ENDBRANCH  16  27
BRANCH  16  17
ATOM     17  C   UNL     1      -1.397   2.179  25.353  0.00  0.00    +0.059 C 
BRANCH  17  18
ATOM     18  C   UNL     1      -1.048   2.735  24.852  0.00  0.00    +0.001 A 
ATOM     19  C   UNL     1      -0.606   2.567  24.176  0.00  0.00    +0.095 A 
ATOM     20  N   UNL     1      -0.365   3.284  23.845  0.00  0.00    -0.244 NA
ATOM     21  C   UNL     1      -0.658   3.894  24.317  0.00  0.00    +0.081 A 
ATOM     22  C   UNL     1      -1.080   3.554  24.939  0.00  0.00    +0.015 A 
ATOM     23  C   UNL     1      -1.439   4.035  25.505  0.00  0.00    +0.001 A 
ATOM     24  C   UNL     1      -1.376   4.856  25.449  0.00  0.00    +0.000 A 
ATOM     25  C   UNL     1      -0.954   5.196  24.827  0.00  0.00    +0.002 A 
ATOM     26  C   UNL     1      -0.595   4.715  24.261  0.00  0.00    +0.019 A 
ENDBRANCH  17  18
ENDBRANCH  16  17
ENDBRANCH  15  16
ENDBRANCH  12  13
BRANCH  30  32
ATOM     32  C   UNL     1      -5.039   2.375  24.931  0.00  0.00    +0.085 C 
BRANCH  32  33
ATOM     33  C   UNL     1      -5.134   3.131  25.247  0.00  0.00    +0.009 C 
ATOM     34  C   UNL     1      -4.794   3.456  24.570  0.00  0.00    +0.000 C 
ATOM     35  C   UNL     1      -5.474   2.805  25.925  0.00  0.00    +0.000 C 
ATOM     36  C   UNL     1      -5.228   3.887  25.563  0.00  0.00    +0.000 C 
ENDBRANCH  32  33
ENDBRANCH  30  32
TORSDOF 9
ENDMDL
MODEL 7
REMARK VINA RESULT:     -10.5      1.581      5.063
REMARK  Name = 
REMARK  9 active torsions:
REMARK  status: ('A' for Active; 'I' for Inactive)
REMARK    1  A    between atoms: C_2  and  N_4
REMARK    2  A    between atoms: N_7  and  C_8
REMARK    3  A    between atoms: C_12  and  C_13
REMARK    4  A    between atoms: N_15  and  C_16
REMARK    5  A    between atoms: C_16  and  C_17
REMARK    6  A    between atoms: C_16  and  C_27
REMARK    7  A    between atoms: C_17  and  C_18
REMARK    8  A    between atoms: C_30  and  C_32
REMARK    9  A    between atoms: C_32  and  C_33
REMARK                            x       y       z     vdW  Elec       q    Type
REMARK                         _______ _______ _______ _____ _____    ______ ____
ROOT
ATOM      8  C   UNL     1      -0.758   1.318  24.668  0.00  0.00    +0.126 C 
ATOM      9  C   UNL     1      -0.196   1.570  25.216  0.00  0.00    +0.045 C 
ATOM     10  C   UNL     1      -0.300   2.380  25.332  0.00  0.00    +0.096 C 
ATOM     11  N   UNL     1      -0.927   2.628  24.856  0.00  0.00    -0.272 N 
ATOM     12  C   UNL     1      -1.209   1.971  24.445  0.00  0.00    +0.174 C 
ATOM     30  C   UNL     1      -1.218   3.398  24.800  0.00  0.00    +0.226 C 
ATOM     31  O   UNL     1      -1.851   3.564  24.297  0.00  0.00    -0.275 OA
ENDROOT
BRANCH   8   7
ATOM      4  N   UNL     1      -0.888  -0.861  24.635  0.00  0.00    -0.189 NA
ATOM      5  C   UNL     1      -0.793  -0.090  24.912  0.00  0.00    +0.339 C 
ATOM      6  O   UNL     1      -0.639   0.045  25.712  0.00  0.00    -0.249 OA
ATOM      7  N   UNL     1      -0.853   0.546  24.391  0.00  0.00    -0.187 NA
BRANCH   4   2
ATOM      1  C   UNL     1      -1.488  -1.736  25.592  0.00  0.00    +0.023 C 
ATOM      2  C   UNL     1      -0.828  -1.497  25.157  0.00  0.00    +0.097 C 
ATOM      3  C   UNL     1      -0.110  -1.893  25.245  0.00  0.00    +0.023 C 
ENDBRANCH   4   2
ENDBRANCH   8   7
BRANCH  12  13
ATOM     13  C   UNL     1      -1.834   1.969  23.906  0.00  0.00    +0.262 C 
ATOM     14  O   UNL     1      -1.732   2.296  23.156  0.00  0.00    -0.271 OA
ATOM     15  N   UNL     1      -2.561   1.640  24.118  0.00  0.00    -0.196 NA
BRANCH  15  16
ATOM     16  C   UNL     1      -3.185   1.637  23.579  0.00  0.00    +0.179 C 
BRANCH  16  27
ATOM     27  C   UNL     1      -3.120   1.214  22.873  0.00  0.00    +0.281 C 
ATOM     28  N   UNL     1      -2.996   1.614  22.163  0.00  0.00    -0.086 NA
ATOM     29  O   UNL     1      -3.180   0.392  22.879  0.00  0.00    -0.270 OA
ENDBRANCH  16  27
BRANCH  16  17
ATOM     17  C   UNL     1      -3.875   2.058  23.746  0.00  0.00    +0.059 C 
BRANCH  17  18
ATOM     18  C   UNL     1      -4.376   1.806  24.352  0.00  0.00    +0.001 A 
ATOM     19  C   UNL     1      -4.496   1.025  24.587  0.00  0.00    +0.095 A 
ATOM     20  N   UNL     1      -5.039   1.027  25.209  0.00  0.00    -0.244 NA
ATOM     21  C   UNL     1      -5.253   1.811  25.358  0.00  0.00    +0.081 A 
ATOM     22  C   UNL     1      -4.843   2.292  24.827  0.00  0.00    +0.015 A 
ATOM     23  C   UNL     1      -4.948   3.110  24.846  0.00  0.00    +0.001 A 
ATOM     24  C   UNL     1      -5.463   3.447  25.396  0.00  0.00    +0.000 A 
ATOM     25  C   UNL     1      -5.874   2.966  25.926  0.00  0.00    +0.002 A 
ATOM     26  C   UNL     1      -5.768   2.148  25.907  0.00  0.00    +0.019 A 
ENDBRANCH  17  18
ENDBRANCH  16  17
ENDBRANCH  15  16
ENDBRANCH  12  13
BRANCH  30  32
ATOM     32  C   UNL     1      -0.877   4.002  25.247  0.00  0.00    +0.085 C 
BRANCH  32  33
ATOM     33  C   UNL     1      -1.154   4.776  25.175  0.00  0.00    +0.009 C 
ATOM     34  C   UNL     1      -1.780   4.598  25.683  0.00  0.00    +0.000 C 
ATOM     35  C   UNL     1      -0.529   4.952  24.667  0.00  0.00    +0.000 C 
ATOM     36  C   UNL     1      -1.432   5.549  25.103  0.00  0.00    +0.000 C 
ENDBRANCH  32  33
ENDBRANCH  30  32
TORSDOF 9
ENDMDL
MODEL 8
REMARK VINA RESULT:     -10.2      1.363      3.492
REMARK  Name = 
REMARK  9 active torsions:
REMARK  status: ('A' for Active; 'I' for Inactive)
REMARK    1  A    between atoms: C_2  and  N_4
REMARK    2  A    between atoms: N_7  and  C_8
REMARK    3  A    between atoms: C_12  and  C_13
REMARK    4  A    between atoms: N_15  and  C_16
REMARK    5  A    between atoms: C_16  and  C_17
REMARK    6  A    between atoms: C_16  and  C_27
REMARK    7  A    between atoms: C_17  and  C_18
REMARK    8  A    between atoms: C_30  and  C_32
REMARK    9  A    between atoms: C_32  and  C_33
REMARK                            x       y       z     vdW  Elec       q    Type
REMARK                         _______ _______ _______ _____ _____    ______ ____
ROOT
ATOM      8  C   UNL     1      -1.155   0.407  25.058  0.00  0.00    +0.126 C 
ATOM      9  C   UNL     1      -0.940  -0.202  25.572  0.00  0.00    +0.045 C 
ATOM     10  C   UNL     1      -1.474  -0.822  25.469  0.00  0.00    +0.096 C 
ATOM     11  N   UNL     1      -2.018  -0.598  24.891  0.00  0.00    -0.272 N 
ATOM     12  C   UNL     1      -1.820   0.161  24.637  0.00  0.00    +0.174 C 
ATOM     30  C   UNL     1      -2.648  -1.054  24.616  0.00  0.00    +0.226 C 
ATOM     31  O   UNL     1      -3.149  -0.755  24.032  0.00  0.00    -0.275 OA
ENDROOT
BRANCH   8   7
ATOM      4  N   UNL     1      -0.178   2.290  25.570  0.00  0.00    -0.189 NA
ATOM      5  C   UNL     1      -0.562   1.564  25.649  0.00  0.00    +0.339 C 
ATOM      6  O   UNL     1      -0.737   1.270  26.400  0.00  0.00    -0.249 OA
ATOM      7  N   UNL     1      -0.771   1.132  24.978  0.00  0.00    -0.187 NA
BRANCH   4   2
ATOM      1  C   UNL     1      -0.485   3.293  26.540  0.00  0.00    +0.023 C 
ATOM      2  C   UNL     1       0.031   2.722  26.241  0.00  0.00    +0.097 C 
ATOM      3  C   UNL     1       0.753   2.583  26.613  0.00  0.00    +0.023 C 
ENDBRANCH   4   2
ENDBRANCH   8   7
BRANCH  12  13
ATOM     13  C   UNL     1      -2.220   0.599  24.062  0.00  0.00    +0.262 C 
ATOM     14  O   UNL     1      -2.243   0.331  23.283  0.00  0.00    -0.271 OA
ATOM     15  N   UNL     1      -2.595   1.305  24.268  0.00  0.00    -0.196 NA
BRANCH  15  16
ATOM     16  C   UNL     1      -2.994   1.742  23.694  0.00  0.00    +0.179 C 
BRANCH  16  27
ATOM     27  C   UNL     1      -2.578   2.068  23.060  0.00  0.00    +0.281 C 
ATOM     28  N   UNL     1      -2.758   1.843  22.288  0.00  0.00    -0.086 NA
ATOM     29  O   UNL     1      -1.982   2.621  23.200  0.00  0.00    -0.270 OA
ENDBRANCH  16  27
BRANCH  16  17
ATOM     17  C   UNL     1      -3.809   1.853  23.752  0.00  0.00    +0.059 C 
BRANCH  17  18
ATOM     18  C   UNL     1      -4.117   2.352  24.334  0.00  0.00    +0.001 A 
ATOM     19  C   UNL     1      -3.784   3.061  24.589  0.00  0.00    +0.095 A 
ATOM     20  N   UNL     1      -4.273   3.377  25.174  0.00  0.00    -0.244 NA
ATOM     21  C   UNL     1      -4.909   2.861  25.280  0.00  0.00    +0.081 A 
ATOM     22  C   UNL     1      -4.812   2.227  24.760  0.00  0.00    +0.015 A 
ATOM     23  C   UNL     1      -5.369   1.620  24.743  0.00  0.00    +0.001 A 
ATOM     24  C   UNL     1      -6.023   1.645  25.246  0.00  0.00    +0.000 A 
ATOM     25  C   UNL     1      -6.120   2.279  25.766  0.00  0.00    +0.002 A 
ATOM     26  C   UNL     1      -5.563   2.886  25.783  0.00  0.00    +0.019 A 
ENDBRANCH  17  18
ENDBRANCH  16  17
ENDBRANCH  15  16
ENDBRANCH  12  13
BRANCH  30  32
ATOM     32  C   UNL     1      -2.777  -1.808  24.923  0.00  0.00    +0.085 C 
BRANCH  32  33
ATOM     33  C   UNL     1      -3.379  -2.282  24.616  0.00  0.00    +0.009 C 
ATOM     34  C   UNL     1      -2.822  -2.700  24.173  0.00  0.00    +0.000 C 
ATOM     35  C   UNL     1      -3.935  -1.863  25.058  0.00  0.00    +0.000 C 
ATOM     36  C   UNL     1      -3.980  -2.756  24.308  0.00  0.00    +0.000 C 
ENDBRANCH  32  33
ENDBRANCH  30  32
TORSDOF 9
ENDMDL
