MODEL 1
REMARK VINA RESULT:      -9.5      0.000      0.000
REMARK  Name = 
REMARK  3 active torsions:
REMARK  status: ('A' for Active; 'I' for Inactive)
REMARK    1  A    between atoms: S_2  and  N_5
REMARK    2  A    between atoms: N_11  and  C_12
REMARK    3  A    between atoms: C_12  and  C_13
REMARK                            x       y       z     vdW  Elec       q    Type
REMARK                         _______ _______ _______ _____ _____    ______ ____
ROOT
ATOM      5  N   UNL     1      -3.038   3.447  25.264  0.00  0.00    -0.156 NA
ATOM      6  C   UNL     1      -3.797   3.693  25.477  0.00  0.00    +0.117 C 
ATOM      7  C   UNL     1      -4.427   3.163  25.441  0.00  0.00    +0.114 C 
ATOM      8  N   UNL     1      -4.301   2.387  25.191  0.00  0.00    -0.261 N 
ATOM      9  C   UNL     1      -3.543   2.141  24.977  0.00  0.00    +0.114 C 
ATOM     10  C   UNL     1      -3.585   1.348  24.754  0.00  0.00    +0.117 C 
ATOM     11  N   UNL     1      -4.369   1.104  24.830  0.00  0.00    -0.257 N 
ATOM     19  C   UNL     1      -4.811   1.746  25.099  0.00  0.00    +0.308 C 
ATOM     20  O   UNL     1      -5.622   1.747  25.251  0.00  0.00    -0.252 OA
ATOM     21  C   UNL     1      -2.911   2.671  25.014  0.00  0.00    +0.117 C 
ENDROOT
BRANCH   5   2
ATOM      1  C   UNL     1      -1.776   4.507  25.337  0.00  0.00    +0.196 C 
ATOM      2  S   UNL     1      -2.407   3.977  25.301  0.00  0.00    +0.046 S 
ATOM      3  O   UNL     1      -2.541   4.190  24.515  0.00  0.00    -0.157 OA
ATOM      4  O   UNL     1      -2.274   3.763  26.086  0.00  0.00    -0.157 OA
ENDBRANCH   5   2
BRANCH  11  12
ATOM     12  C   UNL     1      -4.660   0.350  24.664  0.00  0.00    +0.141 C 
BRANCH  12  13
ATOM     13  C   UNL     1      -4.186  -0.313  24.790  0.00  0.00    +0.079 A 
ATOM     14  N   UNL     1      -4.003  -0.550  25.559  0.00  0.00    -0.246 NA
ATOM     15  C   UNL     1      -3.528  -1.213  25.684  0.00  0.00    +0.099 A 
ATOM     16  C   UNL     1      -3.236  -1.639  25.041  0.00  0.00    +0.021 A 
ATOM     17  C   UNL     1      -3.419  -1.402  24.272  0.00  0.00    +0.003 A 
ATOM     18  C   UNL     1      -3.893  -0.739  24.146  0.00  0.00    +0.016 A 
ENDBRANCH  12  13
ENDBRANCH  11  12
TORSDOF 3
ENDMDL
MODEL 2
REMARK VINA RESULT:      -9.2      1.085      1.183
REMARK  Name = 
REMARK  3 active torsions:
REMARK  status: ('A' for Active; 'I' for Inactive)
REMARK    1  A    between atoms: S_2  and  N_5
REMARK    2  A    between atoms: N_11  and  C_12
REMARK    3  A    between atoms: C_12  and  C_13
REMARK                            x       y       z     vdW  Elec       q    Type
REMARK                         _______ _______ _______ _____ _____    ______ ____
ROOT
ATOM      5  N   UNL     1      -2.073   2.596  24.575  0.00  0.00    -0.156 NA
ATOM      6  C   UNL     1      -2.755   3.024  24.394  0.00  0.00    +0.117 C 
ATOM      7  C   UNL     1      -3.493   2.657  24.430  0.00  0.00    +0.114 C 
ATOM      8  N   UNL     1      -3.549   1.863  24.647  0.00  0.00    -0.261 N 
ATOM      9  C   UNL     1      -2.867   1.436  24.828  0.00  0.00    +0.114 C 
ATOM     10  C   UNL     1      -3.092   0.667  25.024  0.00  0.00    +0.117 C 
ATOM     11  N   UNL     1      -3.913   0.619  24.963  0.00  0.00    -0.257 N 
ATOM     19  C   UNL     1      -4.195   1.358  24.730  0.00  0.00    +0.308 C 
ATOM     20  O   UNL     1      -4.986   1.558  24.603  0.00  0.00    -0.252 OA
ATOM     21  C   UNL     1      -2.128   1.803  24.792  0.00  0.00    +0.117 C 
ENDROOT
BRANCH   5   2
ATOM      1  C   UNL     1      -0.596   3.329  24.503  0.00  0.00    +0.196 C 
ATOM      2  S   UNL     1      -1.334   2.963  24.539  0.00  0.00    +0.046 S 
ATOM      3  O   UNL     1      -1.229   2.675  23.773  0.00  0.00    -0.157 OA
ATOM      4  O   UNL     1      -1.441   3.251  25.305  0.00  0.00    -0.157 OA
ENDBRANCH   5   2
BRANCH  11  12
ATOM     12  C   UNL     1      -4.372  -0.051  25.109  0.00  0.00    +0.141 C 
BRANCH  12  13
ATOM     13  C   UNL     1      -4.087  -0.799  24.908  0.00  0.00    +0.079 A 
ATOM     14  N   UNL     1      -3.663  -1.242  25.459  0.00  0.00    -0.246 NA
ATOM     15  C   UNL     1      -3.379  -1.989  25.257  0.00  0.00    +0.099 A 
ATOM     16  C   UNL     1      -3.518  -2.294  24.503  0.00  0.00    +0.021 A 
ATOM     17  C   UNL     1      -3.943  -1.851  23.952  0.00  0.00    +0.003 A 
ATOM     18  C   UNL     1      -4.227  -1.103  24.153  0.00  0.00    +0.016 A 
ENDBRANCH  12  13
ENDBRANCH  11  12
TORSDOF 3
ENDMDL
MODEL 3
REMARK VINA RESULT:      -9.0      1.496      2.155
REMARK  Name = 
REMARK  3 active torsions:
REMARK  status: ('A' for Active; 'I' for Inactive)
REMARK    1  A    between atoms: S_2  and  N_5
REMARK    2  A    between atoms: N_11  and  C_12
REMARK    3  A    between atoms: C_12  and  C_13
REMARK                            x       y       z     vdW  Elec       q    Type
REMARK                         _______ _______ _______ _____ _____    ______ ____
ROOT
ATOM      5  N   UNL     1      -4.554   2.643  24.950  0.00  0.00    -0.156 NA
ATOM      6  C   UNL     1      -4.138   2.941  24.303  0.00  0.00    +0.117 C 
ATOM      7  C   UNL     1      -3.598   2.462  23.904  0.00  0.00    +0.114 C 
ATOM      8  N   UNL     1      -3.474   1.684  24.151  0.00  0.00    -0.261 N 
ATOM      9  C   UNL     1      -3.891   1.386  24.798  0.00  0.00    +0.114 C 
ATOM     10  C   UNL     1      -3.655   0.605  24.914  0.00  0.00    +0.117 C 
ATOM     11  N   UNL     1      -3.094   0.419  24.340  0.00  0.00    -0.257 N 
ATOM     19  C   UNL     1      -2.982   1.086  23.868  0.00  0.00    +0.308 C 
ATOM     20  O   UNL     1      -2.468   1.146  23.225  0.00  0.00    -0.252 OA
ATOM     21  C   UNL     1      -4.431   1.866  25.198  0.00  0.00    +0.117 C 
ENDROOT
BRANCH   5   2
ATOM      1  C   UNL     1      -5.633   3.601  25.749  0.00  0.00    +0.196 C 
ATOM      2  S   UNL     1      -5.094   3.122  25.350  0.00  0.00    +0.046 S 
ATOM      3  O   UNL     1      -5.718   2.713  24.998  0.00  0.00    -0.157 OA
ATOM      4  O   UNL     1      -4.470   3.531  25.701  0.00  0.00    -0.157 OA
ENDBRANCH   5   2
BRANCH  11  12
ATOM     12  C   UNL     1      -2.711  -0.306  24.252  0.00  0.00    +0.141 C 
BRANCH  12  13
ATOM     13  C   UNL     1      -3.131  -1.010  24.350  0.00  0.00    +0.079 A 
ATOM     14  N   UNL     1      -3.667  -1.255  23.773  0.00  0.00    -0.246 NA
ATOM     15  C   UNL     1      -4.086  -1.959  23.873  0.00  0.00    +0.099 A 
ATOM     16  C   UNL     1      -3.970  -2.416  24.549  0.00  0.00    +0.021 A 
ATOM     17  C   UNL     1      -3.433  -2.171  25.126  0.00  0.00    +0.003 A 
ATOM     18  C   UNL     1      -3.014  -1.468  25.027  0.00  0.00    +0.016 A 
ENDBRANCH  12  13
ENDBRANCH  11  12
TORSDOF 3
ENDMDL
MODEL 4
REMARK VINA RESULT:      -9.0      2.441      3.799
REMARK  Name = 
REMARK  3 active torsions:
REMARK  status: ('A' for Active; 'I' for Inactive)
REMARK    1  A    between atoms: S_2  and  N_5
REMARK    2  A    between atoms: N_11  and  C_12
REMARK    3  A    between atoms: C_12  and  C_13
REMARK                            x       y       z     vdW  Elec       q    Type
REMARK                         _______ _______ _______ _____ _____    ______ ____
ROOT
ATOM      5  N   UNL     1      -1.397  -0.082  24.708  0.00  0.00    -0.156 NA
ATOM      6  C   UNL     1      -0.937   0.445  24.270  0.00  0.00    +0.117 C 
ATOM      7  C   UNL     1      -1.282   1.119  23.942  0.00  0.00    +0.114 C 
ATOM      8  N   UNL     1      -2.086   1.266  24.051  0.00  0.00    -0.261 N 
ATOM      9  C   UNL     1      -2.546   0.739  24.489  0.00  0.00    +0.114 C 
ATOM     10  C   UNL     1      -3.319   1.027  24.504  0.00  0.00    +0.117 C 
ATOM     11  N   UNL     1      -3.337   1.731  24.076  0.00  0.00    -0.257 N 
ATOM     19  C   UNL     1      -2.575   1.879  23.797  0.00  0.00    +0.308 C 
ATOM     20  O   UNL     1      -2.343   2.527  23.341  0.00  0.00    -0.252 OA
ATOM     21  C   UNL     1      -2.201   0.065  24.818  0.00  0.00    +0.117 C 
ENDROOT
BRANCH   5   2
ATOM      1  C   UNL     1      -0.708  -1.429  25.365  0.00  0.00    +0.196 C 
ATOM      2  S   UNL     1      -1.052  -0.756  25.036  0.00  0.00    +0.046 S 
ATOM      3  O   UNL     1      -1.067  -1.123  24.298  0.00  0.00    -0.157 OA
ATOM      4  O   UNL     1      -1.038  -0.388  25.775  0.00  0.00    -0.157 OA
ENDBRANCH   5   2
BRANCH  11  12
ATOM     12  C   UNL     1      -4.000   2.205  23.950  0.00  0.00    +0.141 C 
BRANCH  12  13
ATOM     13  C   UNL     1      -4.501   2.390  24.578  0.00  0.00    +0.079 A 
ATOM     14  N   UNL     1      -4.313   3.011  25.088  0.00  0.00    -0.246 NA
ATOM     15  C   UNL     1      -4.815   3.195  25.717  0.00  0.00    +0.099 A 
ATOM     16  C   UNL     1      -5.505   2.759  25.835  0.00  0.00    +0.021 A 
ATOM     17  C   UNL     1      -5.693   2.138  25.326  0.00  0.00    +0.003 A 
ATOM     18  C   UNL     1      -5.192   1.954  24.697  0.00  0.00    +0.016 A 
ENDBRANCH  12  13
ENDBRANCH  11  12
TORSDOF 3
ENDMDL
MODEL 5
REMARK VINA RESULT:      -8.7      1.895      4.149
REMARK  Name = 
REMARK  3 active torsions:
REMARK  status: ('A' for Active; 'I' for Inactive)
REMARK    1  A    between atoms: S_2  and  N_5
REMARK    2  A    between atoms: N_11  and  C_12
REMARK    3  A    between atoms: C_12  and  C_13
REMARK                            x       y       z     vdW  Elec       q    Type
REMARK                         _______ _______ _______ _____ _____    ______ ____
ROOT
ATOM      5  N   UNL     1      -3.711  -0.416  24.917  0.00  0.00    -0.156 NA
ATOM      6  C   UNL     1      -4.477  -0.114  24.966  0.00  0.00    +0.117 C 
ATOM      7  C   UNL     1      -4.613   0.688  24.834  0.00  0.00    +0.114 C 
ATOM      8  N   UNL     1      -3.983   1.190  24.653  0.00  0.00    -0.261 N 
ATOM      9  C   UNL     1      -3.217   0.888  24.605  0.00  0.00    +0.114 C 
ATOM     10  C   UNL     1      -2.709   1.510  24.418  0.00  0.00    +0.117 C 
ATOM     11  N   UNL     1      -3.161   2.197  24.351  0.00  0.00    -0.257 N 
ATOM     19  C   UNL     1      -3.948   1.998  24.497  0.00  0.00    +0.308 C 
ATOM     20  O   UNL     1      -4.589   2.518  24.487  0.00  0.00    -0.252 OA
ATOM     21  C   UNL     1      -3.080   0.084  24.737  0.00  0.00    +0.117 C 
ENDROOT
BRANCH   5   2
ATOM      1  C   UNL     1      -3.438  -2.022  25.181  0.00  0.00    +0.196 C 
ATOM      2  S   UNL     1      -3.574  -1.220  25.049  0.00  0.00    +0.046 S 
ATOM      3  O   UNL     1      -3.437  -1.065  25.848  0.00  0.00    -0.157 OA
ATOM      4  O   UNL     1      -3.711  -1.374  24.250  0.00  0.00    -0.157 OA
ENDBRANCH   5   2
BRANCH  11  12
ATOM     12  C   UNL     1      -2.876   2.949  24.171  0.00  0.00    +0.141 C 
BRANCH  12  13
ATOM     13  C   UNL     1      -2.203   3.238  24.550  0.00  0.00    +0.079 A 
ATOM     14  N   UNL     1      -1.454   3.068  24.248  0.00  0.00    -0.246 NA
ATOM     15  C   UNL     1      -0.781   3.357  24.628  0.00  0.00    +0.099 A 
ATOM     16  C   UNL     1      -0.856   3.815  25.309  0.00  0.00    +0.021 A 
ATOM     17  C   UNL     1      -1.605   3.986  25.611  0.00  0.00    +0.003 A 
ATOM     18  C   UNL     1      -2.278   3.697  25.232  0.00  0.00    +0.016 A 
ENDBRANCH  12  13
ENDBRANCH  11  12
TORSDOF 3
ENDMDL
