MODEL 1
REMARK VINA RESULT:     -14.9      0.000      0.000
REMARK  Name = 
REMARK  5 active torsions:
REMARK  status: ('A' for Active; 'I' for Inactive)
REMARK    1  A    between atoms: N_2  and  C_4
REMARK    2  A    between atoms: C_4  and  C_5
REMARK    3  A    between atoms: C_10  and  C_11
REMARK    4  A    between atoms: N_19  and  C_20
REMARK    5  A    between atoms: C_20  and  C_21
REMARK                            x       y       z     vdW  Elec       q    Type
REMARK                         _______ _______ _______ _____ _____    ______ ____
ROOT
ATOM     11  C   UNL     1      -3.246   2.296  24.169  0.00  0.00    +0.056 A 
ATOM     12  C   UNL     1      -3.580   3.051  24.165  0.00  0.00    +0.006 A 
ATOM     13  C   UNL     1      -4.332   3.172  24.481  0.00  0.00    +0.013 A 
ATOM     14  C   UNL     1      -4.751   2.538  24.802  0.00  0.00    +0.041 A 
ATOM     15  C   UNL     1      -5.553   2.344  25.206  0.00  0.00    +0.054 C 
ATOM     16  C   UNL     1      -6.152   2.645  25.414  0.00  0.00    +0.011 C 
ATOM     17  C   UNL     1      -5.819   1.902  25.417  0.00  0.00    +0.039 C 
ATOM     18  C   UNL     1      -5.593   0.945  25.513  0.00  0.00    +0.074 C 
ATOM     19  N   UNL     1      -4.832   0.946  25.167  0.00  0.00    -0.269 NA
ATOM     31  C   UNL     1      -5.349   1.416  25.305  0.00  0.00    +0.078 C 
ATOM     32  C   UNL     1      -4.979   2.095  24.996  0.00  0.00    +0.110 C 
ATOM     33  N   UNL     1      -4.418   1.783  24.806  0.00  0.00    -0.299 N 
ATOM     34  C   UNL     1      -3.665   1.662  24.490  0.00  0.00    +0.261 A 
ATOM     35  O   UNL     1      -3.332   0.907  24.495  0.00  0.00    -0.267 OA
ENDROOT
BRANCH  11  10
ATOM      5  C   UNL     1      -1.829   2.448  24.259  0.00  0.00    -0.006 A 
ATOM      6  C   UNL     1      -1.076   2.328  23.943  0.00  0.00    -0.003 A 
ATOM      7  C   UNL     1      -0.989   1.938  23.222  0.00  0.00    -0.000 A 
ATOM      8  C   UNL     1      -1.654   1.666  22.816  0.00  0.00    -0.000 A 
ATOM      9  C   UNL     1      -2.407   1.786  23.132  0.00  0.00    -0.000 A 
ATOM     10  C   UNL     1      -2.494   2.176  23.853  0.00  0.00    +0.002 A 
BRANCH   5   4
ATOM      4  C   UNL     1      -1.916   2.838  24.980  0.00  0.00    +0.099 C 
BRANCH   4   2
ATOM      1  C   UNL     1      -0.885   2.613  25.943  0.00  0.00    +0.090 C 
ATOM      2  N   UNL     1      -1.250   3.103  25.389  0.00  0.00    -0.267 NA
ATOM      3  C   UNL     1      -0.949   3.857  25.244  0.00  0.00    +0.090 C 
ENDBRANCH   4   2
ENDBRANCH   5   4
ENDBRANCH  11  10
BRANCH  19  20
ATOM     20  C   UNL     1      -4.108   0.654  24.899  0.00  0.00    +0.101 C 
BRANCH  20  21
ATOM     21  C   UNL     1      -3.857  -0.098  25.126  0.00  0.00    +0.012 A 
ATOM     22  C   UNL     1      -3.483  -0.291  25.837  0.00  0.00    +0.073 A 
ATOM     23  N   UNL     1      -3.331  -1.102  25.832  0.00  0.00    -0.324 N 
ATOM     24  C   UNL     1      -2.964  -1.529  26.435  0.00  0.00    +0.130 C 
ATOM     25  C   UNL     1      -3.610  -1.410  25.120  0.00  0.00    +0.060 A 
ATOM     26  C   UNL     1      -3.935  -0.789  24.683  0.00  0.00    +0.015 A 
ATOM     27  C   UNL     1      -4.260  -0.935  23.939  0.00  0.00    +0.001 A 
ATOM     28  C   UNL     1      -4.260  -1.700  23.632  0.00  0.00    +0.000 A 
ATOM     29  C   UNL     1      -3.935  -2.321  24.068  0.00  0.00    +0.001 A 
ATOM     30  C   UNL     1      -3.610  -2.175  24.812  0.00  0.00    +0.017 A 
ENDBRANCH  20  21
ENDBRANCH  19  20
TORSDOF 5
ENDMDL
MODEL 2
REMARK VINA RESULT:     -14.6      1.305      3.714
REMARK  Name = 
REMARK  5 active torsions:
REMARK  status: ('A' for Active; 'I' for Inactive)
REMARK    1  A    between atoms: N_2  and  C_4
REMARK    2  A    between atoms: C_4  and  C_5
REMARK    3  A    between atoms: C_10  and  C_11
REMARK    4  A    between atoms: N_19  and  C_20
REMARK    5  A    between atoms: C_20  and  C_21
REMARK                            x       y       z     vdW  Elec       q    Type
REMARK                         _______ _______ _______ _____ _____    ______ ____
ROOT
ATOM     11  C   UNL     1      -3.839   1.199  24.401  0.00  0.00    +0.056 A 
ATOM     12  C   UNL     1      -4.515   0.735  24.500  0.00  0.00    +0.006 A 
ATOM     13  C   UNL     1      -4.457  -0.011  24.846  0.00  0.00    +0.013 A 
ATOM     14  C   UNL     1      -3.723  -0.295  25.093  0.00  0.00    +0.041 A 
ATOM     15  C   UNL     1      -3.337  -1.030  25.487  0.00  0.00    +0.054 C 
ATOM     16  C   UNL     1      -3.497  -1.663  25.746  0.00  0.00    +0.011 C 
ATOM     17  C   UNL     1      -2.832  -1.203  25.648  0.00  0.00    +0.039 C 
ATOM     18  C   UNL     1      -1.928  -0.804  25.615  0.00  0.00    +0.074 C 
ATOM     19  N   UNL     1      -2.111  -0.072  25.256  0.00  0.00    -0.269 NA
ATOM     31  C   UNL     1      -2.458  -0.659  25.463  0.00  0.00    +0.078 C 
ATOM     32  C   UNL     1      -3.225  -0.430  25.235  0.00  0.00    +0.110 C 
ATOM     33  N   UNL     1      -3.047   0.169  24.995  0.00  0.00    -0.299 N 
ATOM     34  C   UNL     1      -3.105   0.915  24.649  0.00  0.00    +0.261 A 
ATOM     35  O   UNL     1      -2.430   1.378  24.550  0.00  0.00    -0.267 OA
ENDROOT
BRANCH  11  10
ATOM      5  C   UNL     1      -4.245   2.566  24.473  0.00  0.00    -0.006 A 
ATOM      6  C   UNL     1      -4.304   3.313  24.128  0.00  0.00    -0.003 A 
ATOM      7  C   UNL     1      -4.018   3.438  23.365  0.00  0.00    -0.000 A 
ATOM      8  C   UNL     1      -3.672   2.817  22.946  0.00  0.00    -0.000 A 
ATOM      9  C   UNL     1      -3.613   2.070  23.292  0.00  0.00    -0.000 A 
ATOM     10  C   UNL     1      -3.899   1.945  24.055  0.00  0.00    +0.002 A 
BRANCH   5   4
ATOM      4  C   UNL     1      -4.531   2.441  25.237  0.00  0.00    +0.099 C 
BRANCH   4   2
ATOM      1  C   UNL     1      -5.663   3.200  25.664  0.00  0.00    +0.090 C 
ATOM      2  N   UNL     1      -4.849   3.070  25.666  0.00  0.00    -0.267 NA
ATOM      3  C   UNL     1      -4.353   3.568  26.098  0.00  0.00    +0.090 C 
ENDBRANCH   4   2
ENDBRANCH   5   4
ENDBRANCH  11  10
BRANCH  19  20
ATOM     20  C   UNL     1      -1.991   0.679  24.936  0.00  0.00    +0.101 C 
BRANCH  20  21
ATOM     21  C   UNL     1      -1.226   0.949  24.792  0.00  0.00    +0.012 A 
ATOM     22  C   UNL     1      -0.733   0.707  24.175  0.00  0.00    +0.073 A 
ATOM     23  N   UNL     1      -0.021   1.116  24.241  0.00  0.00    -0.324 N 
ATOM     24  C   UNL     1       0.629   1.043  23.738  0.00  0.00    +0.130 C 
ATOM     25  C   UNL     1      -0.072   1.612  24.898  0.00  0.00    +0.060 A 
ATOM     26  C   UNL     1      -0.816   1.509  25.239  0.00  0.00    +0.015 A 
ATOM     27  C   UNL     1      -1.024   1.938  25.913  0.00  0.00    +0.001 A 
ATOM     28  C   UNL     1      -0.489   2.469  26.245  0.00  0.00    +0.000 A 
ATOM     29  C   UNL     1       0.256   2.573  25.904  0.00  0.00    +0.001 A 
ATOM     30  C   UNL     1       0.464   2.144  25.231  0.00  0.00    +0.017 A 
ENDBRANCH  20  21
ENDBRANCH  19  20
TORSDOF 5
ENDMDL
MODEL 3
REMARK VINA RESULT:     -13.4      1.473      3.605
REMARK  Name = 
REMARK  5 active torsions:
REMARK  status: ('A' for Active; 'I' for Inactive)
REMARK    1  A    between atoms: N_2  and  C_4
REMARK    2  A    between atoms: C_4  and  C_5
REMARK    3  A    between atoms: C_10  and  C_11
REMARK    4  A    between atoms: N_19  and  C_20
REMARK    5  A    between atoms: C_20  and  C_21
REMARK                            x       y       z     vdW  Elec       q    Type
REMARK                         _______ _______ _______ _____ _____    ______ ____
ROOT
ATOM     11  C   UNL     1      -1.640  -0.283  24.997  0.00  0.00    +0.056 A 
ATOM     12  C   UNL     1      -1.379  -1.065  25.014  0.00  0.00    +0.006 A 
ATOM     13  C   UNL     1      -1.901  -1.678  24.833  0.00  0.00    +0.013 A 
ATOM     14  C   UNL     1      -2.683  -1.508  24.633  0.00  0.00    +0.041 A 
ATOM     15  C   UNL     1      -3.465  -1.926  24.393  0.00  0.00    +0.054 C 
ATOM     16  C   UNL     1      -3.736  -2.564  24.278  0.00  0.00    +0.011 C 
ATOM     17  C   UNL     1      -3.990  -1.790  24.261  0.00  0.00    +0.039 C 
ATOM     18  C   UNL     1      -4.478  -0.934  24.187  0.00  0.00    +0.074 C 
ATOM     19  N   UNL     1      -3.864  -0.404  24.388  0.00  0.00    -0.269 NA
ATOM     31  C   UNL     1      -3.951  -1.108  24.317  0.00  0.00    +0.078 C 
ATOM     32  C   UNL     1      -3.177  -1.344  24.511  0.00  0.00    +0.110 C 
ATOM     33  N   UNL     1      -2.943  -0.725  24.615  0.00  0.00    -0.299 N 
ATOM     34  C   UNL     1      -2.422  -0.113  24.797  0.00  0.00    +0.261 A 
ATOM     35  O   UNL     1      -2.682   0.670  24.779  0.00  0.00    -0.267 OA
ENDROOT
BRANCH  11  10
ATOM      5  C   UNL     1      -0.507   0.518  24.657  0.00  0.00    -0.006 A 
ATOM      6  C   UNL     1       0.016   1.130  24.839  0.00  0.00    -0.003 A 
ATOM      7  C   UNL     1      -0.073   1.553  25.541  0.00  0.00    -0.000 A 
ATOM      8  C   UNL     1      -0.683   1.365  26.063  0.00  0.00    -0.000 A 
ATOM      9  C   UNL     1      -1.206   0.752  25.881  0.00  0.00    -0.000 A 
ATOM     10  C   UNL     1      -1.118   0.329  25.179  0.00  0.00    +0.002 A 
BRANCH   5   4
ATOM      4  C   UNL     1      -0.418   0.095  23.955  0.00  0.00    +0.099 C 
BRANCH   4   2
ATOM      1  C   UNL     1       0.078   0.962  22.934  0.00  0.00    +0.090 C 
ATOM      2  N   UNL     1       0.175   0.303  23.420  0.00  0.00    -0.267 NA
ATOM      3  C   UNL     1       0.863  -0.148  23.372  0.00  0.00    +0.090 C 
ENDBRANCH   4   2
ENDBRANCH   5   4
ENDBRANCH  11  10
BRANCH  19  20
ATOM     20  C   UNL     1      -3.485   0.313  24.539  0.00  0.00    +0.101 C 
BRANCH  20  21
ATOM     21  C   UNL     1      -3.929   1.003  24.626  0.00  0.00    +0.012 A 
ATOM     22  C   UNL     1      -4.471   1.159  25.229  0.00  0.00    +0.073 A 
ATOM     23  N   UNL     1      -4.785   1.911  25.101  0.00  0.00    -0.324 N 
ATOM     24  C   UNL     1      -5.349   2.287  25.572  0.00  0.00    +0.130 C 
ATOM     25  C   UNL     1      -4.438   2.220  24.420  0.00  0.00    +0.060 A 
ATOM     26  C   UNL     1      -3.908   1.659  24.126  0.00  0.00    +0.015 A 
ATOM     27  C   UNL     1      -3.477   1.819  23.441  0.00  0.00    +0.001 A 
ATOM     28  C   UNL     1      -3.574   2.539  23.051  0.00  0.00    +0.000 A 
ATOM     29  C   UNL     1      -4.103   3.100  23.344  0.00  0.00    +0.001 A 
ATOM     30  C   UNL     1      -4.535   2.940  24.029  0.00  0.00    +0.017 A 
ENDBRANCH  20  21
ENDBRANCH  19  20
TORSDOF 5
ENDMDL
MODEL 4
REMARK VINA RESULT:     -12.7      1.332      2.839
REMARK  Name = 
REMARK  5 active torsions:
REMARK  status: ('A' for Active; 'I' for Inactive)
REMARK    1  A    between atoms: N_2  and  C_4
REMARK    2  A    between atoms: C_4  and  C_5
REMARK    3  A    between atoms: C_10  and  C_11
REMARK    4  A    between atoms: N_19  and  C_20
REMARK    5  A    between atoms: C_20  and  C_21
REMARK                            x       y       z     vdW  Elec       q    Type
REMARK                         _______ _______ _______ _____ _____    ______ ____
ROOT
ATOM     11  C   UNL     1      -4.264   2.500  24.175  0.00  0.00    +0.056 A 
ATOM     12  C   UNL     1      -4.259   3.137  23.650  0.00  0.00    +0.006 A 
ATOM     13  C   UNL     1      -3.761   3.126  22.993  0.00  0.00    +0.013 A 
ATOM     14  C   UNL     1      -3.268   2.478  22.860  0.00  0.00    +0.041 A 
ATOM     15  C   UNL     1      -2.638   2.171  22.266  0.00  0.00    +0.054 C 
ATOM     16  C   UNL     1      -2.305   2.350  21.675  0.00  0.00    +0.011 C 
ATOM     17  C   UNL     1      -2.313   1.723  22.195  0.00  0.00    +0.039 C 
ATOM     18  C   UNL     1      -2.180   0.884  22.699  0.00  0.00    +0.074 C 
ATOM     19  N   UNL     1      -2.722   1.008  23.322  0.00  0.00    -0.269 NA
ATOM     31  C   UNL     1      -2.498   1.354  22.742  0.00  0.00    +0.078 C 
ATOM     32  C   UNL     1      -2.970   2.036  22.820  0.00  0.00    +0.110 C 
ATOM     33  N   UNL     1      -3.274   1.841  23.384  0.00  0.00    -0.299 N 
ATOM     34  C   UNL     1      -3.772   1.852  24.042  0.00  0.00    +0.261 A 
ATOM     35  O   UNL     1      -3.777   1.215  24.567  0.00  0.00    -0.267 OA
ENDROOT
BRANCH  11  10
ATOM      5  C   UNL     1      -4.591   3.006  25.470  0.00  0.00    -0.006 A 
ATOM      6  C   UNL     1      -5.089   3.019  26.128  0.00  0.00    -0.003 A 
ATOM      7  C   UNL     1      -5.758   2.537  26.147  0.00  0.00    -0.000 A 
ATOM      8  C   UNL     1      -5.930   2.042  25.510  0.00  0.00    -0.000 A 
ATOM      9  C   UNL     1      -5.432   2.030  24.851  0.00  0.00    -0.000 A 
ATOM     10  C   UNL     1      -4.762   2.512  24.832  0.00  0.00    +0.002 A 
BRANCH   5   4
ATOM      4  C   UNL     1      -3.922   3.488  25.450  0.00  0.00    +0.099 C 
BRANCH   4   2
ATOM      1  C   UNL     1      -3.099   3.694  26.600  0.00  0.00    +0.090 C 
ATOM      2  N   UNL     1      -3.718   3.937  26.112  0.00  0.00    -0.267 NA
ATOM      3  C   UNL     1      -4.132   4.629  26.285  0.00  0.00    +0.090 C 
ENDBRANCH   4   2
ENDBRANCH   5   4
ENDBRANCH  11  10
BRANCH  19  20
ATOM     20  C   UNL     1      -3.147   0.858  24.014  0.00  0.00    +0.101 C 
BRANCH  20  21
ATOM     21  C   UNL     1      -2.941   0.220  24.494  0.00  0.00    +0.012 A 
ATOM     22  C   UNL     1      -2.344   0.215  25.065  0.00  0.00    +0.073 A 
ATOM     23  N   UNL     1      -2.330  -0.532  25.412  0.00  0.00    -0.324 N 
ATOM     24  C   UNL     1      -1.817  -0.779  26.010  0.00  0.00    +0.130 C 
ATOM     25  C   UNL     1      -2.917  -0.990  25.058  0.00  0.00    +0.060 A 
ATOM     26  C   UNL     1      -3.295  -0.525  24.490  0.00  0.00    +0.015 A 
ATOM     27  C   UNL     1      -3.913  -0.841  24.043  0.00  0.00    +0.001 A 
ATOM     28  C   UNL     1      -4.152  -1.620  24.164  0.00  0.00    +0.000 A 
ATOM     29  C   UNL     1      -3.775  -2.086  24.731  0.00  0.00    +0.001 A 
ATOM     30  C   UNL     1      -3.157  -1.770  25.178  0.00  0.00    +0.017 A 
ENDBRANCH  20  21
ENDBRANCH  19  20
TORSDOF 5
ENDMDL
MODEL 5
REMARK VINA RESULT:     -12.6      1.035      3.970
REMARK  Name = 
REMARK  5 active torsions:
REMARK  status: ('A' for Active; 'I' for Inactive)
REMARK    1  A    between atoms: N_2  and  C_4
REMARK    2  A    between atoms: C_4  and  C_5
REMARK    3  A    between atoms: C_10  and  C_11
REMARK    4  A    between atoms: N_19  and  C_20
REMARK    5  A    between atoms: C_20  and  C_21
REMARK                            x       y       z     vdW  Elec       q    Type
REMARK                         _______ _______ _______ _____ _____    ______ ____
ROOT
ATOM     11  C   UNL     1      -3.969   0.185  25.209  0.00  0.00    +0.056 A 
ATOM     12  C   UNL     1      -4.784   0.314  25.195  0.00  0.00    +0.006 A 
ATOM     13  C   UNL     1      -5.081   1.047  24.962  0.00  0.00    +0.013 A 
ATOM     14  C   UNL     1      -4.564   1.651  24.743  0.00  0.00    +0.041 A 
ATOM     15  C   UNL     1      -4.567   2.524  24.454  0.00  0.00    +0.054 C 
ATOM     16  C   UNL     1      -5.005   3.049  24.295  0.00  0.00    +0.011 C 
ATOM     17  C   UNL     1      -4.201   2.918  24.309  0.00  0.00    +0.039 C 
ATOM     18  C   UNL     1      -3.214   2.954  24.262  0.00  0.00    +0.074 C 
ATOM     19  N   UNL     1      -3.033   2.179  24.513  0.00  0.00    -0.269 NA
ATOM     31  C   UNL     1      -3.615   2.574  24.403  0.00  0.00    +0.078 C 
ATOM     32  C   UNL     1      -4.187   2.007  24.612  0.00  0.00    +0.110 C 
ATOM     33  N   UNL     1      -3.749   1.522  24.757  0.00  0.00    -0.299 N 
ATOM     34  C   UNL     1      -3.452   0.789  24.990  0.00  0.00    +0.261 A 
ATOM     35  O   UNL     1      -2.637   0.660  25.003  0.00  0.00    -0.267 OA
ENDROOT
BRANCH  11  10
ATOM      5  C   UNL     1      -3.768  -1.206  24.953  0.00  0.00    -0.006 A 
ATOM      6  C   UNL     1      -3.472  -1.940  25.185  0.00  0.00    -0.003 A 
ATOM      7  C   UNL     1      -3.079  -2.016  25.906  0.00  0.00    -0.000 A 
ATOM      8  C   UNL     1      -2.982  -1.359  26.396  0.00  0.00    -0.000 A 
ATOM      9  C   UNL     1      -3.279  -0.625  26.163  0.00  0.00    -0.000 A 
ATOM     10  C   UNL     1      -3.672  -0.548  25.442  0.00  0.00    +0.002 A 
BRANCH   5   4
ATOM      4  C   UNL     1      -4.161  -1.130  24.231  0.00  0.00    +0.099 C 
BRANCH   4   2
ATOM      1  C   UNL     1      -4.754  -2.348  23.779  0.00  0.00    +0.090 C 
ATOM      2  N   UNL     1      -4.179  -1.763  23.702  0.00  0.00    -0.267 NA
ATOM      3  C   UNL     1      -3.621  -1.810  23.096  0.00  0.00    +0.090 C 
ENDBRANCH   4   2
ENDBRANCH   5   4
ENDBRANCH  11  10
BRANCH  19  20
ATOM     20  C   UNL     1      -2.576   1.522  24.715  0.00  0.00    +0.101 C 
BRANCH  20  21
ATOM     21  C   UNL     1      -1.768   1.517  24.552  0.00  0.00    +0.012 A 
ATOM     22  C   UNL     1      -1.413   1.229  23.864  0.00  0.00    +0.073 A 
ATOM     23  N   UNL     1      -0.598   1.333  23.936  0.00  0.00    -0.324 N 
ATOM     24  C   UNL     1      -0.031   1.122  23.374  0.00  0.00    +0.130 C 
ATOM     25  C   UNL     1      -0.448   1.685  24.666  0.00  0.00    +0.060 A 
ATOM     26  C   UNL     1      -1.171   1.799  25.048  0.00  0.00    +0.015 A 
ATOM     27  C   UNL     1      -1.192   2.145  25.796  0.00  0.00    +0.001 A 
ATOM     28  C   UNL     1      -0.492   2.376  26.164  0.00  0.00    +0.000 A 
ATOM     29  C   UNL     1       0.232   2.263  25.783  0.00  0.00    +0.001 A 
ATOM     30  C   UNL     1       0.253   1.917  25.034  0.00  0.00    +0.017 A 
ENDBRANCH  20  21
ENDBRANCH  19  20
TORSDOF 5
ENDMDL
MODEL 6
REMARK VINA RESULT:     -12.6      1.657      4.890
REMARK  Name = 
REMARK  5 active torsions:
REMARK  status: ('A' for Active; 'I' for Inactive)
REMARK    1  A    between atoms: N_2  and  C_4
REMARK    2  A    between atoms: C_4  and  C_5
REMARK    3  A    between atoms: C_10  and  C_11
REMARK    4  A    between atoms: N_19  and  C_20
REMARK    5  A    between atoms: C_20  and  C_21
REMARK                            x       y       z     vdW  Elec       q    Type
REMARK                         _______ _______ _______ _____ _____    ______ ____
ROOT
ATOM     11  C   UNL     1      -1.655  -0.900  24.982  0.00  0.00    +0.056 A 
ATOM     12  C   UNL     1      -1.129  -1.500  24.775  0.00  0.00    +0.006 A 
ATOM     13  C   UNL     1      -0.466  -1.328  24.315  0.00  0.00    +0.013 A 
ATOM     14  C   UNL     1      -0.330  -0.555  24.061  0.00  0.00    +0.041 A 
ATOM     15  C   UNL     1       0.269  -0.060  23.571  0.00  0.00    +0.054 C 
ATOM     16  C   UNL     1       0.865  -0.122  23.204  0.00  0.00    +0.011 C 
ATOM     17  C   UNL     1       0.343   0.469  23.410  0.00  0.00    +0.039 C 
ATOM     18  C   UNL     1      -0.162   1.306  23.553  0.00  0.00    +0.074 C 
ATOM     19  N   UNL     1      -0.791   1.013  24.018  0.00  0.00    -0.269 NA
ATOM     31  C   UNL     1      -0.207   0.757  23.700  0.00  0.00    +0.078 C 
ATOM     32  C   UNL     1      -0.289  -0.040  23.924  0.00  0.00    +0.110 C 
ATOM     33  N   UNL     1      -0.856   0.045  24.268  0.00  0.00    -0.299 N 
ATOM     34  C   UNL     1      -1.519  -0.127  24.728  0.00  0.00    +0.261 A 
ATOM     35  O   UNL     1      -2.045   0.474  24.935  0.00  0.00    -0.267 OA
ENDROOT
BRANCH  11  10
ATOM      5  C   UNL     1      -2.957  -1.474  25.110  0.00  0.00    -0.006 A 
ATOM      6  C   UNL     1      -3.619  -1.647  25.569  0.00  0.00    -0.003 A 
ATOM      7  C   UNL     1      -3.642  -1.419  26.362  0.00  0.00    -0.000 A 
ATOM      8  C   UNL     1      -3.003  -1.018  26.695  0.00  0.00    -0.000 A 
ATOM      9  C   UNL     1      -2.340  -0.845  26.235  0.00  0.00    -0.000 A 
ATOM     10  C   UNL     1      -2.317  -1.073  25.442  0.00  0.00    +0.002 A 
BRANCH   5   4
ATOM      4  C   UNL     1      -2.934  -1.702  24.317  0.00  0.00    +0.099 C 
BRANCH   4   2
ATOM      1  C   UNL     1      -3.632  -2.906  23.995  0.00  0.00    +0.090 C 
ATOM      2  N   UNL     1      -3.582  -2.083  23.979  0.00  0.00    -0.267 NA
ATOM      3  C   UNL     1      -4.182  -1.641  23.624  0.00  0.00    +0.090 C 
ENDBRANCH   4   2
ENDBRANCH   5   4
ENDBRANCH  11  10
BRANCH  19  20
ATOM     20  C   UNL     1      -1.487   1.017  24.462  0.00  0.00    +0.101 C 
BRANCH  20  21
ATOM     21  C   UNL     1      -1.834   1.733  24.678  0.00  0.00    +0.012 A 
ATOM     22  C   UNL     1      -1.589   2.224  25.295  0.00  0.00    +0.073 A 
ATOM     23  N   UNL     1      -2.091   2.878  25.314  0.00  0.00    -0.324 N 
ATOM     24  C   UNL     1      -2.046   3.508  25.845  0.00  0.00    +0.130 C 
ATOM     25  C   UNL     1      -2.645   2.793  24.710  0.00  0.00    +0.060 A 
ATOM     26  C   UNL     1      -2.487   2.084  24.316  0.00  0.00    +0.015 A 
ATOM     27  C   UNL     1      -2.957   1.852  23.679  0.00  0.00    +0.001 A 
ATOM     28  C   UNL     1      -3.586   2.328  23.436  0.00  0.00    +0.000 A 
ATOM     29  C   UNL     1      -3.744   3.036  23.829  0.00  0.00    +0.001 A 
ATOM     30  C   UNL     1      -3.274   3.268  24.466  0.00  0.00    +0.017 A 
ENDBRANCH  20  21
ENDBRANCH  19  20
TORSDOF 5
ENDMDL
MODEL 7
REMARK VINA RESULT:     -12.6      1.303      3.257
REMARK  Name = 
REMARK  5 active torsions:
REMARK  status: ('A' for Active; 'I' for Inactive)
REMARK    1  A    between atoms: N_2  and  C_4
REMARK    2  A    between atoms: C_4  and  C_5
REMARK    3  A    between atoms: C_10  and  C_11
REMARK    4  A    between atoms: N_19  and  C_20
REMARK    5  A    between atoms: C_20  and  C_21
REMARK                            x       y       z     vdW  Elec       q    Type
REMARK                         _______ _______ _______ _____ _____    ______ ____
ROOT
ATOM     11  C   UNL     1      -2.319   2.767  24.615  0.00  0.00    +0.056 A 
ATOM     12  C   UNL     1      -2.025   3.499  24.856  0.00  0.00    +0.006 A 
ATOM     13  C   UNL     1      -1.379   3.537  25.367  0.00  0.00    +0.013 A 
ATOM     14  C   UNL     1      -1.027   2.842  25.639  0.00  0.00    +0.041 A 
ATOM     15  C   UNL     1      -0.342   2.553  26.178  0.00  0.00    +0.054 C 
ATOM     16  C   UNL     1       0.174   2.793  26.589  0.00  0.00    +0.011 C 
ATOM     17  C   UNL     1      -0.119   2.071  26.350  0.00  0.00    +0.039 C 
ATOM     18  C   UNL     1      -0.324   1.120  26.178  0.00  0.00    +0.074 C 
ATOM     19  N   UNL     1      -0.975   1.208  25.663  0.00  0.00    -0.269 NA
ATOM     31  C   UNL     1      -0.527   1.629  26.022  0.00  0.00    +0.078 C 
ATOM     32  C   UNL     1      -0.837   2.364  25.784  0.00  0.00    +0.110 C 
ATOM     33  N   UNL     1      -1.321   2.110  25.398  0.00  0.00    -0.299 N 
ATOM     34  C   UNL     1      -1.967   2.072  24.886  0.00  0.00    +0.261 A 
ATOM     35  O   UNL     1      -2.261   1.340  24.646  0.00  0.00    -0.267 OA
ENDROOT
BRANCH  11  10
ATOM      5  C   UNL     1      -3.721   2.907  24.381  0.00  0.00    -0.006 A 
ATOM      6  C   UNL     1      -4.367   2.871  23.870  0.00  0.00    -0.003 A 
ATOM      7  C   UNL     1      -4.257   2.658  23.081  0.00  0.00    -0.000 A 
ATOM      8  C   UNL     1      -3.501   2.481  22.802  0.00  0.00    -0.000 A 
ATOM      9  C   UNL     1      -2.854   2.517  23.314  0.00  0.00    -0.000 A 
ATOM     10  C   UNL     1      -2.964   2.730  24.103  0.00  0.00    +0.002 A 
BRANCH   5   4
ATOM      4  C   UNL     1      -3.831   3.121  25.170  0.00  0.00    +0.099 C 
BRANCH   4   2
ATOM      1  C   UNL     1      -4.884   4.051  25.428  0.00  0.00    +0.090 C 
ATOM      2  N   UNL     1      -4.590   3.281  25.452  0.00  0.00    -0.267 NA
ATOM      3  C   UNL     1      -5.053   2.672  25.759  0.00  0.00    +0.090 C 
ENDBRANCH   4   2
ENDBRANCH   5   4
ENDBRANCH  11  10
BRANCH  19  20
ATOM     20  C   UNL     1      -1.599   0.993  25.167  0.00  0.00    +0.101 C 
BRANCH  20  21
ATOM     21  C   UNL     1      -1.683   0.208  24.927  0.00  0.00    +0.012 A 
ATOM     22  C   UNL     1      -1.206  -0.187  24.380  0.00  0.00    +0.073 A 
ATOM     23  N   UNL     1      -1.487  -0.958  24.307  0.00  0.00    -0.324 N 
ATOM     24  C   UNL     1      -1.173  -1.544  23.819  0.00  0.00    +0.130 C 
ATOM     25  C   UNL     1      -2.137  -1.042  24.808  0.00  0.00    +0.060 A 
ATOM     26  C   UNL     1      -2.259  -0.321  25.191  0.00  0.00    +0.015 A 
ATOM     27  C   UNL     1      -2.877  -0.240  25.731  0.00  0.00    +0.001 A 
ATOM     28  C   UNL     1      -3.374  -0.879  25.887  0.00  0.00    +0.000 A 
ATOM     29  C   UNL     1      -3.253  -1.600  25.504  0.00  0.00    +0.001 A 
ATOM     30  C   UNL     1      -2.635  -1.681  24.965  0.00  0.00    +0.017 A 
ENDBRANCH  20  21
ENDBRANCH  19  20
TORSDOF 5
ENDMDL
MODEL 8
REMARK VINA RESULT:     -12.3      1.246      2.078
REMARK  Name = 
REMARK  5 active torsions:
REMARK  status: ('A' for Active; 'I' for Inactive)
REMARK    1  A    between atoms: N_2  and  C_4
REMARK    2  A    between atoms: C_4  and  C_5
REMARK    3  A    between atoms: C_10  and  C_11
REMARK    4  A    between atoms: N_19  and  C_20
REMARK    5  A    between atoms: C_20  and  C_21
REMARK                            x       y       z     vdW  Elec       q    Type
REMARK                         _______ _______ _______ _____ _____    ______ ____
ROOT
ATOM     11  C   UNL     1      -2.449   3.257  25.777  0.00  0.00    +0.056 A 
ATOM     12  C   UNL     1      -2.702   3.979  26.087  0.00  0.00    +0.006 A 
ATOM     13  C   UNL     1      -3.501   4.183  26.060  0.00  0.00    +0.013 A 
ATOM     14  C   UNL     1      -4.047   3.665  25.724  0.00  0.00    +0.041 A 
ATOM     15  C   UNL     1      -4.946   3.592  25.548  0.00  0.00    +0.054 C 
ATOM     16  C   UNL     1      -5.552   3.939  25.621  0.00  0.00    +0.011 C 
ATOM     17  C   UNL     1      -5.299   3.227  25.316  0.00  0.00    +0.039 C 
ATOM     18  C   UNL     1      -5.192   2.337  24.901  0.00  0.00    +0.074 C 
ATOM     19  N   UNL     1      -4.366   2.242  24.984  0.00  0.00    -0.269 NA
ATOM     31  C   UNL     1      -4.859   2.731  25.144  0.00  0.00    +0.078 C 
ATOM     32  C   UNL     1      -4.358   3.295  25.496  0.00  0.00    +0.110 C 
ATOM     33  N   UNL     1      -3.795   2.943  25.414  0.00  0.00    -0.299 N 
ATOM     34  C   UNL     1      -2.996   2.740  25.440  0.00  0.00    +0.261 A 
ATOM     35  O   UNL     1      -2.743   2.018  25.130  0.00  0.00    -0.267 OA
ENDROOT
BRANCH  11  10
ATOM      5  C   UNL     1      -1.103   3.477  25.353  0.00  0.00    -0.006 A 
ATOM      6  C   UNL     1      -0.304   3.275  25.379  0.00  0.00    -0.003 A 
ATOM      7  C   UNL     1      -0.052   2.650  25.856  0.00  0.00    -0.000 A 
ATOM      8  C   UNL     1      -0.599   2.228  26.306  0.00  0.00    -0.000 A 
ATOM      9  C   UNL     1      -1.399   2.430  26.280  0.00  0.00    -0.000 A 
ATOM     10  C   UNL     1      -1.650   3.055  25.803  0.00  0.00    +0.002 A 
BRANCH   5   4
ATOM      4  C   UNL     1      -1.355   4.101  24.877  0.00  0.00    +0.099 C 
BRANCH   4   2
ATOM      1  C   UNL     1      -0.492   4.259  23.749  0.00  0.00    +0.090 C 
ATOM      2  N   UNL     1      -0.803   4.548  24.456  0.00  0.00    -0.267 NA
ATOM      3  C   UNL     1      -0.562   5.283  24.743  0.00  0.00    +0.090 C 
ENDBRANCH   4   2
ENDBRANCH   5   4
ENDBRANCH  11  10
BRANCH  19  20
ATOM     20  C   UNL     1      -3.623   1.888  24.929  0.00  0.00    +0.101 C 
BRANCH  20  21
ATOM     21  C   UNL     1      -3.521   1.212  24.467  0.00  0.00    +0.012 A 
ATOM     22  C   UNL     1      -3.344   1.198  23.660  0.00  0.00    +0.073 A 
ATOM     23  N   UNL     1      -3.292   0.410  23.425  0.00  0.00    -0.324 N 
ATOM     24  C   UNL     1      -3.125   0.141  22.663  0.00  0.00    +0.130 C 
ATOM     25  C   UNL     1      -3.436  -0.064  24.084  0.00  0.00    +0.060 A 
ATOM     26  C   UNL     1      -3.578   0.432  24.729  0.00  0.00    +0.015 A 
ATOM     27  C   UNL     1      -3.740   0.109  25.470  0.00  0.00    +0.001 A 
ATOM     28  C   UNL     1      -3.760  -0.710  25.568  0.00  0.00    +0.000 A 
ATOM     29  C   UNL     1      -3.619  -1.206  24.924  0.00  0.00    +0.001 A 
ATOM     30  C   UNL     1      -3.457  -0.883  24.183  0.00  0.00    +0.017 A 
ENDBRANCH  20  21
ENDBRANCH  19  20
TORSDOF 5
ENDMDL
MODEL 9
REMARK VINA RESULT:     -11.7      1.067      3.713
REMARK  Name = 
REMARK  5 active torsions:
REMARK  status: ('A' for Active; 'I' for Inactive)
REMARK    1  A    between atoms: N_2  and  C_4
REMARK    2  A    between atoms: C_4  and  C_5
REMARK    3  A    between atoms: C_10  and  C_11
REMARK    4  A    between atoms: N_19  and  C_20
REMARK    5  A    between atoms: C_20  and  C_21
REMARK                            x       y       z     vdW  Elec       q    Type
REMARK                         _______ _______ _______ _____ _____    ______ ____
ROOT
ATOM     11  C   UNL     1      -3.957   1.103  24.496  0.00  0.00    +0.056 A 
ATOM     12  C   UNL     1      -4.773   1.028  24.592  0.00  0.00    +0.006 A 
ATOM     13  C   UNL     1      -5.204   1.634  24.947  0.00  0.00    +0.013 A 
ATOM     14  C   UNL     1      -4.820   2.316  25.208  0.00  0.00    +0.041 A 
ATOM     15  C   UNL     1      -4.992   3.121  25.616  0.00  0.00    +0.054 C 
ATOM     16  C   UNL     1      -5.518   3.502  25.881  0.00  0.00    +0.011 C 
ATOM     17  C   UNL     1      -4.713   3.573  25.785  0.00  0.00    +0.039 C 
ATOM     18  C   UNL     1      -3.762   3.841  25.761  0.00  0.00    +0.074 C 
ATOM     19  N   UNL     1      -3.436   3.168  25.390  0.00  0.00    -0.269 NA
ATOM     31  C   UNL     1      -4.077   3.395  25.600  0.00  0.00    +0.078 C 
ATOM     32  C   UNL     1      -4.523   2.734  25.358  0.00  0.00    +0.110 C 
ATOM     33  N   UNL     1      -4.003   2.391  25.113  0.00  0.00    -0.299 N 
ATOM     34  C   UNL     1      -3.572   1.784  24.757  0.00  0.00    +0.261 A 
ATOM     35  O   UNL     1      -2.756   1.859  24.662  0.00  0.00    -0.267 OA
ENDROOT
BRANCH  11  10
ATOM      5  C   UNL     1      -3.386  -0.206  24.552  0.00  0.00    -0.006 A 
ATOM      6  C   UNL     1      -2.956  -0.813  24.197  0.00  0.00    -0.003 A 
ATOM      7  C   UNL     1      -2.665  -0.719  23.430  0.00  0.00    -0.000 A 
ATOM      8  C   UNL     1      -2.805  -0.018  23.019  0.00  0.00    -0.000 A 
ATOM      9  C   UNL     1      -3.236   0.590  23.374  0.00  0.00    -0.000 A 
ATOM     10  C   UNL     1      -3.526   0.496  24.141  0.00  0.00    +0.002 A 
BRANCH   5   4
ATOM      4  C   UNL     1      -3.676  -0.300  25.318  0.00  0.00    +0.099 C 
BRANCH   4   2
ATOM      1  C   UNL     1      -3.894  -1.676  25.635  0.00  0.00    +0.090 C 
ATOM      2  N   UNL     1      -3.480  -0.972  25.754  0.00  0.00    -0.267 NA
ATOM      3  C   UNL     1      -2.870  -0.941  26.309  0.00  0.00    +0.090 C 
ENDBRANCH   4   2
ENDBRANCH   5   4
ENDBRANCH  11  10
BRANCH  19  20
ATOM     20  C   UNL     1      -2.864   2.670  25.063  0.00  0.00    +0.101 C 
BRANCH  20  21
ATOM     21  C   UNL     1      -2.100   2.950  24.932  0.00  0.00    +0.012 A 
ATOM     22  C   UNL     1      -1.864   3.451  24.319  0.00  0.00    +0.073 A 
ATOM     23  N   UNL     1      -1.055   3.589  24.400  0.00  0.00    -0.324 N 
ATOM     24  C   UNL     1      -0.592   4.060  23.904  0.00  0.00    +0.130 C 
ATOM     25  C   UNL     1      -0.790   3.175  25.062  0.00  0.00    +0.060 A 
ATOM     26  C   UNL     1      -1.436   2.780  25.391  0.00  0.00    +0.015 A 
ATOM     27  C   UNL     1      -1.334   2.317  26.066  0.00  0.00    +0.001 A 
ATOM     28  C   UNL     1      -0.589   2.248  26.412  0.00  0.00    +0.000 A 
ATOM     29  C   UNL     1       0.057   2.643  26.083  0.00  0.00    +0.001 A 
ATOM     30  C   UNL     1      -0.044   3.106  25.408  0.00  0.00    +0.017 A 
ENDBRANCH  20  21
ENDBRANCH  19  20
TORSDOF 5
ENDMDL
MODEL 10
REMARK VINA RESULT:     -11.6      1.327      4.309
REMARK  Name = 
REMARK  5 active torsions:
REMARK  status: ('A' for Active; 'I' for Inactive)
REMARK    1  A    between atoms: N_2  and  C_4
REMARK    2  A    between atoms: C_4  and  C_5
REMARK    3  A    between atoms: C_10  and  C_11
REMARK    4  A    between atoms: N_19  and  C_20
REMARK    5  A    between atoms: C_20  and  C_21
REMARK                            x       y       z     vdW  Elec       q    Type
REMARK                         _______ _______ _______ _____ _____    ______ ____
ROOT
ATOM     11  C   UNL     1      -2.096   0.546  24.669  0.00  0.00    +0.056 A 
ATOM     12  C   UNL     1      -1.365   0.203  24.841  0.00  0.00    +0.006 A 
ATOM     13  C   UNL     1      -0.780   0.647  25.217  0.00  0.00    +0.013 A 
ATOM     14  C   UNL     1      -0.925   1.433  25.420  0.00  0.00    +0.041 A 
ATOM     15  C   UNL     1      -0.517   2.154  25.818  0.00  0.00    +0.054 C 
ATOM     16  C   UNL     1       0.087   2.348  26.118  0.00  0.00    +0.011 C 
ATOM     17  C   UNL     1      -0.636   2.683  25.947  0.00  0.00    +0.039 C 
ATOM     18  C   UNL     1      -1.431   3.257  25.827  0.00  0.00    +0.074 C 
ATOM     19  N   UNL     1      -1.940   2.714  25.448  0.00  0.00    -0.269 NA
ATOM     31  C   UNL     1      -1.277   2.721  25.709  0.00  0.00    +0.078 C 
ATOM     32  C   UNL     1      -1.070   1.935  25.530  0.00  0.00    +0.110 C 
ATOM     33  N   UNL     1      -1.655   1.775  25.248  0.00  0.00    -0.299 N 
ATOM     34  C   UNL     1      -2.241   1.332  24.873  0.00  0.00    +0.261 A 
ATOM     35  O   UNL     1      -2.972   1.674  24.701  0.00  0.00    -0.267 OA
ENDROOT
BRANCH  11  10
ATOM      5  C   UNL     1      -3.037  -0.528  24.690  0.00  0.00    -0.006 A 
ATOM      6  C   UNL     1      -3.622  -0.973  24.315  0.00  0.00    -0.003 A 
ATOM      7  C   UNL     1      -3.851  -0.788  23.544  0.00  0.00    -0.000 A 
ATOM      8  C   UNL     1      -3.495  -0.158  23.148  0.00  0.00    -0.000 A 
ATOM      9  C   UNL     1      -2.909   0.287  23.523  0.00  0.00    -0.000 A 
ATOM     10  C   UNL     1      -2.681   0.102  24.294  0.00  0.00    +0.002 A 
BRANCH   5   4
ATOM      4  C   UNL     1      -2.809  -0.714  25.460  0.00  0.00    +0.099 C 
BRANCH   4   2
ATOM      1  C   UNL     1      -3.767  -1.137  26.433  0.00  0.00    +0.090 C 
ATOM      2  N   UNL     1      -3.192  -1.319  25.870  0.00  0.00    -0.267 NA
ATOM      3  C   UNL     1      -3.001  -2.107  25.716  0.00  0.00    +0.090 C 
ENDBRANCH   4   2
ENDBRANCH   5   4
ENDBRANCH  11  10
BRANCH  19  20
ATOM     20  C   UNL     1      -2.621   2.422  25.085  0.00  0.00    +0.101 C 
BRANCH  20  21
ATOM     21  C   UNL     1      -3.216   2.941  24.847  0.00  0.00    +0.012 A 
ATOM     22  C   UNL     1      -3.176   3.465  24.209  0.00  0.00    +0.073 A 
ATOM     23  N   UNL     1      -3.890   3.876  24.172  0.00  0.00    -0.324 N 
ATOM     24  C   UNL     1      -4.088   4.454  23.618  0.00  0.00    +0.130 C 
ATOM     25  C   UNL     1      -4.371   3.607  24.785  0.00  0.00    +0.060 A 
ATOM     26  C   UNL     1      -3.955   3.029  25.202  0.00  0.00    +0.015 A 
ATOM     27  C   UNL     1      -4.303   2.659  25.852  0.00  0.00    +0.001 A 
ATOM     28  C   UNL     1      -5.067   2.865  26.084  0.00  0.00    +0.000 A 
ATOM     29  C   UNL     1      -5.484   3.442  25.668  0.00  0.00    +0.001 A 
ATOM     30  C   UNL     1      -5.136   3.813  25.018  0.00  0.00    +0.017 A 
ENDBRANCH  20  21
ENDBRANCH  19  20
TORSDOF 5
ENDMDL
