MODEL 1
REMARK VINA RESULT:     -11.8      0.000      0.000
REMARK  Name = 
REMARK  7 active torsions:
REMARK  status: ('A' for Active; 'I' for Inactive)
REMARK    1  A    between atoms: O_2  and  C_3
REMARK    2  A    between atoms: C_6  and  C_9
REMARK    3  A    between atoms: N_11  and  C_12
REMARK    4  A    between atoms: C_12  and  C_13
REMARK    5  A    between atoms: C_15  and  C_16
REMARK    6  A    between atoms: C_16  and  C_17
REMARK    7  A    between atoms: N_22  and  C_25
REMARK                            x       y       z     vdW  Elec       q    Type
REMARK                         _______ _______ _______ _____ _____    ______ ____
ROOT
ATOM     13  C   UNL     1      -1.495   3.289  25.190  0.00  0.00    +0.170 C 
ATOM     14  O   UNL     1      -1.391   2.472  25.167  0.00  0.00    -0.351 OA
ATOM     15  C   UNL     1      -0.605   2.309  25.358  0.00  0.00    +0.157 C 
ATOM     32  C   UNL     1      -0.223   3.026  25.499  0.00  0.00    +0.212 C 
ATOM     33  O   UNL     1       0.569   3.121  25.708  0.00  0.00    -0.218 OA
ATOM     34  C   UNL     1      -0.773   3.633  25.396  0.00  0.00    +0.213 C 
ATOM     35  O   UNL     1      -0.627   4.439  25.483  0.00  0.00    -0.218 OA
ENDROOT
BRANCH  13  12
ATOM     12  C   UNL     1      -2.197   3.694  25.036  0.00  0.00    +0.148 C 
BRANCH  12  11
ATOM      9  C   UNL     1      -3.596   3.573  24.772  0.00  0.00    +0.265 C 
ATOM     10  O   UNL     1      -3.544   4.178  24.214  0.00  0.00    -0.268 OA
ATOM     11  N   UNL     1      -2.924   3.331  25.183  0.00  0.00    -0.199 NA
BRANCH   9   6
ATOM      3  C   UNL     1      -5.775   2.484  25.215  0.00  0.00    +0.139 A 
ATOM      4  C   UNL     1      -5.562   3.164  25.629  0.00  0.00    +0.037 A 
ATOM      5  C   UNL     1      -4.836   3.528  25.482  0.00  0.00    +0.008 A 
ATOM      6  C   UNL     1      -4.323   3.210  24.920  0.00  0.00    +0.055 A 
ATOM      7  C   UNL     1      -4.536   2.529  24.505  0.00  0.00    +0.008 A 
ATOM      8  C   UNL     1      -5.262   2.166  24.653  0.00  0.00    +0.037 A 
BRANCH   3   2
ATOM      1  C   UNL     1      -6.610   1.680  26.051  0.00  0.00    +0.252 C 
ATOM      2  O   UNL     1      -6.500   2.121  25.362  0.00  0.00    -0.471 OA
ENDBRANCH   3   2
ENDBRANCH   9   6
ENDBRANCH  12  11
ENDBRANCH  13  12
BRANCH  15  16
ATOM     16  C   UNL     1      -0.261   1.560  25.399  0.00  0.00    +0.117 C 
BRANCH  16  17
ATOM     17  C   UNL     1      -0.281   1.059  24.743  0.00  0.00    +0.228 C 
ATOM     18  O   UNL     1       0.192   1.220  24.088  0.00  0.00    -0.275 OA
ATOM     19  N   UNL     1      -0.774   0.398  24.744  0.00  0.00    -0.276 N 
ATOM     20  C   UNL     1      -0.794  -0.102  24.089  0.00  0.00    +0.115 C 
ATOM     21  C   UNL     1      -1.287  -0.763  24.089  0.00  0.00    +0.112 C 
ATOM     22  N   UNL     1      -1.761  -0.925  24.745  0.00  0.00    -0.304 N 
ATOM     23  C   UNL     1      -1.741  -0.424  25.401  0.00  0.00    +0.112 C 
ATOM     24  C   UNL     1      -1.248   0.237  25.400  0.00  0.00    +0.115 C 
BRANCH  22  25
ATOM     25  C   UNL     1      -2.254  -1.586  24.745  0.00  0.00    +0.048 A 
ATOM     26  C   UNL     1      -1.942  -2.333  24.592  0.00  0.00    +0.017 A 
ATOM     27  C   UNL     1      -2.436  -2.995  24.592  0.00  0.00    +0.031 A 
ATOM     28  C   UNL     1      -3.241  -2.907  24.746  0.00  0.00    +0.140 A 
ATOM     29  F   UNL     1      -3.735  -3.569  24.747  0.00  0.00    -0.204 F 
ATOM     30  C   UNL     1      -3.554  -2.160  24.900  0.00  0.00    +0.031 A 
ATOM     31  C   UNL     1      -3.060  -1.499  24.899  0.00  0.00    +0.017 A 
ENDBRANCH  22  25
ENDBRANCH  16  17
ENDBRANCH  15  16
TORSDOF 7
ENDMDL
MODEL 2
REMARK VINA RESULT:     -11.6      1.492      3.968
REMARK  Name = 
REMARK  7 active torsions:
REMARK  status: ('A' for Active; 'I' for Inactive)
REMARK    1  A    between atoms: O_2  and  C_3
REMARK    2  A    between atoms: C_6  and  C_9
REMARK    3  A    between atoms: N_11  and  C_12
REMARK    4  A    between atoms: C_12  and  C_13
REMARK    5  A    between atoms: C_15  and  C_16
REMARK    6  A    between atoms: C_16  and  C_17
REMARK    7  A    between atoms: N_22  and  C_25
REMARK                            x       y       z     vdW  Elec       q    Type
REMARK                         _______ _______ _______ _____ _____    ______ ____
ROOT
ATOM     13  C   UNL     1      -3.530   3.630  25.709  0.00  0.00    +0.170 C 
ATOM     14  O   UNL     1      -3.758   2.898  25.405  0.00  0.00    -0.351 OA
ATOM     15  C   UNL     1      -4.575   2.825  25.499  0.00  0.00    +0.157 C 
ATOM     32  C   UNL     1      -4.852   3.512  25.861  0.00  0.00    +0.212 C 
ATOM     33  O   UNL     1      -5.636   3.674  26.059  0.00  0.00    -0.218 OA
ATOM     34  C   UNL     1      -4.206   4.010  25.992  0.00  0.00    +0.213 C 
ATOM     35  O   UNL     1      -4.232   4.755  26.343  0.00  0.00    -0.218 OA
ENDROOT
BRANCH  13  12
ATOM     12  C   UNL     1      -2.762   3.929  25.729  0.00  0.00    +0.148 C 
BRANCH  12  11
ATOM      9  C   UNL     1      -1.392   3.805  25.342  0.00  0.00    +0.265 C 
ATOM     10  O   UNL     1      -1.284   4.614  25.463  0.00  0.00    -0.268 OA
ATOM     11  N   UNL     1      -2.130   3.463  25.474  0.00  0.00    -0.199 NA
BRANCH   9   6
ATOM      3  C   UNL     1       0.502   2.406  24.578  0.00  0.00    +0.139 A 
ATOM      4  C   UNL     1       0.257   2.375  25.365  0.00  0.00    +0.037 A 
ATOM      5  C   UNL     1      -0.374   2.841  25.620  0.00  0.00    +0.008 A 
ATOM      6  C   UNL     1      -0.761   3.338  25.087  0.00  0.00    +0.055 A 
ATOM      7  C   UNL     1      -0.516   3.369  24.299  0.00  0.00    +0.008 A 
ATOM      8  C   UNL     1       0.115   2.903  24.045  0.00  0.00    +0.037 A 
BRANCH   3   2
ATOM      1  C   UNL     1       0.990   1.254  23.887  0.00  0.00    +0.252 C 
ATOM      2  O   UNL     1       1.132   1.940  24.324  0.00  0.00    -0.471 OA
ENDBRANCH   3   2
ENDBRANCH   9   6
ENDBRANCH  12  11
ENDBRANCH  13  12
BRANCH  15  16
ATOM     16  C   UNL     1      -5.033   2.179  25.270  0.00  0.00    +0.117 C 
BRANCH  16  17
ATOM     17  C   UNL     1      -4.873   1.789  24.560  0.00  0.00    +0.228 C 
ATOM     18  O   UNL     1      -4.935   2.195  23.844  0.00  0.00    -0.275 OA
ATOM     19  N   UNL     1      -4.650   0.995  24.566  0.00  0.00    -0.276 N 
ATOM     20  C   UNL     1      -4.490   0.606  23.858  0.00  0.00    +0.115 C 
ATOM     21  C   UNL     1      -4.268  -0.189  23.864  0.00  0.00    +0.112 C 
ATOM     22  N   UNL     1      -4.205  -0.594  24.580  0.00  0.00    -0.304 N 
ATOM     23  C   UNL     1      -4.366  -0.204  25.290  0.00  0.00    +0.112 C 
ATOM     24  C   UNL     1      -4.588   0.590  25.283  0.00  0.00    +0.115 C 
BRANCH  22  25
ATOM     25  C   UNL     1      -3.983  -1.388  24.586  0.00  0.00    +0.048 A 
ATOM     26  C   UNL     1      -4.216  -1.887  23.973  0.00  0.00    +0.017 A 
ATOM     27  C   UNL     1      -3.994  -2.682  23.980  0.00  0.00    +0.031 A 
ATOM     28  C   UNL     1      -3.537  -2.976  24.601  0.00  0.00    +0.140 A 
ATOM     29  F   UNL     1      -3.314  -3.771  24.608  0.00  0.00    -0.204 F 
ATOM     30  C   UNL     1      -3.303  -2.478  25.214  0.00  0.00    +0.031 A 
ATOM     31  C   UNL     1      -3.526  -1.683  25.208  0.00  0.00    +0.017 A 
ENDBRANCH  22  25
ENDBRANCH  16  17
ENDBRANCH  15  16
TORSDOF 7
ENDMDL
MODEL 3
REMARK VINA RESULT:     -11.4      2.322      4.469
REMARK  Name = 
REMARK  7 active torsions:
REMARK  status: ('A' for Active; 'I' for Inactive)
REMARK    1  A    between atoms: O_2  and  C_3
REMARK    2  A    between atoms: C_6  and  C_9
REMARK    3  A    between atoms: N_11  and  C_12
REMARK    4  A    between atoms: C_12  and  C_13
REMARK    5  A    between atoms: C_15  and  C_16
REMARK    6  A    between atoms: C_16  and  C_17
REMARK    7  A    between atoms: N_22  and  C_25
REMARK                            x       y       z     vdW  Elec       q    Type
REMARK                         _______ _______ _______ _____ _____    ______ ____
ROOT
ATOM     13  C   UNL     1      -2.392  -0.940  24.974  0.00  0.00    +0.170 C 
ATOM     14  O   UNL     1      -1.885  -0.290  24.942  0.00  0.00    -0.351 OA
ATOM     15  C   UNL     1      -1.111  -0.568  25.008  0.00  0.00    +0.157 C 
ATOM     32  C   UNL     1      -1.139  -1.389  25.081  0.00  0.00    +0.212 C 
ATOM     33  O   UNL     1      -0.490  -1.891  25.162  0.00  0.00    -0.218 OA
ATOM     34  C   UNL     1      -1.931  -1.619  25.060  0.00  0.00    +0.213 C 
ATOM     35  O   UNL     1      -2.213  -2.392  25.115  0.00  0.00    -0.218 OA
ENDROOT
BRANCH  13  12
ATOM     12  C   UNL     1      -3.216  -0.915  24.928  0.00  0.00    +0.148 C 
BRANCH  12  11
ATOM      9  C   UNL     1      -4.340  -0.065  24.698  0.00  0.00    +0.265 C 
ATOM     10  O   UNL     1      -4.665  -0.630  24.193  0.00  0.00    -0.268 OA
ATOM     11  N   UNL     1      -3.616  -0.207  25.065  0.00  0.00    -0.199 NA
BRANCH   9   6
ATOM      3  C   UNL     1      -5.541   2.060  25.111  0.00  0.00    +0.139 A 
ATOM      4  C   UNL     1      -4.902   2.042  24.590  0.00  0.00    +0.037 A 
ATOM      5  C   UNL     1      -4.502   1.334  24.452  0.00  0.00    +0.008 A 
ATOM      6  C   UNL     1      -4.740   0.644  24.835  0.00  0.00    +0.055 A 
ATOM      7  C   UNL     1      -5.380   0.662  25.357  0.00  0.00    +0.008 A 
ATOM      8  C   UNL     1      -5.780   1.370  25.494  0.00  0.00    +0.037 A 
BRANCH   3   2
ATOM      1  C   UNL     1      -5.558   3.391  25.630  0.00  0.00    +0.252 C 
ATOM      2  O   UNL     1      -5.941   2.768  25.248  0.00  0.00    -0.471 OA
ENDBRANCH   3   2
ENDBRANCH   9   6
ENDBRANCH  12  11
ENDBRANCH  13  12
BRANCH  15  16
ATOM     16  C   UNL     1      -0.428  -0.105  25.002  0.00  0.00    +0.117 C 
BRANCH  16  17
ATOM     17  C   UNL     1      -0.304   0.441  24.395  0.00  0.00    +0.228 C 
ATOM     18  O   UNL     1      -0.019   0.185  23.664  0.00  0.00    -0.275 OA
ATOM     19  N   UNL     1      -0.463   1.240  24.519  0.00  0.00    -0.276 N 
ATOM     20  C   UNL     1      -0.339   1.785  23.912  0.00  0.00    +0.115 C 
ATOM     21  C   UNL     1      -0.499   2.584  24.036  0.00  0.00    +0.112 C 
ATOM     22  N   UNL     1      -0.783   2.840  24.767  0.00  0.00    -0.304 N 
ATOM     23  C   UNL     1      -0.907   2.295  25.375  0.00  0.00    +0.112 C 
ATOM     24  C   UNL     1      -0.748   1.495  25.251  0.00  0.00    +0.115 C 
BRANCH  22  25
ATOM     25  C   UNL     1      -0.943   3.639  24.891  0.00  0.00    +0.048 A 
ATOM     26  C   UNL     1      -0.404   4.211  24.641  0.00  0.00    +0.017 A 
ATOM     27  C   UNL     1      -0.564   5.012  24.765  0.00  0.00    +0.031 A 
ATOM     28  C   UNL     1      -1.263   5.238  25.140  0.00  0.00    +0.140 A 
ATOM     29  F   UNL     1      -1.423   6.039  25.264  0.00  0.00    -0.204 F 
ATOM     30  C   UNL     1      -1.802   4.667  25.391  0.00  0.00    +0.031 A 
ATOM     31  C   UNL     1      -1.642   3.867  25.266  0.00  0.00    +0.017 A 
ENDBRANCH  22  25
ENDBRANCH  16  17
ENDBRANCH  15  16
TORSDOF 7
ENDMDL
MODEL 4
REMARK VINA RESULT:     -11.2      2.158      4.061
REMARK  Name = 
REMARK  7 active torsions:
REMARK  status: ('A' for Active; 'I' for Inactive)
REMARK    1  A    between atoms: O_2  and  C_3
REMARK    2  A    between atoms: C_6  and  C_9
REMARK    3  A    between atoms: N_11  and  C_12
REMARK    4  A    between atoms: C_12  and  C_13
REMARK    5  A    between atoms: C_15  and  C_16
REMARK    6  A    between atoms: C_16  and  C_17
REMARK    7  A    between atoms: N_22  and  C_25
REMARK                            x       y       z     vdW  Elec       q    Type
REMARK                         _______ _______ _______ _____ _____    ______ ____
ROOT
ATOM     13  C   UNL     1      -3.733   2.528  25.042  0.00  0.00    +0.170 C 
ATOM     14  O   UNL     1      -2.916   2.459  24.955  0.00  0.00    -0.351 OA
ATOM     15  C   UNL     1      -2.592   3.217  24.976  0.00  0.00    +0.157 C 
ATOM     32  C   UNL     1      -3.209   3.755  25.076  0.00  0.00    +0.212 C 
ATOM     33  O   UNL     1      -3.134   4.575  25.127  0.00  0.00    -0.218 OA
ATOM     34  C   UNL     1      -3.915   3.329  25.116  0.00  0.00    +0.213 C 
ATOM     35  O   UNL     1      -4.669   3.648  25.214  0.00  0.00    -0.218 OA
ENDROOT
BRANCH  13  12
ATOM     12  C   UNL     1      -4.274   1.905  25.052  0.00  0.00    +0.148 C 
BRANCH  12  11
ATOM      9  C   UNL     1      -4.553   0.507  24.962  0.00  0.00    +0.265 C 
ATOM     10  O   UNL     1      -5.356   0.659  25.077  0.00  0.00    -0.268 OA
ATOM     11  N   UNL     1      -4.013   1.129  24.950  0.00  0.00    -0.199 NA
BRANCH   9   6
ATOM      3  C   UNL     1      -3.768  -1.821  24.656  0.00  0.00    +0.139 A 
ATOM      4  C   UNL     1      -3.643  -1.435  25.373  0.00  0.00    +0.037 A 
ATOM      5  C   UNL     1      -3.904  -0.659  25.476  0.00  0.00    +0.008 A 
ATOM      6  C   UNL     1      -4.291  -0.269  24.860  0.00  0.00    +0.055 A 
ATOM      7  C   UNL     1      -4.417  -0.656  24.141  0.00  0.00    +0.008 A 
ATOM      8  C   UNL     1      -4.155  -1.432  24.040  0.00  0.00    +0.037 A 
BRANCH   3   2
ATOM      1  C   UNL     1      -2.705  -2.750  24.436  0.00  0.00    +0.252 C 
ATOM      2  O   UNL     1      -3.507  -2.596  24.553  0.00  0.00    -0.471 OA
ENDBRANCH   3   2
ENDBRANCH   9   6
ENDBRANCH  12  11
ENDBRANCH  13  12
BRANCH  15  16
ATOM     16  C   UNL     1      -1.791   3.404  24.910  0.00  0.00    +0.117 C 
BRANCH  16  17
ATOM     17  C   UNL     1      -1.227   2.958  25.315  0.00  0.00    +0.228 C 
ATOM     18  O   UNL     1      -1.194   2.985  26.139  0.00  0.00    -0.275 OA
ATOM     19  N   UNL     1      -0.698   2.484  24.896  0.00  0.00    -0.276 N 
ATOM     20  C   UNL     1      -0.134   2.038  25.300  0.00  0.00    +0.115 C 
ATOM     21  C   UNL     1       0.395   1.564  24.882  0.00  0.00    +0.112 C 
ATOM     22  N   UNL     1       0.362   1.537  24.058  0.00  0.00    -0.304 N 
ATOM     23  C   UNL     1      -0.202   1.983  23.653  0.00  0.00    +0.112 C 
ATOM     24  C   UNL     1      -0.731   2.457  24.072  0.00  0.00    +0.115 C 
BRANCH  22  25
ATOM     25  C   UNL     1       0.892   1.063  23.639  0.00  0.00    +0.048 A 
ATOM     26  C   UNL     1       0.636   0.355  23.304  0.00  0.00    +0.017 A 
ATOM     27  C   UNL     1       1.167  -0.119  22.885  0.00  0.00    +0.031 A 
ATOM     28  C   UNL     1       1.953   0.117  22.802  0.00  0.00    +0.140 A 
ATOM     29  F   UNL     1       2.483  -0.357  22.383  0.00  0.00    -0.204 F 
ATOM     30  C   UNL     1       2.210   0.825  23.138  0.00  0.00    +0.031 A 
ATOM     31  C   UNL     1       1.679   1.299  23.556  0.00  0.00    +0.017 A 
ENDBRANCH  22  25
ENDBRANCH  16  17
ENDBRANCH  15  16
TORSDOF 7
ENDMDL
MODEL 5
REMARK VINA RESULT:     -11.1      1.592      3.873
REMARK  Name = 
REMARK  7 active torsions:
REMARK  status: ('A' for Active; 'I' for Inactive)
REMARK    1  A    between atoms: O_2  and  C_3
REMARK    2  A    between atoms: C_6  and  C_9
REMARK    3  A    between atoms: N_11  and  C_12
REMARK    4  A    between atoms: C_12  and  C_13
REMARK    5  A    between atoms: C_15  and  C_16
REMARK    6  A    between atoms: C_16  and  C_17
REMARK    7  A    between atoms: N_22  and  C_25
REMARK                            x       y       z     vdW  Elec       q    Type
REMARK                         _______ _______ _______ _____ _____    ______ ____
ROOT
ATOM     13  C   UNL     1      -4.824   3.085  25.681  0.00  0.00    +0.170 C 
ATOM     14  O   UNL     1      -4.508   2.373  25.412  0.00  0.00    -0.351 OA
ATOM     15  C   UNL     1      -5.136   1.865  25.239  0.00  0.00    +0.157 C 
ATOM     32  C   UNL     1      -5.839   2.264  25.402  0.00  0.00    +0.212 C 
ATOM     33  O   UNL     1      -6.601   1.962  25.308  0.00  0.00    -0.218 OA
ATOM     34  C   UNL     1      -5.646   3.019  25.675  0.00  0.00    +0.213 C 
ATOM     35  O   UNL     1      -6.182   3.603  25.902  0.00  0.00    -0.218 OA
ENDROOT
BRANCH  13  12
ATOM     12  C   UNL     1      -4.393   3.749  25.915  0.00  0.00    +0.148 C 
BRANCH  12  11
ATOM      9  C   UNL     1      -3.063   4.261  26.011  0.00  0.00    +0.265 C 
ATOM     10  O   UNL     1      -3.191   4.448  26.804  0.00  0.00    -0.268 OA
ATOM     11  N   UNL     1      -3.663   3.912  25.567  0.00  0.00    -0.199 NA
BRANCH   9   6
ATOM      3  C   UNL     1      -0.873   4.748  24.964  0.00  0.00    +0.139 A 
ATOM      4  C   UNL     1      -1.444   5.340  25.020  0.00  0.00    +0.037 A 
ATOM      5  C   UNL     1      -2.174   5.179  25.369  0.00  0.00    +0.008 A 
ATOM      6  C   UNL     1      -2.333   4.424  25.662  0.00  0.00    +0.055 A 
ATOM      7  C   UNL     1      -1.761   3.830  25.605  0.00  0.00    +0.008 A 
ATOM      8  C   UNL     1      -1.031   3.993  25.257  0.00  0.00    +0.037 A 
BRANCH   3   2
ATOM      1  C   UNL     1       0.033   4.610  23.868  0.00  0.00    +0.252 C 
ATOM      2  O   UNL     1      -0.144   4.911  24.616  0.00  0.00    -0.471 OA
ENDBRANCH   3   2
ENDBRANCH   9   6
ENDBRANCH  12  11
ENDBRANCH  13  12
BRANCH  15  16
ATOM     16  C   UNL     1      -5.070   1.094  24.954  0.00  0.00    +0.117 C 
BRANCH  16  17
ATOM     17  C   UNL     1      -4.533   0.920  24.352  0.00  0.00    +0.228 C 
ATOM     18  O   UNL     1      -4.561   1.337  23.641  0.00  0.00    -0.275 OA
ATOM     19  N   UNL     1      -3.967   0.329  24.462  0.00  0.00    -0.276 N 
ATOM     20  C   UNL     1      -3.430   0.155  23.861  0.00  0.00    +0.115 C 
ATOM     21  C   UNL     1      -2.865  -0.435  23.971  0.00  0.00    +0.112 C 
ATOM     22  N   UNL     1      -2.836  -0.852  24.682  0.00  0.00    -0.304 N 
ATOM     23  C   UNL     1      -3.374  -0.678  25.283  0.00  0.00    +0.112 C 
ATOM     24  C   UNL     1      -3.939  -0.088  25.174  0.00  0.00    +0.115 C 
BRANCH  22  25
ATOM     25  C   UNL     1      -2.271  -1.443  24.791  0.00  0.00    +0.048 A 
ATOM     26  C   UNL     1      -2.449  -2.225  24.601  0.00  0.00    +0.017 A 
ATOM     27  C   UNL     1      -1.883  -2.815  24.711  0.00  0.00    +0.031 A 
ATOM     28  C   UNL     1      -1.140  -2.623  25.011  0.00  0.00    +0.140 A 
ATOM     29  F   UNL     1      -0.573  -3.213  25.121  0.00  0.00    -0.204 F 
ATOM     30  C   UNL     1      -0.961  -1.841  25.202  0.00  0.00    +0.031 A 
ATOM     31  C   UNL     1      -1.527  -1.250  25.092  0.00  0.00    +0.017 A 
ENDBRANCH  22  25
ENDBRANCH  16  17
ENDBRANCH  15  16
TORSDOF 7
ENDMDL
MODEL 6
REMARK VINA RESULT:     -11.0      2.012      4.890
REMARK  Name = 
REMARK  7 active torsions:
REMARK  status: ('A' for Active; 'I' for Inactive)
REMARK    1  A    between atoms: O_2  and  C_3
REMARK    2  A    between atoms: C_6  and  C_9
REMARK    3  A    between atoms: N_11  and  C_12
REMARK    4  A    between atoms: C_12  and  C_13
REMARK    5  A    between atoms: C_15  and  C_16
REMARK    6  A    between atoms: C_16  and  C_17
REMARK    7  A    between atoms: N_22  and  C_25
REMARK                            x       y       z     vdW  Elec       q    Type
REMARK                         _______ _______ _______ _____ _____    ______ ____
ROOT
ATOM     13  C   UNL     1       0.111   0.307  24.279  0.00  0.00    +0.170 C 
ATOM     14  O   UNL     1      -0.374   0.929  24.520  0.00  0.00    -0.351 OA
ATOM     15  C   UNL     1      -0.040   1.633  24.250  0.00  0.00    +0.157 C 
ATOM     32  C   UNL     1       0.652   1.447  23.841  0.00  0.00    +0.212 C 
ATOM     33  O   UNL     1       1.161   1.985  23.479  0.00  0.00    -0.218 OA
ATOM     34  C   UNL     1       0.745   0.627  23.859  0.00  0.00    +0.213 C 
ATOM     35  O   UNL     1       1.364   0.202  23.517  0.00  0.00    -0.218 OA
ENDROOT
BRANCH  13  12
ATOM     12  C   UNL     1      -0.016  -0.494  24.430  0.00  0.00    +0.148 C 
BRANCH  12  11
ATOM      9  C   UNL     1      -0.993  -1.465  24.808  0.00  0.00    +0.265 C 
ATOM     10  O   UNL     1      -0.459  -1.796  25.341  0.00  0.00    -0.268 OA
ATOM     11  N   UNL     1      -0.772  -0.814  24.353  0.00  0.00    -0.199 NA
BRANCH   9   6
ATOM      3  C   UNL     1      -3.263  -2.425  24.575  0.00  0.00    +0.139 A 
ATOM      4  C   UNL     1      -2.617  -2.806  24.234  0.00  0.00    +0.037 A 
ATOM      5  C   UNL     1      -1.860  -2.487  24.311  0.00  0.00    +0.008 A 
ATOM      6  C   UNL     1      -1.750  -1.785  24.730  0.00  0.00    +0.055 A 
ATOM      7  C   UNL     1      -2.397  -1.403  25.072  0.00  0.00    +0.008 A 
ATOM      8  C   UNL     1      -3.153  -1.723  24.995  0.00  0.00    +0.037 A 
BRANCH   3   2
ATOM      1  C   UNL     1      -4.513  -2.495  23.886  0.00  0.00    +0.252 C 
ATOM      2  O   UNL     1      -4.019  -2.744  24.498  0.00  0.00    -0.471 OA
ENDBRANCH   3   2
ENDBRANCH   9   6
ENDBRANCH  12  11
ENDBRANCH  13  12
BRANCH  15  16
ATOM     16  C   UNL     1      -0.344   2.391  24.368  0.00  0.00    +0.117 C 
BRANCH  16  17
ATOM     17  C   UNL     1      -0.658   2.600  25.102  0.00  0.00    +0.228 C 
ATOM     18  O   UNL     1      -0.172   2.613  25.769  0.00  0.00    -0.275 OA
ATOM     19  N   UNL     1      -1.456   2.796  25.170  0.00  0.00    -0.276 N 
ATOM     20  C   UNL     1      -1.769   3.006  25.903  0.00  0.00    +0.115 C 
ATOM     21  C   UNL     1      -2.567   3.202  25.970  0.00  0.00    +0.112 C 
ATOM     22  N   UNL     1      -3.053   3.189  25.304  0.00  0.00    -0.304 N 
ATOM     23  C   UNL     1      -2.739   2.979  24.570  0.00  0.00    +0.112 C 
ATOM     24  C   UNL     1      -1.941   2.783  24.502  0.00  0.00    +0.115 C 
BRANCH  22  25
ATOM     25  C   UNL     1      -3.851   3.385  25.371  0.00  0.00    +0.048 A 
ATOM     26  C   UNL     1      -4.081   4.177  25.400  0.00  0.00    +0.017 A 
ATOM     27  C   UNL     1      -4.880   4.372  25.467  0.00  0.00    +0.031 A 
ATOM     28  C   UNL     1      -5.448   3.776  25.506  0.00  0.00    +0.140 A 
ATOM     29  F   UNL     1      -6.247   3.972  25.573  0.00  0.00    -0.204 F 
ATOM     30  C   UNL     1      -5.219   2.984  25.477  0.00  0.00    +0.031 A 
ATOM     31  C   UNL     1      -4.420   2.789  25.410  0.00  0.00    +0.017 A 
ENDBRANCH  22  25
ENDBRANCH  16  17
ENDBRANCH  15  16
TORSDOF 7
ENDMDL
MODEL 7
REMARK VINA RESULT:     -10.9      3.122      6.605
REMARK  Name = 
REMARK  7 active torsions:
REMARK  status: ('A' for Active; 'I' for Inactive)
REMARK    1  A    between atoms: O_2  and  C_3
REMARK    2  A    between atoms: C_6  and  C_9
REMARK    3  A    between atoms: N_11  and  C_12
REMARK    4  A    between atoms: C_12  and  C_13
REMARK    5  A    between atoms: C_15  and  C_16
REMARK    6  A    between atoms: C_16  and  C_17
REMARK    7  A    between atoms: N_22  and  C_25
REMARK                            x       y       z     vdW  Elec       q    Type
REMARK                         _______ _______ _______ _____ _____    ______ ____
ROOT
ATOM     13  C   UNL     1       0.305  -0.073  23.435  0.00  0.00    +0.170 C 
ATOM     14  O   UNL     1      -0.083   0.646  23.547  0.00  0.00    -0.351 OA
ATOM     15  C   UNL     1      -0.651   0.540  24.136  0.00  0.00    +0.157 C 
ATOM     32  C   UNL     1      -0.614  -0.245  24.388  0.00  0.00    +0.212 C 
ATOM     33  O   UNL     1      -1.085  -0.591  24.970  0.00  0.00    -0.218 OA
ATOM     34  C   UNL     1      -0.023  -0.624  23.954  0.00  0.00    +0.213 C 
ATOM     35  O   UNL     1       0.200  -1.415  24.026  0.00  0.00    -0.218 OA
ENDROOT
BRANCH  13  12
ATOM     12  C   UNL     1       0.914  -0.216  22.897  0.00  0.00    +0.148 C 
BRANCH  12  11
ATOM      9  C   UNL     1       2.278  -0.017  22.523  0.00  0.00    +0.265 C 
ATOM     10  O   UNL     1       2.082  -0.146  21.733  0.00  0.00    -0.268 OA
ATOM     11  N   UNL     1       1.696  -0.052  23.105  0.00  0.00    -0.199 NA
BRANCH   9   6
ATOM      3  C   UNL     1       4.623   0.476  23.148  0.00  0.00    +0.139 A 
ATOM      4  C   UNL     1       4.153   1.065  22.815  0.00  0.00    +0.037 A 
ATOM      5  C   UNL     1       3.371   0.901  22.606  0.00  0.00    +0.008 A 
ATOM      6  C   UNL     1       3.060   0.147  22.732  0.00  0.00    +0.055 A 
ATOM      7  C   UNL     1       3.531  -0.443  23.066  0.00  0.00    +0.008 A 
ATOM      8  C   UNL     1       4.312  -0.278  23.274  0.00  0.00    +0.037 A 
BRANCH   3   2
ATOM      1  C   UNL     1       5.808   0.137  23.871  0.00  0.00    +0.252 C 
ATOM      2  O   UNL     1       5.403   0.640  23.357  0.00  0.00    -0.471 OA
ENDBRANCH   3   2
ENDBRANCH   9   6
ENDBRANCH  12  11
ENDBRANCH  13  12
BRANCH  15  16
ATOM     16  C   UNL     1      -1.165   1.117  24.423  0.00  0.00    +0.117 C 
BRANCH  16  17
ATOM     17  C   UNL     1      -1.633   1.551  23.900  0.00  0.00    +0.228 C 
ATOM     18  O   UNL     1      -1.420   1.604  23.104  0.00  0.00    -0.275 OA
ATOM     19  N   UNL     1      -2.312   1.932  24.171  0.00  0.00    -0.276 N 
ATOM     20  C   UNL     1      -2.780   2.365  23.648  0.00  0.00    +0.115 C 
ATOM     21  C   UNL     1      -3.459   2.746  23.919  0.00  0.00    +0.112 C 
ATOM     22  N   UNL     1      -3.672   2.693  24.715  0.00  0.00    -0.304 N 
ATOM     23  C   UNL     1      -3.204   2.259  25.238  0.00  0.00    +0.112 C 
ATOM     24  C   UNL     1      -2.525   1.879  24.967  0.00  0.00    +0.115 C 
BRANCH  22  25
ATOM     25  C   UNL     1      -4.351   3.074  24.986  0.00  0.00    +0.048 A 
ATOM     26  C   UNL     1      -5.040   2.641  25.123  0.00  0.00    +0.017 A 
ATOM     27  C   UNL     1      -5.719   3.023  25.395  0.00  0.00    +0.031 A 
ATOM     28  C   UNL     1      -5.709   3.836  25.529  0.00  0.00    +0.140 A 
ATOM     29  F   UNL     1      -6.389   4.218  25.801  0.00  0.00    -0.204 F 
ATOM     30  C   UNL     1      -5.021   4.270  25.392  0.00  0.00    +0.031 A 
ATOM     31  C   UNL     1      -4.342   3.888  25.120  0.00  0.00    +0.017 A 
ENDBRANCH  22  25
ENDBRANCH  16  17
ENDBRANCH  15  16
TORSDOF 7
ENDMDL
MODEL 8
REMARK VINA RESULT:      -8.7     16.343     18.581
REMARK  Name = 
REMARK  7 active torsions:
REMARK  status: ('A' for Active; 'I' for Inactive)
REMARK    1  A    between atoms: O_2  and  C_3
REMARK    2  A    between atoms: C_6  and  C_9
REMARK    3  A    between atoms: N_11  and  C_12
REMARK    4  A    between atoms: C_12  and  C_13
REMARK    5  A    between atoms: C_15  and  C_16
REMARK    6  A    between atoms: C_16  and  C_17
REMARK    7  A    between atoms: N_22  and  C_25
REMARK                            x       y       z     vdW  Elec       q    Type
REMARK                         _______ _______ _______ _____ _____    ______ ____
ROOT
ATOM     13  C   UNL     1      12.235   8.516  17.522  0.00  0.00    +0.170 C 
ATOM     14  O   UNL     1      12.982   8.291  17.789  0.00  0.00    -0.351 OA
ATOM     15  C   UNL     1      13.519   8.402  17.173  0.00  0.00    +0.157 C 
ATOM     32  C   UNL     1      13.104   8.696  16.523  0.00  0.00    +0.212 C 
ATOM     33  O   UNL     1      13.425   8.886  15.788  0.00  0.00    -0.218 OA
ATOM     34  C   UNL     1      12.310   8.767  16.739  0.00  0.00    +0.213 C 
ATOM     35  O   UNL     1      11.700   9.040  16.257  0.00  0.00    -0.218 OA
ENDROOT
BRANCH  13  12
ATOM     12  C   UNL     1      11.536   8.495  17.959  0.00  0.00    +0.148 C 
BRANCH  12  11
ATOM      9  C   UNL     1      10.880   8.500  19.227  0.00  0.00    +0.265 C 
ATOM     10  O   UNL     1      10.165   8.684  18.858  0.00  0.00    -0.268 OA
ATOM     11  N   UNL     1      11.564   8.406  18.779  0.00  0.00    -0.199 NA
BRANCH   9   6
ATOM      3  C   UNL     1      10.965   8.231  21.687  0.00  0.00    +0.139 A 
ATOM      4  C   UNL     1      11.033   8.981  21.352  0.00  0.00    +0.037 A 
ATOM      5  C   UNL     1      11.004   9.071  20.532  0.00  0.00    +0.008 A 
ATOM      6  C   UNL     1      10.908   8.410  20.048  0.00  0.00    +0.055 A 
ATOM      7  C   UNL     1      10.841   7.659  20.383  0.00  0.00    +0.008 A 
ATOM      8  C   UNL     1      10.869   7.570  21.203  0.00  0.00    +0.037 A 
BRANCH   3   2
ATOM      1  C   UNL     1      10.579   8.662  22.994  0.00  0.00    +0.252 C 
ATOM      2  O   UNL     1      10.994   8.141  22.506  0.00  0.00    -0.471 OA
ENDBRANCH   3   2
ENDBRANCH   9   6
ENDBRANCH  12  11
ENDBRANCH  13  12
BRANCH  15  16
ATOM     16  C   UNL     1      14.328   8.246  17.201  0.00  0.00    +0.117 C 
BRANCH  16  17
ATOM     17  C   UNL     1      14.596   7.482  17.363  0.00  0.00    +0.228 C 
ATOM     18  O   UNL     1      14.463   6.874  16.821  0.00  0.00    -0.275 OA
ATOM     19  N   UNL     1      14.998   7.327  18.067  0.00  0.00    -0.276 N 
ATOM     20  C   UNL     1      15.266   6.564  18.229  0.00  0.00    +0.115 C 
ATOM     21  C   UNL     1      15.667   6.408  18.933  0.00  0.00    +0.112 C 
ATOM     22  N   UNL     1      15.801   7.016  19.475  0.00  0.00    -0.304 N 
ATOM     23  C   UNL     1      15.532   7.780  19.312  0.00  0.00    +0.112 C 
ATOM     24  C   UNL     1      15.131   7.935  18.608  0.00  0.00    +0.115 C 
BRANCH  22  25
ATOM     25  C   UNL     1      16.202   6.861  20.178  0.00  0.00    +0.048 A 
ATOM     26  C   UNL     1      16.982   7.112  20.273  0.00  0.00    +0.017 A 
ATOM     27  C   UNL     1      17.383   6.956  20.977  0.00  0.00    +0.031 A 
ATOM     28  C   UNL     1      17.004   6.549  21.586  0.00  0.00    +0.140 A 
ATOM     29  F   UNL     1      17.405   6.393  22.290  0.00  0.00    -0.204 F 
ATOM     30  C   UNL     1      16.224   6.298  21.492  0.00  0.00    +0.031 A 
ATOM     31  C   UNL     1      15.823   6.454  20.788  0.00  0.00    +0.017 A 
ENDBRANCH  22  25
ENDBRANCH  16  17
ENDBRANCH  15  16
TORSDOF 7
ENDMDL
MODEL 9
REMARK VINA RESULT:      -8.0     16.237     18.715
REMARK  Name = 
REMARK  7 active torsions:
REMARK  status: ('A' for Active; 'I' for Inactive)
REMARK    1  A    between atoms: O_2  and  C_3
REMARK    2  A    between atoms: C_6  and  C_9
REMARK    3  A    between atoms: N_11  and  C_12
REMARK    4  A    between atoms: C_12  and  C_13
REMARK    5  A    between atoms: C_15  and  C_16
REMARK    6  A    between atoms: C_16  and  C_17
REMARK    7  A    between atoms: N_22  and  C_25
REMARK                            x       y       z     vdW  Elec       q    Type
REMARK                         _______ _______ _______ _____ _____    ______ ____
ROOT
ATOM     13  C   UNL     1      15.619   6.883  19.143  0.00  0.00    +0.170 C 
ATOM     14  O   UNL     1      15.255   7.223  19.800  0.00  0.00    -0.351 OA
ATOM     15  C   UNL     1      15.638   6.946  20.477  0.00  0.00    +0.157 C 
ATOM     32  C   UNL     1      16.239   6.433  20.237  0.00  0.00    +0.212 C 
ATOM     33  O   UNL     1      16.760   6.031  20.734  0.00  0.00    -0.218 OA
ATOM     34  C   UNL     1      16.227   6.394  19.413  0.00  0.00    +0.213 C 
ATOM     35  O   UNL     1      16.734   5.946  18.942  0.00  0.00    -0.218 OA
ENDROOT
BRANCH  13  12
ATOM     12  C   UNL     1      15.412   7.008  18.354  0.00  0.00    +0.148 C 
BRANCH  12  11
ATOM      9  C   UNL     1      14.416   7.397  17.408  0.00  0.00    +0.265 C 
ATOM     10  O   UNL     1      14.784   6.939  16.830  0.00  0.00    -0.268 OA
ATOM     11  N   UNL     1      14.729   7.432  18.169  0.00  0.00    -0.199 NA
BRANCH   9   6
ATOM      3  C   UNL     1      12.365   8.670  16.854  0.00  0.00    +0.139 A 
ATOM      4  C   UNL     1      13.091   8.899  16.537  0.00  0.00    +0.037 A 
ATOM      5  C   UNL     1      13.775   8.475  16.721  0.00  0.00    +0.008 A 
ATOM      6  C   UNL     1      13.732   7.822  17.223  0.00  0.00    +0.055 A 
ATOM      7  C   UNL     1      13.005   7.592  17.540  0.00  0.00    +0.008 A 
ATOM      8  C   UNL     1      12.322   8.016  17.355  0.00  0.00    +0.037 A 
BRANCH   3   2
ATOM      1  C   UNL     1      11.246   8.902  15.996  0.00  0.00    +0.252 C 
ATOM      2  O   UNL     1      11.683   9.094  16.670  0.00  0.00    -0.471 OA
ENDBRANCH   3   2
ENDBRANCH   9   6
ENDBRANCH  12  11
ENDBRANCH  13  12
BRANCH  15  16
ATOM     16  C   UNL     1      15.453   7.146  21.255  0.00  0.00    +0.117 C 
BRANCH  16  17
ATOM     17  C   UNL     1      15.212   7.914  21.438  0.00  0.00    +0.228 C 
ATOM     18  O   UNL     1      15.765   8.525  21.457  0.00  0.00    -0.275 OA
ATOM     19  N   UNL     1      14.419   8.070  21.602  0.00  0.00    -0.276 N 
ATOM     20  C   UNL     1      14.178   8.837  21.785  0.00  0.00    +0.115 C 
ATOM     21  C   UNL     1      13.385   8.993  21.949  0.00  0.00    +0.112 C 
ATOM     22  N   UNL     1      12.832   8.381  21.930  0.00  0.00    -0.304 N 
ATOM     23  C   UNL     1      13.073   7.613  21.747  0.00  0.00    +0.112 C 
ATOM     24  C   UNL     1      13.866   7.457  21.583  0.00  0.00    +0.115 C 
BRANCH  22  25
ATOM     25  C   UNL     1      12.039   8.537  22.094  0.00  0.00    +0.048 A 
ATOM     26  C   UNL     1      11.831   8.938  22.784  0.00  0.00    +0.017 A 
ATOM     27  C   UNL     1      11.037   9.094  22.947  0.00  0.00    +0.031 A 
ATOM     28  C   UNL     1      10.452   8.848  22.421  0.00  0.00    +0.140 A 
ATOM     29  F   UNL     1       9.658   9.004  22.584  0.00  0.00    -0.204 F 
ATOM     30  C   UNL     1      10.659   8.447  21.730  0.00  0.00    +0.031 A 
ATOM     31  C   UNL     1      11.453   8.291  21.567  0.00  0.00    +0.017 A 
ENDBRANCH  22  25
ENDBRANCH  16  17
ENDBRANCH  15  16
TORSDOF 7
ENDMDL
