MODEL 1
REMARK VINA RESULT:      -9.5      0.000      0.000
REMARK  Name = 
REMARK  3 active torsions:
REMARK  status: ('A' for Active; 'I' for Inactive)
REMARK    1  A    between atoms: C_2  and  N_3
REMARK    2  A    between atoms: C_11  and  O_13
REMARK    3  A    between atoms: O_13  and  C_14
REMARK                            x       y       z     vdW  Elec       q    Type
REMARK                         _______ _______ _______ _____ _____    ______ ____
ROOT
ATOM      3  N   UNL     1      -2.327   3.590  24.857  0.00  0.00    -0.188 NA
ATOM      4  C   UNL     1      -2.842   2.961  25.006  0.00  0.00    +0.323 C 
ATOM      5  O   UNL     1      -3.272   2.939  25.710  0.00  0.00    -0.251 OA
ATOM      6  N   UNL     1      -2.927   2.357  24.451  0.00  0.00    -0.257 N 
ATOM      7  C   UNL     1      -2.472   2.433  23.766  0.00  0.00    +0.127 C 
ATOM      8  C   UNL     1      -2.434   1.926  23.116  0.00  0.00    +0.164 C 
ATOM      9  O   UNL     1      -2.841   1.219  22.990  0.00  0.00    -0.348 OA
ATOM     10  C   UNL     1      -3.385   0.845  23.482  0.00  0.00    +0.187 C 
ATOM     11  C   UNL     1      -3.659   1.083  24.223  0.00  0.00    +0.215 C 
ATOM     12  C   UNL     1      -3.455   1.757  24.655  0.00  0.00    +0.141 C 
ENDROOT
BRANCH   3   2
ATOM      1  C   UNL     1      -1.696   4.798  25.282  0.00  0.00    +0.025 C 
ATOM      2  C   UNL     1      -2.243   4.194  25.411  0.00  0.00    +0.117 C 
ENDBRANCH   3   2
BRANCH  11  13
ATOM     13  O   UNL     1      -4.209   0.583  24.580  0.00  0.00    -0.475 OA
BRANCH  13  14
ATOM     14  C   UNL     1      -4.006  -0.199  24.749  0.00  0.00    +0.139 A 
ATOM     15  C   UNL     1      -3.628  -0.383  25.460  0.00  0.00    +0.037 A 
ATOM     16  C   UNL     1      -3.425  -1.164  25.629  0.00  0.00    +0.003 A 
ATOM     17  C   UNL     1      -3.601  -1.762  25.088  0.00  0.00    +0.000 A 
ATOM     18  C   UNL     1      -3.978  -1.579  24.378  0.00  0.00    +0.003 A 
ATOM     19  C   UNL     1      -4.181  -0.797  24.209  0.00  0.00    +0.037 A 
ENDBRANCH  13  14
ENDBRANCH  11  13
TORSDOF 3
ENDMDL
MODEL 2
REMARK VINA RESULT:      -9.4      1.801      2.127
REMARK  Name = 
REMARK  3 active torsions:
REMARK  status: ('A' for Active; 'I' for Inactive)
REMARK    1  A    between atoms: C_2  and  N_3
REMARK    2  A    between atoms: C_11  and  O_13
REMARK    3  A    between atoms: O_13  and  C_14
REMARK                            x       y       z     vdW  Elec       q    Type
REMARK                         _______ _______ _______ _____ _____    ______ ____
ROOT
ATOM      3  N   UNL     1      -1.264   2.148  24.768  0.00  0.00    -0.188 NA
ATOM      4  C   UNL     1      -1.838   1.592  24.974  0.00  0.00    +0.323 C 
ATOM      5  O   UNL     1      -2.604   1.839  25.156  0.00  0.00    -0.251 OA
ATOM      6  N   UNL     1      -1.645   0.790  25.000  0.00  0.00    -0.257 N 
ATOM      7  C   UNL     1      -0.864   0.603  24.809  0.00  0.00    +0.127 C 
ATOM      8  C   UNL     1      -0.505  -0.139  24.784  0.00  0.00    +0.164 C 
ATOM      9  O   UNL     1      -0.838  -0.877  24.943  0.00  0.00    -0.348 OA
ATOM     10  C   UNL     1      -1.611  -1.055  25.167  0.00  0.00    +0.187 C 
ATOM     11  C   UNL     1      -2.244  -0.540  25.287  0.00  0.00    +0.215 C 
ATOM     12  C   UNL     1      -2.259   0.282  25.213  0.00  0.00    +0.141 C 
ENDROOT
BRANCH   3   2
ATOM      1  C   UNL     1      -0.859   3.515  24.676  0.00  0.00    +0.025 C 
ATOM      2  C   UNL     1      -1.456   2.950  24.742  0.00  0.00    +0.117 C 
ENDBRANCH   3   2
BRANCH  11  13
ATOM     13  O   UNL     1      -2.955  -0.892  25.511  0.00  0.00    -0.475 OA
BRANCH  13  14
ATOM     14  C   UNL     1      -3.352  -1.390  24.987  0.00  0.00    +0.139 A 
ATOM     15  C   UNL     1      -3.874  -1.073  24.431  0.00  0.00    +0.037 A 
ATOM     16  C   UNL     1      -4.270  -1.572  23.906  0.00  0.00    +0.003 A 
ATOM     17  C   UNL     1      -4.145  -2.387  23.937  0.00  0.00    +0.000 A 
ATOM     18  C   UNL     1      -3.623  -2.703  24.492  0.00  0.00    +0.003 A 
ATOM     19  C   UNL     1      -3.227  -2.205  25.017  0.00  0.00    +0.037 A 
ENDBRANCH  13  14
ENDBRANCH  11  13
TORSDOF 3
ENDMDL
MODEL 3
REMARK VINA RESULT:      -9.3      1.280      4.315
REMARK  Name = 
REMARK  3 active torsions:
REMARK  status: ('A' for Active; 'I' for Inactive)
REMARK    1  A    between atoms: C_2  and  N_3
REMARK    2  A    between atoms: C_11  and  O_13
REMARK    3  A    between atoms: O_13  and  C_14
REMARK                            x       y       z     vdW  Elec       q    Type
REMARK                         _______ _______ _______ _____ _____    ______ ____
ROOT
ATOM      3  N   UNL     1      -3.743   0.406  24.309  0.00  0.00    -0.188 NA
ATOM      4  C   UNL     1      -3.290   0.943  24.742  0.00  0.00    +0.323 C 
ATOM      5  O   UNL     1      -2.636   0.678  25.171  0.00  0.00    -0.251 OA
ATOM      6  N   UNL     1      -3.490   1.744  24.746  0.00  0.00    -0.257 N 
ATOM      7  C   UNL     1      -4.153   1.949  24.300  0.00  0.00    +0.127 C 
ATOM      8  C   UNL     1      -4.489   2.695  24.194  0.00  0.00    +0.164 C 
ATOM      9  O   UNL     1      -4.246   3.419  24.507  0.00  0.00    -0.348 OA
ATOM     10  C   UNL     1      -3.607   3.575  25.004  0.00  0.00    +0.187 C 
ATOM     11  C   UNL     1      -3.052   3.047  25.311  0.00  0.00    +0.215 C 
ATOM     12  C   UNL     1      -3.000   2.232  25.196  0.00  0.00    +0.141 C 
ENDROOT
BRANCH   3   2
ATOM      1  C   UNL     1      -4.058  -0.945  23.970  0.00  0.00    +0.025 C 
ATOM      2  C   UNL     1      -3.543  -0.394  24.305  0.00  0.00    +0.117 C 
ENDBRANCH   3   2
BRANCH  11  13
ATOM     13  O   UNL     1      -2.474   3.378  25.796  0.00  0.00    -0.475 OA
BRANCH  13  14
ATOM     14  C   UNL     1      -1.907   3.886  25.475  0.00  0.00    +0.139 A 
ATOM     15  C   UNL     1      -2.047   4.699  25.453  0.00  0.00    +0.037 A 
ATOM     16  C   UNL     1      -1.481   5.206  25.133  0.00  0.00    +0.003 A 
ATOM     17  C   UNL     1      -0.775   4.900  24.834  0.00  0.00    +0.000 A 
ATOM     18  C   UNL     1      -0.635   4.088  24.856  0.00  0.00    +0.003 A 
ATOM     19  C   UNL     1      -1.202   3.581  25.177  0.00  0.00    +0.037 A 
ENDBRANCH  13  14
ENDBRANCH  11  13
TORSDOF 3
ENDMDL
MODEL 4
REMARK VINA RESULT:      -9.2      1.823      4.011
REMARK  Name = 
REMARK  3 active torsions:
REMARK  status: ('A' for Active; 'I' for Inactive)
REMARK    1  A    between atoms: C_2  and  N_3
REMARK    2  A    between atoms: C_11  and  O_13
REMARK    3  A    between atoms: O_13  and  C_14
REMARK                            x       y       z     vdW  Elec       q    Type
REMARK                         _______ _______ _______ _____ _____    ______ ____
ROOT
ATOM      3  N   UNL     1      -3.349  -1.572  24.520  0.00  0.00    -0.188 NA
ATOM      4  C   UNL     1      -3.738  -0.872  24.319  0.00  0.00    +0.323 C 
ATOM      5  O   UNL     1      -4.489  -0.900  23.978  0.00  0.00    -0.251 OA
ATOM      6  N   UNL     1      -3.375  -0.144  24.460  0.00  0.00    -0.257 N 
ATOM      7  C   UNL     1      -2.625  -0.178  24.803  0.00  0.00    +0.127 C 
ATOM      8  C   UNL     1      -2.127   0.446  25.009  0.00  0.00    +0.164 C 
ATOM      9  O   UNL     1      -2.254   1.257  24.924  0.00  0.00    -0.348 OA
ATOM     10  C   UNL     1      -2.911   1.644  24.612  0.00  0.00    +0.187 C 
ATOM     11  C   UNL     1      -3.604   1.317  24.306  0.00  0.00    +0.215 C 
ATOM     12  C   UNL     1      -3.811   0.520  24.239  0.00  0.00    +0.141 C 
ENDROOT
BRANCH   3   2
ATOM      1  C   UNL     1      -3.357  -2.995  24.646  0.00  0.00    +0.025 C 
ATOM      2  C   UNL     1      -3.712  -2.300  24.379  0.00  0.00    +0.117 C 
ENDBRANCH   3   2
BRANCH  11  13
ATOM     13  O   UNL     1      -4.165   1.856  24.033  0.00  0.00    -0.475 OA
BRANCH  13  14
ATOM     14  C   UNL     1      -4.581   2.325  24.569  0.00  0.00    +0.139 A 
ATOM     15  C   UNL     1      -4.300   3.077  24.765  0.00  0.00    +0.037 A 
ATOM     16  C   UNL     1      -4.717   3.546  25.301  0.00  0.00    +0.003 A 
ATOM     17  C   UNL     1      -5.414   3.263  25.640  0.00  0.00    +0.000 A 
ATOM     18  C   UNL     1      -5.695   2.514  25.444  0.00  0.00    +0.003 A 
ATOM     19  C   UNL     1      -5.278   2.044  24.908  0.00  0.00    +0.037 A 
ENDBRANCH  13  14
ENDBRANCH  11  13
TORSDOF 3
ENDMDL
MODEL 5
REMARK VINA RESULT:      -8.8      2.400      4.586
REMARK  Name = 
REMARK  3 active torsions:
REMARK  status: ('A' for Active; 'I' for Inactive)
REMARK    1  A    between atoms: C_2  and  N_3
REMARK    2  A    between atoms: C_11  and  O_13
REMARK    3  A    between atoms: O_13  and  C_14
REMARK                            x       y       z     vdW  Elec       q    Type
REMARK                         _______ _______ _______ _____ _____    ______ ____
ROOT
ATOM      3  N   UNL     1      -1.391  -0.818  24.724  0.00  0.00    -0.188 NA
ATOM      4  C   UNL     1      -1.358  -0.116  25.157  0.00  0.00    +0.323 C 
ATOM      5  O   UNL     1      -1.818  -0.029  25.837  0.00  0.00    -0.251 OA
ATOM      6  N   UNL     1      -0.865   0.499  24.911  0.00  0.00    -0.257 N 
ATOM      7  C   UNL     1      -0.430   0.355  24.225  0.00  0.00    +0.127 C 
ATOM      8  C   UNL     1       0.105   0.853  23.842  0.00  0.00    +0.164 C 
ATOM      9  O   UNL     1       0.336   1.618  24.050  0.00  0.00    -0.348 OA
ATOM     10  C   UNL     1       0.089   2.072  24.692  0.00  0.00    +0.187 C 
ATOM     11  C   UNL     1      -0.449   1.876  25.286  0.00  0.00    +0.215 C 
ATOM     12  C   UNL     1      -0.875   1.175  25.383  0.00  0.00    +0.141 C 
ENDROOT
BRANCH   3   2
ATOM      1  C   UNL     1      -1.839  -2.168  24.601  0.00  0.00    +0.025 C 
ATOM      2  C   UNL     1      -1.883  -1.432  24.971  0.00  0.00    +0.117 C 
ENDBRANCH   3   2
BRANCH  11  13
ATOM     13  O   UNL     1      -0.580   2.456  25.857  0.00  0.00    -0.475 OA
BRANCH  13  14
ATOM     14  C   UNL     1      -0.994   3.142  25.661  0.00  0.00    +0.139 A 
ATOM     15  C   UNL     1      -0.602   3.771  25.298  0.00  0.00    +0.037 A 
ATOM     16  C   UNL     1      -1.016   4.457  25.102  0.00  0.00    +0.003 A 
ATOM     17  C   UNL     1      -1.822   4.514  25.268  0.00  0.00    +0.000 A 
ATOM     18  C   UNL     1      -2.214   3.885  25.630  0.00  0.00    +0.003 A 
ATOM     19  C   UNL     1      -1.800   3.199  25.826  0.00  0.00    +0.037 A 
ENDBRANCH  13  14
ENDBRANCH  11  13
TORSDOF 3
ENDMDL
