MODEL 1
REMARK VINA RESULT:      -9.4      0.000      0.000
REMARK  Name = 
REMARK  2 active torsions:
REMARK  status: ('A' for Active; 'I' for Inactive)
REMARK    1  A    between atoms: C_7  and  C_8
REMARK    2  A    between atoms: C_10  and  C_13
REMARK                            x       y       z     vdW  Elec       q    Type
REMARK                         _______ _______ _______ _____ _____    ______ ____
ROOT
ATOM      8  C   UNL     1      -4.332   1.203  24.646  0.00  0.00    +0.156 A 
ATOM      9  N   UNL     1      -4.396   0.439  24.948  0.00  0.00    -0.228 NA
ATOM     10  C   UNL     1      -3.941  -0.061  24.474  0.00  0.00    +0.102 A 
ATOM     11  C   UNL     1      -3.596   0.396  23.880  0.00  0.00    +0.119 A 
ATOM     12  N   UNL     1      -3.838   1.178  23.986  0.00  0.00    -0.226 NA
ENDROOT
BRANCH   8   7
ATOM      1  C   UNL     1      -3.419   2.490  25.135  0.00  0.00    +0.090 C 
ATOM      2  N   UNL     1      -4.241   2.520  25.196  0.00  0.00    -0.262 NA
ATOM      3  C   UNL     1      -4.607   3.194  25.501  0.00  0.00    +0.105 C 
ATOM      4  C   UNL     1      -5.430   3.225  25.562  0.00  0.00    +0.160 C 
ATOM      5  O   UNL     1      -5.886   2.582  25.317  0.00  0.00    -0.350 OA
ATOM      6  C   UNL     1      -5.520   1.909  25.012  0.00  0.00    +0.166 C 
ATOM      7  C   UNL     1      -4.698   1.878  24.952  0.00  0.00    +0.147 C 
ENDBRANCH   8   7
BRANCH  10  13
ATOM     13  C   UNL     1      -3.848  -0.874  24.576  0.00  0.00    +0.022 A 
ATOM     14  C   UNL     1      -3.498  -1.165  25.265  0.00  0.00    +0.022 A 
ATOM     15  C   UNL     1      -3.405  -1.979  25.367  0.00  0.00    +0.099 A 
ATOM     16  N   UNL     1      -3.660  -2.500  24.782  0.00  0.00    -0.242 NA
ATOM     17  C   UNL     1      -4.010  -2.209  24.093  0.00  0.00    +0.099 A 
ATOM     18  C   UNL     1      -4.104  -1.395  23.991  0.00  0.00    +0.022 A 
ENDBRANCH  10  13
TORSDOF 2
ENDMDL
MODEL 2
REMARK VINA RESULT:      -9.0      1.425      3.919
REMARK  Name = 
REMARK  2 active torsions:
REMARK  status: ('A' for Active; 'I' for Inactive)
REMARK    1  A    between atoms: C_7  and  C_8
REMARK    2  A    between atoms: C_10  and  C_13
REMARK                            x       y       z     vdW  Elec       q    Type
REMARK                         _______ _______ _______ _____ _____    ______ ____
ROOT
ATOM      8  C   UNL     1      -3.876  -0.222  24.404  0.00  0.00    +0.156 A 
ATOM      9  N   UNL     1      -4.421   0.240  24.815  0.00  0.00    -0.228 NA
ATOM     10  C   UNL     1      -4.276   1.030  24.629  0.00  0.00    +0.102 A 
ATOM     11  C   UNL     1      -3.641   1.056  24.102  0.00  0.00    +0.119 A 
ATOM     12  N   UNL     1      -3.394   0.281  23.964  0.00  0.00    -0.226 NA
ENDROOT
BRANCH   8   7
ATOM      1  C   UNL     1      -2.903  -0.953  25.521  0.00  0.00    +0.090 C 
ATOM      2  N   UNL     1      -3.336  -1.410  24.988  0.00  0.00    -0.262 NA
ATOM      3  C   UNL     1      -3.282  -2.233  25.013  0.00  0.00    +0.105 C 
ATOM      4  C   UNL     1      -3.714  -2.692  24.479  0.00  0.00    +0.160 C 
ATOM      5  O   UNL     1      -4.200  -2.327  23.922  0.00  0.00    -0.350 OA
ATOM      6  C   UNL     1      -4.254  -1.504  23.897  0.00  0.00    +0.166 C 
ATOM      7  C   UNL     1      -3.822  -1.046  24.429  0.00  0.00    +0.147 C 
ENDBRANCH   8   7
BRANCH  10  13
ATOM     13  C   UNL     1      -4.693   1.682  24.918  0.00  0.00    +0.022 A 
ATOM     14  C   UNL     1      -4.295   2.385  25.082  0.00  0.00    +0.022 A 
ATOM     15  C   UNL     1      -4.712   3.036  25.371  0.00  0.00    +0.099 A 
ATOM     16  N   UNL     1      -5.525   2.983  25.496  0.00  0.00    -0.242 NA
ATOM     17  C   UNL     1      -5.923   2.279  25.331  0.00  0.00    +0.099 A 
ATOM     18  C   UNL     1      -5.506   1.628  25.042  0.00  0.00    +0.022 A 
ENDBRANCH  10  13
TORSDOF 2
ENDMDL
MODEL 3
REMARK VINA RESULT:      -8.9      0.620      1.187
REMARK  Name = 
REMARK  2 active torsions:
REMARK  status: ('A' for Active; 'I' for Inactive)
REMARK    1  A    between atoms: C_7  and  C_8
REMARK    2  A    between atoms: C_10  and  C_13
REMARK                            x       y       z     vdW  Elec       q    Type
REMARK                         _______ _______ _______ _____ _____    ______ ____
ROOT
ATOM      8  C   UNL     1      -4.012   1.402  24.643  0.00  0.00    +0.156 A 
ATOM      9  N   UNL     1      -4.053   0.666  25.013  0.00  0.00    -0.228 NA
ATOM     10  C   UNL     1      -3.806   0.095  24.470  0.00  0.00    +0.102 A 
ATOM     11  C   UNL     1      -3.613   0.478  23.766  0.00  0.00    +0.119 A 
ATOM     12  N   UNL     1      -3.741   1.287  23.873  0.00  0.00    -0.226 NA
ENDROOT
BRANCH   8   7
ATOM      1  C   UNL     1      -5.598   1.836  24.804  0.00  0.00    +0.090 C 
ATOM      2  N   UNL     1      -5.002   2.344  25.064  0.00  0.00    -0.262 NA
ATOM      3  C   UNL     1      -5.199   3.069  25.405  0.00  0.00    +0.105 C 
ATOM      4  C   UNL     1      -4.603   3.578  25.666  0.00  0.00    +0.160 C 
ATOM      5  O   UNL     1      -3.812   3.360  25.586  0.00  0.00    -0.350 OA
ATOM      6  C   UNL     1      -3.615   2.635  25.245  0.00  0.00    +0.166 C 
ATOM      7  C   UNL     1      -4.210   2.127  24.985  0.00  0.00    +0.147 C 
ENDBRANCH   8   7
BRANCH  10  13
ATOM     13  C   UNL     1      -3.760  -0.718  24.608  0.00  0.00    +0.022 A 
ATOM     14  C   UNL     1      -4.027  -1.248  24.036  0.00  0.00    +0.022 A 
ATOM     15  C   UNL     1      -3.981  -2.061  24.174  0.00  0.00    +0.099 A 
ATOM     16  N   UNL     1      -3.669  -2.342  24.883  0.00  0.00    -0.242 NA
ATOM     17  C   UNL     1      -3.402  -1.811  25.456  0.00  0.00    +0.099 A 
ATOM     18  C   UNL     1      -3.448  -0.998  25.318  0.00  0.00    +0.022 A 
ENDBRANCH  10  13
TORSDOF 2
ENDMDL
MODEL 4
REMARK VINA RESULT:      -8.9      0.978      1.158
REMARK  Name = 
REMARK  2 active torsions:
REMARK  status: ('A' for Active; 'I' for Inactive)
REMARK    1  A    between atoms: C_7  and  C_8
REMARK    2  A    between atoms: C_10  and  C_13
REMARK                            x       y       z     vdW  Elec       q    Type
REMARK                         _______ _______ _______ _____ _____    ______ ____
ROOT
ATOM      8  C   UNL     1      -3.501   0.951  24.601  0.00  0.00    +0.156 A 
ATOM      9  N   UNL     1      -3.898   0.252  24.419  0.00  0.00    -0.228 NA
ATOM     10  C   UNL     1      -3.403  -0.379  24.613  0.00  0.00    +0.102 A 
ATOM     11  C   UNL     1      -2.700  -0.069  24.915  0.00  0.00    +0.119 A 
ATOM     12  N   UNL     1      -2.761   0.754  24.907  0.00  0.00    -0.226 NA
ENDROOT
BRANCH   8   7
ATOM      1  C   UNL     1      -2.916   1.897  23.380  0.00  0.00    +0.090 C 
ATOM      2  N   UNL     1      -3.500   2.188  23.884  0.00  0.00    -0.262 NA
ATOM      3  C   UNL     1      -3.792   2.953  23.778  0.00  0.00    +0.105 C 
ATOM      4  C   UNL     1      -4.377   3.245  24.282  0.00  0.00    +0.160 C 
ATOM      5  O   UNL     1      -4.669   2.772  24.891  0.00  0.00    -0.350 OA
ATOM      6  C   UNL     1      -4.377   2.008  24.998  0.00  0.00    +0.166 C 
ATOM      7  C   UNL     1      -3.793   1.717  24.494  0.00  0.00    +0.147 C 
ENDBRANCH   8   7
BRANCH  10  13
ATOM     13  C   UNL     1      -3.579  -1.180  24.522  0.00  0.00    +0.022 A 
ATOM     14  C   UNL     1      -3.260  -1.734  25.043  0.00  0.00    +0.022 A 
ATOM     15  C   UNL     1      -3.437  -2.535  24.952  0.00  0.00    +0.099 A 
ATOM     16  N   UNL     1      -3.932  -2.781  24.341  0.00  0.00    -0.242 NA
ATOM     17  C   UNL     1      -4.251  -2.227  23.819  0.00  0.00    +0.099 A 
ATOM     18  C   UNL     1      -4.075  -1.426  23.910  0.00  0.00    +0.022 A 
ENDBRANCH  10  13
TORSDOF 2
ENDMDL
MODEL 5
REMARK VINA RESULT:      -8.4      2.206      2.880
REMARK  Name = 
REMARK  2 active torsions:
REMARK  status: ('A' for Active; 'I' for Inactive)
REMARK    1  A    between atoms: C_7  and  C_8
REMARK    2  A    between atoms: C_10  and  C_13
REMARK                            x       y       z     vdW  Elec       q    Type
REMARK                         _______ _______ _______ _____ _____    ______ ____
ROOT
ATOM      8  C   UNL     1      -2.246   0.628  24.821  0.00  0.00    +0.156 A 
ATOM      9  N   UNL     1      -2.295  -0.176  24.646  0.00  0.00    -0.228 NA
ATOM     10  C   UNL     1      -3.087  -0.400  24.696  0.00  0.00    +0.102 A 
ATOM     11  C   UNL     1      -3.528   0.267  24.902  0.00  0.00    +0.119 A 
ATOM     12  N   UNL     1      -3.007   0.902  24.979  0.00  0.00    -0.226 NA
ENDROOT
BRANCH   8   7
ATOM      1  C   UNL     1      -1.892   1.635  23.561  0.00  0.00    +0.090 C 
ATOM      2  N   UNL     1      -1.378   1.583  24.205  0.00  0.00    -0.262 NA
ATOM      3  C   UNL     1      -0.688   2.035  24.219  0.00  0.00    +0.105 C 
ATOM      4  C   UNL     1      -0.174   1.983  24.863  0.00  0.00    +0.160 C 
ATOM      5  O   UNL     1      -0.351   1.479  25.492  0.00  0.00    -0.350 OA
ATOM      6  C   UNL     1      -1.041   1.028  25.478  0.00  0.00    +0.166 C 
ATOM      7  C   UNL     1      -1.554   1.080  24.835  0.00  0.00    +0.147 C 
ENDBRANCH   8   7
BRANCH  10  13
ATOM     13  C   UNL     1      -3.388  -1.158  24.564  0.00  0.00    +0.022 A 
ATOM     14  C   UNL     1      -3.936  -1.283  23.962  0.00  0.00    +0.022 A 
ATOM     15  C   UNL     1      -4.237  -2.041  23.829  0.00  0.00    +0.099 A 
ATOM     16  N   UNL     1      -3.988  -2.671  24.299  0.00  0.00    -0.242 NA
ATOM     17  C   UNL     1      -3.438  -2.545  24.902  0.00  0.00    +0.099 A 
ATOM     18  C   UNL     1      -3.138  -1.787  25.034  0.00  0.00    +0.022 A 
ENDBRANCH  10  13
TORSDOF 2
ENDMDL
MODEL 6
REMARK VINA RESULT:      -8.3      2.151      3.967
REMARK  Name = 
REMARK  2 active torsions:
REMARK  status: ('A' for Active; 'I' for Inactive)
REMARK    1  A    between atoms: C_7  and  C_8
REMARK    2  A    between atoms: C_10  and  C_13
REMARK                            x       y       z     vdW  Elec       q    Type
REMARK                         _______ _______ _______ _____ _____    ______ ____
ROOT
ATOM      8  C   UNL     1      -2.622   0.993  24.283  0.00  0.00    +0.156 A 
ATOM      9  N   UNL     1      -3.132   1.290  24.859  0.00  0.00    -0.228 NA
ATOM     10  C   UNL     1      -3.700   1.755  24.480  0.00  0.00    +0.102 A 
ATOM     11  C   UNL     1      -3.539   1.745  23.671  0.00  0.00    +0.119 A 
ATOM     12  N   UNL     1      -2.873   1.273  23.549  0.00  0.00    -0.226 NA
ENDROOT
BRANCH   8   7
ATOM      1  C   UNL     1      -1.089   1.590  24.147  0.00  0.00    +0.090 C 
ATOM      2  N   UNL     1      -1.208   0.799  24.350  0.00  0.00    -0.262 NA
ATOM      3  C   UNL     1      -0.559   0.307  24.485  0.00  0.00    +0.105 C 
ATOM      4  C   UNL     1      -0.677  -0.485  24.688  0.00  0.00    +0.160 C 
ATOM      5  O   UNL     1      -1.443  -0.783  24.756  0.00  0.00    -0.350 OA
ATOM      6  C   UNL     1      -2.092  -0.291  24.621  0.00  0.00    +0.166 C 
ATOM      7  C   UNL     1      -1.974   0.500  24.418  0.00  0.00    +0.147 C 
ENDBRANCH   8   7
BRANCH  10  13
ATOM     13  C   UNL     1      -4.319   2.160  24.847  0.00  0.00    +0.022 A 
ATOM     14  C   UNL     1      -5.049   1.790  24.948  0.00  0.00    +0.022 A 
ATOM     15  C   UNL     1      -5.668   2.195  25.315  0.00  0.00    +0.099 A 
ATOM     16  N   UNL     1      -5.556   2.967  25.579  0.00  0.00    -0.242 NA
ATOM     17  C   UNL     1      -4.825   3.337  25.478  0.00  0.00    +0.099 A 
ATOM     18  C   UNL     1      -4.206   2.932  25.112  0.00  0.00    +0.022 A 
ENDBRANCH  10  13
TORSDOF 2
ENDMDL
