MODEL 1
REMARK VINA RESULT:     -12.8      0.000      0.000
REMARK  Name = 
REMARK  5 active torsions:
REMARK  status: ('A' for Active; 'I' for Inactive)
REMARK    1  A    between atoms: C_2  and  C_3
REMARK    2  A    between atoms: C_2  and  C_22
REMARK    3  A    between atoms: C_10  and  N_11
REMARK    4  A    between atoms: C_12  and  C_14
REMARK    5  A    between atoms: N_24  and  C_25
REMARK                            x       y       z     vdW  Elec       q    Type
REMARK                         _______ _______ _______ _____ _____    ______ ____
ROOT
ATOM      3  C   UNL     1      -4.084   2.554  24.343  0.00  0.00    +0.039 C 
ATOM      4  C   UNL     1      -4.669   2.621  24.922  0.00  0.00    +0.003 C 
ATOM      5  C   UNL     1      -5.000   1.943  25.255  0.00  0.00    +0.000 C 
ATOM      6  C   UNL     1      -4.747   1.198  25.010  0.00  0.00    +0.002 C 
ATOM      7  C   UNL     1      -5.331   1.265  25.587  0.00  0.00    +0.000 C 
ATOM      8  C   UNL     1      -5.077   0.519  25.342  0.00  0.00    +0.002 C 
ATOM      9  C   UNL     1      -4.824  -0.226  25.097  0.00  0.00    +0.022 C 
ATOM     10  C   UNL     1      -4.239  -0.294  24.518  0.00  0.00    +0.095 C 
ATOM     17  C   UNL     1      -3.908   0.384  24.186  0.00  0.00    +0.022 C 
ATOM     18  C   UNL     1      -3.323   0.317  23.608  0.00  0.00    +0.002 C 
ATOM     19  C   UNL     1      -4.161   1.130  24.431  0.00  0.00    +0.032 C 
ATOM     20  C   UNL     1      -3.831   1.808  24.098  0.00  0.00    +0.152 C 
ATOM     21  O   UNL     1      -3.246   1.741  23.520  0.00  0.00    -0.223 OA
ENDROOT
BRANCH  10  11
ATOM     11  N   UNL     1      -3.985  -1.040  24.274  0.00  0.00    -0.207 NA
ATOM     12  C   UNL     1      -3.754  -1.601  24.831  0.00  0.00    +0.241 C 
ATOM     13  O   UNL     1      -3.776  -1.417  25.636  0.00  0.00    -0.273 OA
BRANCH  12  14
ATOM     14  C   UNL     1      -3.501  -2.348  24.587  0.00  0.00    +0.078 C 
ATOM     15  C   UNL     1      -3.641  -3.053  24.183  0.00  0.00    +0.010 C 
ATOM     16  C   UNL     1      -2.921  -2.934  24.568  0.00  0.00    +0.010 C 
ENDBRANCH  12  14
ENDBRANCH  10  11
BRANCH   3   2
ATOM      1  C   UNL     1      -4.003   3.491  23.268  0.00  0.00    +0.010 C 
ATOM      2  C   UNL     1      -3.753   3.232  24.011  0.00  0.00    +0.081 C 
BRANCH   2  22
ATOM     22  C   UNL     1      -3.172   3.653  24.419  0.00  0.00    +0.241 C 
ATOM     23  O   UNL     1      -3.361   4.035  25.127  0.00  0.00    -0.273 OA
ATOM     24  N   UNL     1      -2.404   3.691  24.123  0.00  0.00    -0.207 NA
BRANCH  24  25
ATOM     25  C   UNL     1      -1.825   4.111  24.531  0.00  0.00    +0.095 C 
ATOM     26  C   UNL     1      -1.877   4.932  24.596  0.00  0.00    +0.022 C 
ATOM     27  C   UNL     1      -1.297   5.352  25.005  0.00  0.00    +0.002 C 
ATOM     28  C   UNL     1      -0.663   4.951  25.350  0.00  0.00    +0.000 C 
ATOM     29  C   UNL     1      -0.610   4.131  25.286  0.00  0.00    +0.002 C 
ATOM     30  C   UNL     1      -1.190   3.710  24.877  0.00  0.00    +0.022 C 
ENDBRANCH  24  25
ENDBRANCH   2  22
ENDBRANCH   3   2
TORSDOF 5
ENDMDL
MODEL 2
REMARK VINA RESULT:     -12.6      2.273      5.996
REMARK  Name = 
REMARK  5 active torsions:
REMARK  status: ('A' for Active; 'I' for Inactive)
REMARK    1  A    between atoms: C_2  and  C_3
REMARK    2  A    between atoms: C_2  and  C_22
REMARK    3  A    between atoms: C_10  and  N_11
REMARK    4  A    between atoms: C_12  and  C_14
REMARK    5  A    between atoms: N_24  and  C_25
REMARK                            x       y       z     vdW  Elec       q    Type
REMARK                         _______ _______ _______ _____ _____    ______ ____
ROOT
ATOM      3  C   UNL     1      -0.800  -0.441  24.895  0.00  0.00    +0.039 C 
ATOM      4  C   UNL     1      -0.280  -0.532  24.259  0.00  0.00    +0.003 C 
ATOM      5  C   UNL     1       0.074   0.129  23.918  0.00  0.00    +0.000 C 
ATOM      6  C   UNL     1      -0.090   0.882  24.211  0.00  0.00    +0.002 C 
ATOM      7  C   UNL     1       0.429   0.791  23.577  0.00  0.00    +0.000 C 
ATOM      8  C   UNL     1       0.264   1.545  23.870  0.00  0.00    +0.002 C 
ATOM      9  C   UNL     1       0.100   2.298  24.162  0.00  0.00    +0.022 C 
ATOM     10  C   UNL     1      -0.420   2.389  24.797  0.00  0.00    +0.095 C 
ATOM     17  C   UNL     1      -0.775   1.728  25.138  0.00  0.00    +0.022 C 
ATOM     18  C   UNL     1      -1.294   1.819  25.773  0.00  0.00    +0.002 C 
ATOM     19  C   UNL     1      -0.610   0.974  24.846  0.00  0.00    +0.032 C 
ATOM     20  C   UNL     1      -0.964   0.312  25.187  0.00  0.00    +0.152 C 
ATOM     21  O   UNL     1      -1.484   0.404  25.821  0.00  0.00    -0.223 OA
ENDROOT
BRANCH  10  11
ATOM     11  N   UNL     1      -0.585   3.143  25.090  0.00  0.00    -0.207 NA
ATOM     12  C   UNL     1      -0.827   3.741  24.577  0.00  0.00    +0.241 C 
ATOM     13  O   UNL     1      -0.905   3.586  23.769  0.00  0.00    -0.273 OA
BRANCH  12  14
ATOM     14  C   UNL     1      -0.991   4.495  24.869  0.00  0.00    +0.078 C 
ATOM     15  C   UNL     1      -1.488   5.010  25.280  0.00  0.00    +0.010 C 
ATOM     16  C   UNL     1      -0.777   5.287  24.964  0.00  0.00    +0.010 C 
ENDBRANCH  12  14
ENDBRANCH  10  11
BRANCH   3   2
ATOM      1  C   UNL     1      -0.908  -1.366  25.978  0.00  0.00    +0.010 C 
ATOM      2  C   UNL     1      -1.154  -1.103  25.236  0.00  0.00    +0.081 C 
BRANCH   2  22
ATOM     22  C   UNL     1      -1.755  -1.504  24.836  0.00  0.00    +0.241 C 
ATOM     23  O   UNL     1      -1.573  -1.968  24.177  0.00  0.00    -0.273 OA
ATOM     24  N   UNL     1      -2.536  -1.440  25.092  0.00  0.00    -0.207 NA
BRANCH  24  25
ATOM     25  C   UNL     1      -3.135  -1.840  24.692  0.00  0.00    +0.095 C 
ATOM     26  C   UNL     1      -3.216  -2.657  24.777  0.00  0.00    +0.022 C 
ATOM     27  C   UNL     1      -3.815  -3.057  24.377  0.00  0.00    +0.002 C 
ATOM     28  C   UNL     1      -4.336  -2.640  23.891  0.00  0.00    +0.000 C 
ATOM     29  C   UNL     1      -4.256  -1.824  23.805  0.00  0.00    +0.002 C 
ATOM     30  C   UNL     1      -3.656  -1.423  24.205  0.00  0.00    +0.022 C 
ENDBRANCH  24  25
ENDBRANCH   2  22
ENDBRANCH   3   2
TORSDOF 5
ENDMDL
MODEL 3
REMARK VINA RESULT:     -12.4      0.830      5.148
REMARK  Name = 
REMARK  5 active torsions:
REMARK  status: ('A' for Active; 'I' for Inactive)
REMARK    1  A    between atoms: C_2  and  C_3
REMARK    2  A    between atoms: C_2  and  C_22
REMARK    3  A    between atoms: C_10  and  N_11
REMARK    4  A    between atoms: C_12  and  C_14
REMARK    5  A    between atoms: N_24  and  C_25
REMARK                            x       y       z     vdW  Elec       q    Type
REMARK                         _______ _______ _______ _____ _____    ______ ____
ROOT
ATOM      3  C   UNL     1      -3.995   0.825  24.119  0.00  0.00    +0.039 C 
ATOM      4  C   UNL     1      -4.644   0.952  24.614  0.00  0.00    +0.003 C 
ATOM      5  C   UNL     1      -4.729   1.674  25.003  0.00  0.00    +0.000 C 
ATOM      6  C   UNL     1      -4.168   2.268  24.898  0.00  0.00    +0.002 C 
ATOM      7  C   UNL     1      -4.815   2.396  25.392  0.00  0.00    +0.000 C 
ATOM      8  C   UNL     1      -4.253   2.991  25.288  0.00  0.00    +0.002 C 
ATOM      9  C   UNL     1      -3.691   3.585  25.183  0.00  0.00    +0.022 C 
ATOM     10  C   UNL     1      -3.042   3.457  24.688  0.00  0.00    +0.095 C 
ATOM     17  C   UNL     1      -2.957   2.735  24.298  0.00  0.00    +0.022 C 
ATOM     18  C   UNL     1      -2.309   2.608  23.804  0.00  0.00    +0.002 C 
ATOM     19  C   UNL     1      -3.519   2.140  24.403  0.00  0.00    +0.032 C 
ATOM     20  C   UNL     1      -3.434   1.419  24.014  0.00  0.00    +0.152 C 
ATOM     21  O   UNL     1      -2.786   1.291  23.519  0.00  0.00    -0.223 OA
ENDROOT
BRANCH  10  11
ATOM     11  N   UNL     1      -2.480   4.052  24.583  0.00  0.00    -0.207 NA
ATOM     12  C   UNL     1      -2.122   4.402  25.238  0.00  0.00    +0.241 C 
ATOM     13  O   UNL     1      -2.326   4.156  26.000  0.00  0.00    -0.273 OA
BRANCH  12  14
ATOM     14  C   UNL     1      -1.560   4.997  25.133  0.00  0.00    +0.078 C 
ATOM     15  C   UNL     1      -0.775   5.228  25.029  0.00  0.00    +0.010 C 
ATOM     16  C   UNL     1      -1.373   5.797  25.057  0.00  0.00    +0.010 C 
ENDBRANCH  12  14
ENDBRANCH  10  11
BRANCH   3   2
ATOM      1  C   UNL     1      -3.807   0.085  22.911  0.00  0.00    +0.010 C 
ATOM      2  C   UNL     1      -3.910   0.102  23.729  0.00  0.00    +0.081 C 
BRANCH   2  22
ATOM     22  C   UNL     1      -3.929  -0.603  24.157  0.00  0.00    +0.241 C 
ATOM     23  O   UNL     1      -4.634  -0.856  24.505  0.00  0.00    -0.273 OA
ATOM     24  N   UNL     1      -3.245  -1.056  24.237  0.00  0.00    -0.207 NA
BRANCH  24  25
ATOM     25  C   UNL     1      -3.264  -1.761  24.664  0.00  0.00    +0.095 C 
ATOM     26  C   UNL     1      -3.426  -2.473  24.280  0.00  0.00    +0.022 C 
ATOM     27  C   UNL     1      -3.445  -3.177  24.708  0.00  0.00    +0.002 C 
ATOM     28  C   UNL     1      -3.302  -3.171  25.521  0.00  0.00    +0.000 C 
ATOM     29  C   UNL     1      -3.140  -2.460  25.905  0.00  0.00    +0.002 C 
ATOM     30  C   UNL     1      -3.120  -1.754  25.478  0.00  0.00    +0.022 C 
ENDBRANCH  24  25
ENDBRANCH   2  22
ENDBRANCH   3   2
TORSDOF 5
ENDMDL
MODEL 4
REMARK VINA RESULT:     -11.4      1.951      2.579
REMARK  Name = 
REMARK  5 active torsions:
REMARK  status: ('A' for Active; 'I' for Inactive)
REMARK    1  A    between atoms: C_2  and  C_3
REMARK    2  A    between atoms: C_2  and  C_22
REMARK    3  A    between atoms: C_10  and  N_11
REMARK    4  A    between atoms: C_12  and  C_14
REMARK    5  A    between atoms: N_24  and  C_25
REMARK                            x       y       z     vdW  Elec       q    Type
REMARK                         _______ _______ _______ _____ _____    ______ ____
ROOT
ATOM      3  C   UNL     1      -0.762   1.273  24.884  0.00  0.00    +0.039 C 
ATOM      4  C   UNL     1      -0.477   0.996  25.608  0.00  0.00    +0.003 C 
ATOM      5  C   UNL     1      -0.811   0.326  25.953  0.00  0.00    +0.000 C 
ATOM      6  C   UNL     1      -1.428  -0.069  25.575  0.00  0.00    +0.002 C 
ATOM      7  C   UNL     1      -1.144  -0.345  26.297  0.00  0.00    +0.000 C 
ATOM      8  C   UNL     1      -1.762  -0.740  25.919  0.00  0.00    +0.002 C 
ATOM      9  C   UNL     1      -2.379  -1.135  25.541  0.00  0.00    +0.022 C 
ATOM     10  C   UNL     1      -2.664  -0.858  24.817  0.00  0.00    +0.095 C 
ATOM     17  C   UNL     1      -2.331  -0.187  24.472  0.00  0.00    +0.022 C 
ATOM     18  C   UNL     1      -2.615   0.089  23.749  0.00  0.00    +0.002 C 
ATOM     19  C   UNL     1      -1.713   0.208  24.850  0.00  0.00    +0.032 C 
ATOM     20  C   UNL     1      -1.379   0.878  24.506  0.00  0.00    +0.152 C 
ATOM     21  O   UNL     1      -1.664   1.155  23.782  0.00  0.00    -0.223 OA
ENDROOT
BRANCH  10  11
ATOM     11  N   UNL     1      -3.282  -1.253  24.439  0.00  0.00    -0.207 NA
ATOM     12  C   UNL     1      -3.300  -2.077  24.429  0.00  0.00    +0.241 C 
ATOM     13  O   UNL     1      -2.700  -2.508  24.798  0.00  0.00    -0.273 OA
BRANCH  12  14
ATOM     14  C   UNL     1      -3.918  -2.473  24.051  0.00  0.00    +0.078 C 
ATOM     15  C   UNL     1      -4.661  -2.461  23.692  0.00  0.00    +0.010 C 
ATOM     16  C   UNL     1      -4.244  -3.171  23.756  0.00  0.00    +0.010 C 
ENDBRANCH  12  14
ENDBRANCH  10  11
BRANCH   3   2
ATOM      1  C   UNL     1       0.082   1.867  23.895  0.00  0.00    +0.010 C 
ATOM      2  C   UNL     1      -0.428   1.944  24.539  0.00  0.00    +0.081 C 
BRANCH   2  22
ATOM     22  C   UNL     1      -0.603   2.693  24.837  0.00  0.00    +0.241 C 
ATOM     23  O   UNL     1      -0.302   2.926  25.570  0.00  0.00    -0.273 OA
ATOM     24  N   UNL     1      -1.079   3.210  24.405  0.00  0.00    -0.207 NA
BRANCH  24  25
ATOM     25  C   UNL     1      -1.254   3.958  24.704  0.00  0.00    +0.095 C 
ATOM     26  C   UNL     1      -1.956   4.084  25.119  0.00  0.00    +0.022 C 
ATOM     27  C   UNL     1      -2.131   4.832  25.417  0.00  0.00    +0.002 C 
ATOM     28  C   UNL     1      -1.602   5.456  25.301  0.00  0.00    +0.000 C 
ATOM     29  C   UNL     1      -0.901   5.331  24.887  0.00  0.00    +0.002 C 
ATOM     30  C   UNL     1      -0.726   4.582  24.588  0.00  0.00    +0.022 C 
ENDBRANCH  24  25
ENDBRANCH   2  22
ENDBRANCH   3   2
TORSDOF 5
ENDMDL
MODEL 5
REMARK VINA RESULT:     -11.0      2.627      4.116
REMARK  Name = 
REMARK  5 active torsions:
REMARK  status: ('A' for Active; 'I' for Inactive)
REMARK    1  A    between atoms: C_2  and  C_3
REMARK    2  A    between atoms: C_2  and  C_22
REMARK    3  A    between atoms: C_10  and  N_11
REMARK    4  A    between atoms: C_12  and  C_14
REMARK    5  A    between atoms: N_24  and  C_25
REMARK                            x       y       z     vdW  Elec       q    Type
REMARK                         _______ _______ _______ _____ _____    ______ ____
ROOT
ATOM      3  C   UNL     1      -3.346  -0.105  24.792  0.00  0.00    +0.039 C 
ATOM      4  C   UNL     1      -3.192  -0.549  25.471  0.00  0.00    +0.003 C 
ATOM      5  C   UNL     1      -2.416  -0.745  25.669  0.00  0.00    +0.000 C 
ATOM      6  C   UNL     1      -1.793  -0.497  25.190  0.00  0.00    +0.002 C 
ATOM      7  C   UNL     1      -1.641  -0.940  25.867  0.00  0.00    +0.000 C 
ATOM      8  C   UNL     1      -1.016  -0.693  25.388  0.00  0.00    +0.002 C 
ATOM      9  C   UNL     1      -0.393  -0.445  24.908  0.00  0.00    +0.022 C 
ATOM     10  C   UNL     1      -0.547  -0.001  24.229  0.00  0.00    +0.095 C 
ATOM     17  C   UNL     1      -1.322   0.194  24.030  0.00  0.00    +0.022 C 
ATOM     18  C   UNL     1      -1.475   0.638  23.352  0.00  0.00    +0.002 C 
ATOM     19  C   UNL     1      -1.947  -0.053  24.510  0.00  0.00    +0.032 C 
ATOM     20  C   UNL     1      -2.722   0.142  24.312  0.00  0.00    +0.152 C 
ATOM     21  O   UNL     1      -2.875   0.586  23.633  0.00  0.00    -0.223 OA
ENDROOT
BRANCH  10  11
ATOM     11  N   UNL     1       0.078   0.246  23.749  0.00  0.00    -0.207 NA
ATOM     12  C   UNL     1       0.654  -0.292  23.511  0.00  0.00    +0.241 C 
ATOM     13  O   UNL     1       0.608  -1.081  23.753  0.00  0.00    -0.273 OA
BRANCH  12  14
ATOM     14  C   UNL     1       1.279  -0.045  23.031  0.00  0.00    +0.078 C 
ATOM     15  C   UNL     1       1.959   0.408  22.921  0.00  0.00    +0.010 C 
ATOM     16  C   UNL     1       1.678  -0.070  22.309  0.00  0.00    +0.010 C 
ENDBRANCH  12  14
ENDBRANCH  10  11
BRANCH   3   2
ATOM      1  C   UNL     1      -4.517  -0.334  24.007  0.00  0.00    +0.010 C 
ATOM      2  C   UNL     1      -4.122   0.090  24.594  0.00  0.00    +0.081 C 
BRANCH   2  22
ATOM     22  C   UNL     1      -4.505   0.710  24.982  0.00  0.00    +0.241 C 
ATOM     23  O   UNL     1      -4.719   0.630  25.775  0.00  0.00    -0.273 OA
ATOM     24  N   UNL     1      -4.673   1.409  24.578  0.00  0.00    -0.207 NA
BRANCH  24  25
ATOM     25  C   UNL     1      -5.055   2.028  24.966  0.00  0.00    +0.095 C 
ATOM     26  C   UNL     1      -5.859   1.970  25.144  0.00  0.00    +0.022 C 
ATOM     27  C   UNL     1      -6.241   2.589  25.532  0.00  0.00    +0.002 C 
ATOM     28  C   UNL     1      -5.819   3.268  25.743  0.00  0.00    +0.000 C 
ATOM     29  C   UNL     1      -5.016   3.325  25.565  0.00  0.00    +0.002 C 
ATOM     30  C   UNL     1      -4.633   2.706  25.176  0.00  0.00    +0.022 C 
ENDBRANCH  24  25
ENDBRANCH   2  22
ENDBRANCH   3   2
TORSDOF 5
ENDMDL
MODEL 6
REMARK VINA RESULT:     -10.9      2.435      4.250
REMARK  Name = 
REMARK  5 active torsions:
REMARK  status: ('A' for Active; 'I' for Inactive)
REMARK    1  A    between atoms: C_2  and  C_3
REMARK    2  A    between atoms: C_2  and  C_22
REMARK    3  A    between atoms: C_10  and  N_11
REMARK    4  A    between atoms: C_12  and  C_14
REMARK    5  A    between atoms: N_24  and  C_25
REMARK                            x       y       z     vdW  Elec       q    Type
REMARK                         _______ _______ _______ _____ _____    ______ ____
ROOT
ATOM      3  C   UNL     1      -2.242   3.241  24.968  0.00  0.00    +0.039 C 
ATOM      4  C   UNL     1      -1.841   3.460  25.656  0.00  0.00    +0.003 C 
ATOM      5  C   UNL     1      -1.111   3.121  25.833  0.00  0.00    +0.000 C 
ATOM      6  C   UNL     1      -0.781   2.562  25.324  0.00  0.00    +0.002 C 
ATOM      7  C   UNL     1      -0.381   2.781  26.010  0.00  0.00    +0.000 C 
ATOM      8  C   UNL     1      -0.051   2.222  25.501  0.00  0.00    +0.002 C 
ATOM      9  C   UNL     1       0.279   1.663  24.992  0.00  0.00    +0.022 C 
ATOM     10  C   UNL     1      -0.123   1.444  24.305  0.00  0.00    +0.095 C 
ATOM     17  C   UNL     1      -0.853   1.784  24.127  0.00  0.00    +0.022 C 
ATOM     18  C   UNL     1      -1.253   1.564  23.440  0.00  0.00    +0.002 C 
ATOM     19  C   UNL     1      -1.183   2.343  24.637  0.00  0.00    +0.032 C 
ATOM     20  C   UNL     1      -1.913   2.682  24.459  0.00  0.00    +0.152 C 
ATOM     21  O   UNL     1      -2.313   2.463  23.772  0.00  0.00    -0.223 OA
ENDROOT
BRANCH  10  11
ATOM     11  N   UNL     1       0.208   0.885  23.795  0.00  0.00    -0.207 NA
ATOM     12  C   UNL     1       1.001   0.940  23.580  0.00  0.00    +0.241 C 
ATOM     13  O   UNL     1       1.467   1.556  23.873  0.00  0.00    -0.273 OA
BRANCH  12  14
ATOM     14  C   UNL     1       1.331   0.381  23.071  0.00  0.00    +0.078 C 
ATOM     15  C   UNL     1       1.246  -0.271  22.572  0.00  0.00    +0.010 C 
ATOM     16  C   UNL     1       1.991   0.066  22.687  0.00  0.00    +0.010 C 
ENDBRANCH  12  14
ENDBRANCH  10  11
BRANCH   3   2
ATOM      1  C   UNL     1      -3.022   4.178  24.223  0.00  0.00    +0.010 C 
ATOM      2  C   UNL     1      -2.973   3.581  24.791  0.00  0.00    +0.081 C 
BRANCH   2  22
ATOM     22  C   UNL     1      -3.653   3.326  25.181  0.00  0.00    +0.241 C 
ATOM     23  O   UNL     1      -3.741   3.465  25.991  0.00  0.00    -0.273 OA
ATOM     24  N   UNL     1      -4.246   2.933  24.764  0.00  0.00    -0.207 NA
BRANCH  24  25
ATOM     25  C   UNL     1      -4.926   2.678  25.154  0.00  0.00    +0.095 C 
ATOM     26  C   UNL     1      -5.452   3.230  25.471  0.00  0.00    +0.022 C 
ATOM     27  C   UNL     1      -6.132   2.975  25.861  0.00  0.00    +0.002 C 
ATOM     28  C   UNL     1      -6.287   2.167  25.935  0.00  0.00    +0.000 C 
ATOM     29  C   UNL     1      -5.762   1.616  25.619  0.00  0.00    +0.002 C 
ATOM     30  C   UNL     1      -5.081   1.870  25.229  0.00  0.00    +0.022 C 
ENDBRANCH  24  25
ENDBRANCH   2  22
ENDBRANCH   3   2
TORSDOF 5
ENDMDL
