MODEL 1
REMARK VINA RESULT:     -11.5      0.000      0.000
REMARK  Name = 
REMARK  1 active torsions:
REMARK  status: ('A' for Active; 'I' for Inactive)
REMARK    1  A    between atoms: N_6  and  C_17
REMARK                            x       y       z     vdW  Elec       q    Type
REMARK                         _______ _______ _______ _____ _____    ______ ____
ROOT
ATOM      1  O   UNL     1      -3.919   3.125  25.209  0.00  0.00    -0.252 OA
ATOM      2  C   UNL     1      -3.408   2.494  25.072  0.00  0.00    +0.312 C 
ATOM      3  N   UNL     1      -3.626   1.703  24.984  0.00  0.00    -0.261 N 
ATOM      4  C   UNL     1      -4.360   1.327  25.004  0.00  0.00    +0.112 C 
ATOM      5  C   UNL     1      -4.409   0.512  24.896  0.00  0.00    +0.094 C 
ATOM      6  N   UNL     1      -3.724   0.070  24.769  0.00  0.00    -0.271 NA
ATOM      7  C   UNL     1      -2.989   0.445  24.748  0.00  0.00    +0.094 C 
ATOM      8  C   UNL     1      -2.940   1.262  24.856  0.00  0.00    +0.113 C 
ATOM      9  C   UNL     1      -2.299   1.780  24.865  0.00  0.00    +0.122 C 
ATOM     10  N   UNL     1      -2.587   2.541  24.998  0.00  0.00    -0.226 N 
ATOM     11  C   UNL     1      -2.134   3.229  25.048  0.00  0.00    +0.139 A 
ATOM     12  N   UNL     1      -1.315   3.191  24.963  0.00  0.00    -0.229 NA
ATOM     13  C   UNL     1      -0.862   3.880  25.014  0.00  0.00    +0.100 A 
ATOM     14  C   UNL     1      -1.230   4.605  25.150  0.00  0.00    +0.021 A 
ATOM     15  C   UNL     1      -2.049   4.644  25.235  0.00  0.00    +0.004 A 
ATOM     16  C   UNL     1      -2.502   3.956  25.185  0.00  0.00    +0.035 A 
ENDROOT
BRANCH   6  17
ATOM     17  C   UNL     1      -3.773  -0.747  24.661  0.00  0.00    +0.063 C 
ATOM     18  C   UNL     1      -4.094  -1.052  23.965  0.00  0.00    +0.048 C 
ATOM     19  C   UNL     1      -4.143  -1.869  23.857  0.00  0.00    +0.144 C 
ATOM     20  O   UNL     1      -3.871  -2.380  24.445  0.00  0.00    -0.354 OA
ATOM     21  C   UNL     1      -3.550  -2.073  25.141  0.00  0.00    +0.144 C 
ATOM     22  C   UNL     1      -3.501  -1.258  25.249  0.00  0.00    +0.048 C 
ENDBRANCH   6  17
TORSDOF 1
ENDMDL
MODEL 2
REMARK VINA RESULT:     -10.9      1.300      4.911
REMARK  Name = 
REMARK  1 active torsions:
REMARK  status: ('A' for Active; 'I' for Inactive)
REMARK    1  A    between atoms: N_6  and  C_17
REMARK                            x       y       z     vdW  Elec       q    Type
REMARK                         _______ _______ _______ _____ _____    ______ ____
ROOT
ATOM      1  O   UNL     1      -1.476  -0.761  25.425  0.00  0.00    -0.252 OA
ATOM      2  C   UNL     1      -1.914  -0.113  25.166  0.00  0.00    +0.312 C 
ATOM      3  N   UNL     1      -1.702   0.680  25.248  0.00  0.00    -0.261 N 
ATOM      4  C   UNL     1      -1.042   1.043  25.584  0.00  0.00    +0.112 C 
ATOM      5  C   UNL     1      -0.978   1.865  25.585  0.00  0.00    +0.094 C 
ATOM      6  N   UNL     1      -1.575   2.325  25.249  0.00  0.00    -0.271 NA
ATOM      7  C   UNL     1      -2.236   1.963  24.913  0.00  0.00    +0.094 C 
ATOM      8  C   UNL     1      -2.299   1.140  24.912  0.00  0.00    +0.113 C 
ATOM      9  C   UNL     1      -2.880   0.632  24.623  0.00  0.00    +0.122 C 
ATOM     10  N   UNL     1      -2.643  -0.142  24.780  0.00  0.00    -0.226 N 
ATOM     11  C   UNL     1      -3.061  -0.827  24.585  0.00  0.00    +0.139 A 
ATOM     12  N   UNL     1      -3.787  -0.771  24.197  0.00  0.00    -0.229 NA
ATOM     13  C   UNL     1      -4.204  -1.456  24.003  0.00  0.00    +0.100 A 
ATOM     14  C   UNL     1      -3.896  -2.195  24.196  0.00  0.00    +0.021 A 
ATOM     15  C   UNL     1      -3.170  -2.252  24.584  0.00  0.00    +0.004 A 
ATOM     16  C   UNL     1      -2.753  -1.568  24.779  0.00  0.00    +0.035 A 
ENDROOT
BRANCH   6  17
ATOM     17  C   UNL     1      -1.512   3.148  25.250  0.00  0.00    +0.063 C 
ATOM     18  C   UNL     1      -2.098   3.606  25.607  0.00  0.00    +0.048 C 
ATOM     19  C   UNL     1      -2.035   4.429  25.607  0.00  0.00    +0.144 C 
ATOM     20  O   UNL     1      -1.386   4.794  25.251  0.00  0.00    -0.354 OA
ATOM     21  C   UNL     1      -0.800   4.335  24.895  0.00  0.00    +0.144 C 
ATOM     22  C   UNL     1      -0.863   3.513  24.894  0.00  0.00    +0.048 C 
ENDBRANCH   6  17
TORSDOF 1
ENDMDL
MODEL 3
REMARK VINA RESULT:     -10.9      1.125      4.682
REMARK  Name = 
REMARK  1 active torsions:
REMARK  status: ('A' for Active; 'I' for Inactive)
REMARK    1  A    between atoms: N_6  and  C_17
REMARK                            x       y       z     vdW  Elec       q    Type
REMARK                         _______ _______ _______ _____ _____    ______ ____
ROOT
ATOM      1  O   UNL     1      -4.516   0.212  24.210  0.00  0.00    -0.252 OA
ATOM      2  C   UNL     1      -3.740   0.386  24.427  0.00  0.00    +0.312 C 
ATOM      3  N   UNL     1      -3.425   1.140  24.538  0.00  0.00    -0.261 N 
ATOM      4  C   UNL     1      -3.757   1.893  24.471  0.00  0.00    +0.112 C 
ATOM      5  C   UNL     1      -3.297   2.561  24.618  0.00  0.00    +0.094 C 
ATOM      6  N   UNL     1      -2.505   2.478  24.833  0.00  0.00    -0.271 NA
ATOM      7  C   UNL     1      -2.172   1.726  24.899  0.00  0.00    +0.094 C 
ATOM      8  C   UNL     1      -2.633   1.057  24.752  0.00  0.00    +0.113 C 
ATOM      9  C   UNL     1      -2.458   0.251  24.774  0.00  0.00    +0.122 C 
ATOM     10  N   UNL     1      -3.142  -0.164  24.573  0.00  0.00    -0.226 N 
ATOM     11  C   UNL     1      -3.216  -0.984  24.527  0.00  0.00    +0.139 A 
ATOM     12  N   UNL     1      -2.567  -1.467  24.689  0.00  0.00    -0.229 NA
ATOM     13  C   UNL     1      -2.641  -2.287  24.642  0.00  0.00    +0.100 A 
ATOM     14  C   UNL     1      -3.364  -2.625  24.434  0.00  0.00    +0.021 A 
ATOM     15  C   UNL     1      -4.014  -2.143  24.271  0.00  0.00    +0.004 A 
ATOM     16  C   UNL     1      -3.940  -1.322  24.318  0.00  0.00    +0.035 A 
ENDROOT
BRANCH   6  17
ATOM     17  C   UNL     1      -2.044   3.147  24.980  0.00  0.00    +0.063 C 
ATOM     18  C   UNL     1      -2.339   3.753  25.456  0.00  0.00    +0.048 C 
ATOM     19  C   UNL     1      -1.878   4.422  25.604  0.00  0.00    +0.144 C 
ATOM     20  O   UNL     1      -1.124   4.484  25.275  0.00  0.00    -0.354 OA
ATOM     21  C   UNL     1      -0.830   3.877  24.799  0.00  0.00    +0.144 C 
ATOM     22  C   UNL     1      -1.290   3.209  24.651  0.00  0.00    +0.048 C 
ENDBRANCH   6  17
TORSDOF 1
ENDMDL
MODEL 4
REMARK VINA RESULT:     -10.7      1.153      1.682
REMARK  Name = 
REMARK  1 active torsions:
REMARK  status: ('A' for Active; 'I' for Inactive)
REMARK    1  A    between atoms: N_6  and  C_17
REMARK                            x       y       z     vdW  Elec       q    Type
REMARK                         _______ _______ _______ _____ _____    ______ ____
ROOT
ATOM      1  O   UNL     1      -0.564   1.721  24.997  0.00  0.00    -0.252 OA
ATOM      2  C   UNL     1      -1.368   1.545  24.953  0.00  0.00    +0.312 C 
ATOM      3  N   UNL     1      -1.696   0.796  24.849  0.00  0.00    -0.261 N 
ATOM      4  C   UNL     1      -1.353   0.050  24.763  0.00  0.00    +0.112 C 
ATOM      5  C   UNL     1      -1.830  -0.615  24.665  0.00  0.00    +0.094 C 
ATOM      6  N   UNL     1      -2.651  -0.535  24.654  0.00  0.00    -0.271 NA
ATOM      7  C   UNL     1      -2.995   0.209  24.741  0.00  0.00    +0.094 C 
ATOM      8  C   UNL     1      -2.517   0.875  24.838  0.00  0.00    +0.113 C 
ATOM      9  C   UNL     1      -2.697   1.674  24.936  0.00  0.00    +0.122 C 
ATOM     10  N   UNL     1      -1.988   2.088  25.007  0.00  0.00    -0.226 N 
ATOM     11  C   UNL     1      -1.910   2.903  25.113  0.00  0.00    +0.139 A 
ATOM     12  N   UNL     1      -2.582   3.379  25.157  0.00  0.00    -0.229 NA
ATOM     13  C   UNL     1      -2.505   4.194  25.263  0.00  0.00    +0.100 A 
ATOM     14  C   UNL     1      -1.756   4.532  25.325  0.00  0.00    +0.021 A 
ATOM     15  C   UNL     1      -1.083   4.056  25.282  0.00  0.00    +0.004 A 
ATOM     16  C   UNL     1      -1.160   3.242  25.176  0.00  0.00    +0.035 A 
ENDROOT
BRANCH   6  17
ATOM     17  C   UNL     1      -3.129  -1.202  24.557  0.00  0.00    +0.063 C 
ATOM     18  C   UNL     1      -2.998  -1.873  25.017  0.00  0.00    +0.048 C 
ATOM     19  C   UNL     1      -3.476  -2.539  24.920  0.00  0.00    +0.144 C 
ATOM     20  O   UNL     1      -4.084  -2.533  24.362  0.00  0.00    -0.354 OA
ATOM     21  C   UNL     1      -4.214  -1.860  23.902  0.00  0.00    +0.144 C 
ATOM     22  C   UNL     1      -3.737  -1.195  23.999  0.00  0.00    +0.048 C 
ENDBRANCH   6  17
TORSDOF 1
ENDMDL
MODEL 5
REMARK VINA RESULT:     -10.7      1.661      2.197
REMARK  Name = 
REMARK  1 active torsions:
REMARK  status: ('A' for Active; 'I' for Inactive)
REMARK    1  A    between atoms: N_6  and  C_17
REMARK                            x       y       z     vdW  Elec       q    Type
REMARK                         _______ _______ _______ _____ _____    ______ ____
ROOT
ATOM      1  O   UNL     1      -3.063   2.334  24.456  0.00  0.00    -0.252 OA
ATOM      2  C   UNL     1      -3.608   1.747  24.652  0.00  0.00    +0.312 C 
ATOM      3  N   UNL     1      -3.504   0.936  24.551  0.00  0.00    -0.261 N 
ATOM      4  C   UNL     1      -2.878   0.492  24.248  0.00  0.00    +0.112 C 
ATOM      5  C   UNL     1      -2.931  -0.330  24.215  0.00  0.00    +0.094 C 
ATOM      6  N   UNL     1      -3.612  -0.709  24.484  0.00  0.00    -0.271 NA
ATOM      7  C   UNL     1      -4.240  -0.267  24.787  0.00  0.00    +0.094 C 
ATOM      8  C   UNL     1      -4.185   0.556  24.820  0.00  0.00    +0.113 C 
ATOM      9  C   UNL     1      -4.710   1.133  25.088  0.00  0.00    +0.122 C 
ATOM     10  N   UNL     1      -4.354   1.869  24.984  0.00  0.00    -0.226 N 
ATOM     11  C   UNL     1      -4.685   2.600  25.178  0.00  0.00    +0.139 A 
ATOM     12  N   UNL     1      -5.440   2.637  25.509  0.00  0.00    -0.229 NA
ATOM     13  C   UNL     1      -5.770   3.367  25.703  0.00  0.00    +0.100 A 
ATOM     14  C   UNL     1      -5.346   4.061  25.566  0.00  0.00    +0.021 A 
ATOM     15  C   UNL     1      -4.591   4.025  25.236  0.00  0.00    +0.004 A 
ATOM     16  C   UNL     1      -4.260   3.295  25.042  0.00  0.00    +0.035 A 
ENDROOT
BRANCH   6  17
ATOM     17  C   UNL     1      -3.667  -1.533  24.451  0.00  0.00    +0.063 C 
ATOM     18  C   UNL     1      -4.100  -1.893  23.848  0.00  0.00    +0.048 C 
ATOM     19  C   UNL     1      -4.154  -2.716  23.815  0.00  0.00    +0.144 C 
ATOM     20  O   UNL     1      -3.775  -3.178  24.384  0.00  0.00    -0.354 OA
ATOM     21  C   UNL     1      -3.343  -2.816  24.987  0.00  0.00    +0.144 C 
ATOM     22  C   UNL     1      -3.288  -1.995  25.020  0.00  0.00    +0.048 C 
ENDBRANCH   6  17
TORSDOF 1
ENDMDL
MODEL 6
REMARK VINA RESULT:     -10.1      1.521      4.562
REMARK  Name = 
REMARK  1 active torsions:
REMARK  status: ('A' for Active; 'I' for Inactive)
REMARK    1  A    between atoms: N_6  and  C_17
REMARK                            x       y       z     vdW  Elec       q    Type
REMARK                         _______ _______ _______ _____ _____    ______ ____
ROOT
ATOM      1  O   UNL     1      -4.570  -1.164  24.503  0.00  0.00    -0.252 OA
ATOM      2  C   UNL     1      -4.002  -0.571  24.580  0.00  0.00    +0.312 C 
ATOM      3  N   UNL     1      -4.150   0.238  24.636  0.00  0.00    -0.261 N 
ATOM      4  C   UNL     1      -4.851   0.673  24.632  0.00  0.00    +0.112 C 
ATOM      5  C   UNL     1      -4.828   1.494  24.698  0.00  0.00    +0.094 C 
ATOM      6  N   UNL     1      -4.103   1.882  24.767  0.00  0.00    -0.271 NA
ATOM      7  C   UNL     1      -3.401   1.448  24.771  0.00  0.00    +0.094 C 
ATOM      8  C   UNL     1      -3.425   0.625  24.705  0.00  0.00    +0.113 C 
ATOM      9  C   UNL     1      -2.829   0.056  24.693  0.00  0.00    +0.122 C 
ATOM     10  N   UNL     1      -3.185  -0.684  24.616  0.00  0.00    -0.226 N 
ATOM     11  C   UNL     1      -2.793  -1.409  24.580  0.00  0.00    +0.139 A 
ATOM     12  N   UNL     1      -1.970  -1.437  24.622  0.00  0.00    -0.229 NA
ATOM     13  C   UNL     1      -1.579  -2.162  24.587  0.00  0.00    +0.100 A 
ATOM     14  C   UNL     1      -2.011  -2.860  24.509  0.00  0.00    +0.021 A 
ATOM     15  C   UNL     1      -2.834  -2.834  24.466  0.00  0.00    +0.004 A 
ATOM     16  C   UNL     1      -3.226  -2.108  24.502  0.00  0.00    +0.035 A 
ENDROOT
BRANCH   6  17
ATOM     17  C   UNL     1      -4.079   2.705  24.833  0.00  0.00    +0.063 C 
ATOM     18  C   UNL     1      -4.291   3.067  25.543  0.00  0.00    +0.048 C 
ATOM     19  C   UNL     1      -4.268   3.890  25.608  0.00  0.00    +0.144 C 
ATOM     20  O   UNL     1      -4.032   4.349  24.965  0.00  0.00    -0.354 OA
ATOM     21  C   UNL     1      -3.820   3.985  24.255  0.00  0.00    +0.144 C 
ATOM     22  C   UNL     1      -3.843   3.163  24.189  0.00  0.00    +0.048 C 
ENDBRANCH   6  17
TORSDOF 1
ENDMDL
MODEL 7
REMARK VINA RESULT:      -9.7      2.052      3.244
REMARK  Name = 
REMARK  1 active torsions:
REMARK  status: ('A' for Active; 'I' for Inactive)
REMARK    1  A    between atoms: N_6  and  C_17
REMARK                            x       y       z     vdW  Elec       q    Type
REMARK                         _______ _______ _______ _____ _____    ______ ____
ROOT
ATOM      1  O   UNL     1      -2.971   3.397  25.294  0.00  0.00    -0.252 OA
ATOM      2  C   UNL     1      -2.972   2.607  25.056  0.00  0.00    +0.312 C 
ATOM      3  N   UNL     1      -2.309   2.163  24.848  0.00  0.00    -0.261 N 
ATOM      4  C   UNL     1      -1.506   2.350  24.815  0.00  0.00    +0.112 C 
ATOM      5  C   UNL     1      -0.958   1.780  24.582  0.00  0.00    +0.094 C 
ATOM      6  N   UNL     1      -1.212   1.022  24.381  0.00  0.00    -0.271 NA
ATOM      7  C   UNL     1      -2.015   0.833  24.413  0.00  0.00    +0.094 C 
ATOM      8  C   UNL     1      -2.563   1.404  24.647  0.00  0.00    +0.113 C 
ATOM      9  C   UNL     1      -3.383   1.380  24.730  0.00  0.00    +0.122 C 
ATOM     10  N   UNL     1      -3.636   2.123  24.983  0.00  0.00    -0.226 N 
ATOM     11  C   UNL     1      -4.416   2.344  25.136  0.00  0.00    +0.139 A 
ATOM     12  N   UNL     1      -5.027   1.798  25.039  0.00  0.00    -0.229 NA
ATOM     13  C   UNL     1      -5.807   2.019  25.192  0.00  0.00    +0.100 A 
ATOM     14  C   UNL     1      -5.976   2.786  25.442  0.00  0.00    +0.021 A 
ATOM     15  C   UNL     1      -5.366   3.333  25.540  0.00  0.00    +0.004 A 
ATOM     16  C   UNL     1      -4.586   3.112  25.387  0.00  0.00    +0.035 A 
ENDROOT
BRANCH   6  17
ATOM     17  C   UNL     1      -0.664   0.450  24.148  0.00  0.00    +0.063 C 
ATOM     18  C   UNL     1      -0.111   0.626  23.562  0.00  0.00    +0.048 C 
ATOM     19  C   UNL     1       0.438   0.055  23.328  0.00  0.00    +0.144 C 
ATOM     20  O   UNL     1       0.432  -0.691  23.681  0.00  0.00    -0.354 OA
ATOM     21  C   UNL     1      -0.122  -0.866  24.267  0.00  0.00    +0.144 C 
ATOM     22  C   UNL     1      -0.669  -0.295  24.500  0.00  0.00    +0.048 C 
ENDBRANCH   6  17
TORSDOF 1
ENDMDL
MODEL 8
REMARK VINA RESULT:      -9.5      2.234      3.838
REMARK  Name = 
REMARK  1 active torsions:
REMARK  status: ('A' for Active; 'I' for Inactive)
REMARK    1  A    between atoms: N_6  and  C_17
REMARK                            x       y       z     vdW  Elec       q    Type
REMARK                         _______ _______ _______ _____ _____    ______ ____
ROOT
ATOM      1  O   UNL     1      -1.279   1.392  23.260  0.00  0.00    -0.252 OA
ATOM      2  C   UNL     1      -1.814   1.204  23.859  0.00  0.00    +0.312 C 
ATOM      3  N   UNL     1      -2.504   1.618  24.041  0.00  0.00    -0.261 N 
ATOM      4  C   UNL     1      -2.847   2.292  23.711  0.00  0.00    +0.112 C 
ATOM      5  C   UNL     1      -3.554   2.586  24.015  0.00  0.00    +0.094 C 
ATOM      6  N   UNL     1      -3.920   2.207  24.649  0.00  0.00    -0.271 NA
ATOM      7  C   UNL     1      -3.578   1.533  24.980  0.00  0.00    +0.094 C 
ATOM      8  C   UNL     1      -2.869   1.238  24.675  0.00  0.00    +0.113 C 
ATOM      9  C   UNL     1      -2.406   0.590  24.886  0.00  0.00    +0.122 C 
ATOM     10  N   UNL     1      -1.754   0.568  24.381  0.00  0.00    -0.226 N 
ATOM     11  C   UNL     1      -1.147   0.009  24.396  0.00  0.00    +0.139 A 
ATOM     12  N   UNL     1      -1.160  -0.599  24.953  0.00  0.00    -0.229 NA
ATOM     13  C   UNL     1      -0.553  -1.158  24.968  0.00  0.00    +0.100 A 
ATOM     14  C   UNL     1       0.066  -1.109  24.426  0.00  0.00    +0.021 A 
ATOM     15  C   UNL     1       0.080  -0.501  23.869  0.00  0.00    +0.004 A 
ATOM     16  C   UNL     1      -0.527   0.058  23.854  0.00  0.00    +0.035 A 
ENDROOT
BRANCH   6  17
ATOM     17  C   UNL     1      -4.629   2.501  24.954  0.00  0.00    +0.063 C 
ATOM     18  C   UNL     1      -5.318   2.052  24.900  0.00  0.00    +0.048 C 
ATOM     19  C   UNL     1      -6.027   2.346  25.205  0.00  0.00    +0.144 C 
ATOM     20  O   UNL     1      -6.045   3.089  25.563  0.00  0.00    -0.354 OA
ATOM     21  C   UNL     1      -5.354   3.537  25.617  0.00  0.00    +0.144 C 
ATOM     22  C   UNL     1      -4.647   3.244  25.312  0.00  0.00    +0.048 C 
ENDBRANCH   6  17
TORSDOF 1
ENDMDL
MODEL 9
REMARK VINA RESULT:      -8.9      2.448      3.850
REMARK  Name = 
REMARK  1 active torsions:
REMARK  status: ('A' for Active; 'I' for Inactive)
REMARK    1  A    between atoms: N_6  and  C_17
REMARK                            x       y       z     vdW  Elec       q    Type
REMARK                         _______ _______ _______ _____ _____    ______ ____
ROOT
ATOM      1  O   UNL     1      -3.560  -0.228  25.438  0.00  0.00    -0.252 OA
ATOM      2  C   UNL     1      -3.135   0.317  24.988  0.00  0.00    +0.312 C 
ATOM      3  N   UNL     1      -2.350   0.240  24.747  0.00  0.00    -0.261 N 
ATOM      4  C   UNL     1      -1.791  -0.354  24.870  0.00  0.00    +0.112 C 
ATOM      5  C   UNL     1      -1.033  -0.279  24.556  0.00  0.00    +0.094 C 
ATOM      6  N   UNL     1      -0.833   0.392  24.118  0.00  0.00    -0.271 NA
ATOM      7  C   UNL     1      -1.391   0.986  23.995  0.00  0.00    +0.094 C 
ATOM      8  C   UNL     1      -2.150   0.910  24.310  0.00  0.00    +0.113 C 
ATOM      9  C   UNL     1      -2.812   1.402  24.280  0.00  0.00    +0.122 C 
ATOM     10  N   UNL     1      -3.421   1.036  24.699  0.00  0.00    -0.226 N 
ATOM     11  C   UNL     1      -4.181   1.335  24.809  0.00  0.00    +0.139 A 
ATOM     12  N   UNL     1      -4.389   2.065  24.486  0.00  0.00    -0.229 NA
ATOM     13  C   UNL     1      -5.150   2.364  24.597  0.00  0.00    +0.100 A 
ATOM     14  C   UNL     1      -5.703   1.933  25.031  0.00  0.00    +0.021 A 
ATOM     15  C   UNL     1      -5.496   1.203  25.354  0.00  0.00    +0.004 A 
ATOM     16  C   UNL     1      -4.736   0.904  25.244  0.00  0.00    +0.035 A 
ENDROOT
BRANCH   6  17
ATOM     17  C   UNL     1      -0.073   0.468  23.803  0.00  0.00    +0.063 C 
ATOM     18  C   UNL     1       0.222  -0.111  23.295  0.00  0.00    +0.048 C 
ATOM     19  C   UNL     1       0.981  -0.035  22.980  0.00  0.00    +0.144 C 
ATOM     20  O   UNL     1       1.445   0.620  23.174  0.00  0.00    -0.354 OA
ATOM     21  C   UNL     1       1.148   1.198  23.682  0.00  0.00    +0.144 C 
ATOM     22  C   UNL     1       0.390   1.123  23.997  0.00  0.00    +0.048 C 
ENDBRANCH   6  17
TORSDOF 1
ENDMDL
MODEL 10
REMARK VINA RESULT:      -8.8     17.840     19.332
REMARK  Name = 
REMARK  1 active torsions:
REMARK  status: ('A' for Active; 'I' for Inactive)
REMARK    1  A    between atoms: N_6  and  C_17
REMARK                            x       y       z     vdW  Elec       q    Type
REMARK                         _______ _______ _______ _____ _____    ______ ____
ROOT
ATOM      1  O   UNL     1      11.606   7.605  18.620  0.00  0.00    -0.252 OA
ATOM      2  C   UNL     1      12.363   7.757  18.333  0.00  0.00    +0.312 C 
ATOM      3  N   UNL     1      13.072   7.556  18.703  0.00  0.00    -0.261 N 
ATOM      4  C   UNL     1      13.234   7.174  19.416  0.00  0.00    +0.112 C 
ATOM      5  C   UNL     1      14.014   7.047  19.648  0.00  0.00    +0.094 C 
ATOM      6  N   UNL     1      14.635   7.303  19.168  0.00  0.00    -0.271 NA
ATOM      7  C   UNL     1      14.474   7.685  18.455  0.00  0.00    +0.094 C 
ATOM      8  C   UNL     1      13.692   7.812  18.222  0.00  0.00    +0.113 C 
ATOM      9  C   UNL     1      13.366   8.171  17.555  0.00  0.00    +0.122 C 
ATOM     10  N   UNL     1      12.545   8.137  17.623  0.00  0.00    -0.226 N 
ATOM     11  C   UNL     1      12.001   8.431  17.077  0.00  0.00    +0.139 A 
ATOM     12  N   UNL     1      12.265   8.799  16.388  0.00  0.00    -0.229 NA
ATOM     13  C   UNL     1      11.721   9.093  15.842  0.00  0.00    +0.100 A 
ATOM     14  C   UNL     1      10.913   9.019  15.985  0.00  0.00    +0.021 A 
ATOM     15  C   UNL     1      10.647   8.651  16.674  0.00  0.00    +0.004 A 
ATOM     16  C   UNL     1      11.191   8.356  17.220  0.00  0.00    +0.035 A 
ENDROOT
BRANCH   6  17
ATOM     17  C   UNL     1      15.417   7.176  19.400  0.00  0.00    +0.063 C 
ATOM     18  C   UNL     1      15.776   6.448  19.255  0.00  0.00    +0.048 C 
ATOM     19  C   UNL     1      16.558   6.321  19.488  0.00  0.00    +0.144 C 
ATOM     20  O   UNL     1      16.979   6.922  19.865  0.00  0.00    -0.354 OA
ATOM     21  C   UNL     1      16.618   7.650  20.010  0.00  0.00    +0.144 C 
ATOM     22  C   UNL     1      15.838   7.777  19.778  0.00  0.00    +0.048 C 
ENDBRANCH   6  17
TORSDOF 1
ENDMDL
