MODEL 1
REMARK VINA RESULT:     -11.0      0.000      0.000
REMARK  Name = 
REMARK  9 active torsions:
REMARK  status: ('A' for Active; 'I' for Inactive)
REMARK    1  A    between atoms: O_2  and  C_3
REMARK    2  A    between atoms: C_3  and  C_4
REMARK    3  A    between atoms: C_9  and  C_11
REMARK    4  A    between atoms: C_11  and  C_12
REMARK    5  A    between atoms: C_12  and  C_13
REMARK    6  A    between atoms: C_20  and  N_23
REMARK    7  A    between atoms: N_23  and  C_24
REMARK    8  A    between atoms: C_24  and  C_25
REMARK    9  A    between atoms: C_28  and  N_31
REMARK                            x       y       z     vdW  Elec       q    Type
REMARK                         _______ _______ _______ _____ _____    ______ ____
ROOT
ATOM     13  C   UNL     1      -3.584   3.326  24.799  0.00  0.00    +0.080 C 
ATOM     14  C   UNL     1      -3.862   4.054  25.069  0.00  0.00    +0.131 C 
ATOM     15  N   UNL     1      -4.618   4.114  25.393  0.00  0.00    -0.203 NA
ATOM     16  C   UNL     1      -5.097   3.445  25.447  0.00  0.00    +0.256 C 
ATOM     17  O   UNL     1      -5.854   3.504  25.771  0.00  0.00    -0.272 OA
ATOM     18  C   UNL     1      -4.820   2.715  25.177  0.00  0.00    +0.138 C 
ATOM     19  C   UNL     1      -5.164   1.967  25.160  0.00  0.00    +0.044 C 
ATOM     20  C   UNL     1      -4.621   1.444  24.824  0.00  0.00    +0.091 C 
ATOM     21  C   UNL     1      -3.940   1.871  24.635  0.00  0.00    +0.090 C 
ATOM     22  N   UNL     1      -4.063   2.656  24.853  0.00  0.00    -0.265 NA
ENDROOT
BRANCH  13  12
ATOM     12  C   UNL     1      -2.828   3.267  24.475  0.00  0.00    +0.027 C 
BRANCH  12  11
ATOM     11  C   UNL     1      -2.165   3.362  24.956  0.00  0.00    +0.087 C 
BRANCH  11   9
ATOM      4  C   UNL     1      -0.147   2.490  25.176  0.00  0.00    +0.105 C 
ATOM      5  C   UNL     1       0.226   2.392  25.905  0.00  0.00    +0.024 C 
ATOM      6  C   UNL     1      -0.282   2.671  26.492  0.00  0.00    +0.023 C 
ATOM      7  C   UNL     1      -0.970   2.942  26.126  0.00  0.00    +0.093 C 
ATOM      8  N   UNL     1      -0.887   2.829  25.312  0.00  0.00    -0.279 N 
ATOM      9  C   UNL     1      -1.445   3.023  24.735  0.00  0.00    +0.226 C 
ATOM     10  O   UNL     1      -1.283   2.878  23.941  0.00  0.00    -0.275 OA
BRANCH   4   3
ATOM      3  C   UNL     1       0.164   2.284  24.441  0.00  0.00    +0.162 C 
BRANCH   3   2
ATOM      1  C   UNL     1       1.087   1.467  23.717  0.00  0.00    +0.174 C 
ATOM      2  O   UNL     1       0.890   1.895  24.393  0.00  0.00    -0.349 OA
ENDBRANCH   3   2
ENDBRANCH   4   3
ENDBRANCH  11   9
ENDBRANCH  12  11
ENDBRANCH  13  12
BRANCH  20  23
ATOM     23  N   UNL     1      -4.738   0.637  24.700  0.00  0.00    -0.213 NA
BRANCH  23  24
ATOM     24  C   UNL     1      -4.516   0.094  25.280  0.00  0.00    +0.115 C 
BRANCH  24  25
ATOM     25  C   UNL     1      -4.155  -0.616  25.065  0.00  0.00    -0.005 A 
ATOM     26  C   UNL     1      -4.323  -0.958  24.334  0.00  0.00    -0.002 A 
ATOM     27  C   UNL     1      -3.962  -1.668  24.118  0.00  0.00    +0.014 A 
ATOM     28  C   UNL     1      -3.433  -2.036  24.634  0.00  0.00    +0.048 A 
ATOM     29  C   UNL     1      -3.267  -1.693  25.365  0.00  0.00    +0.014 A 
ATOM     30  C   UNL     1      -3.628  -0.983  25.581  0.00  0.00    -0.002 A 
BRANCH  28  31
ATOM     31  N   UNL     1      -3.072  -2.746  24.419  0.00  0.00    -0.304 N 
ATOM     32  C   UNL     1      -3.532  -3.414  24.272  0.00  0.00    +0.112 C 
ATOM     33  C   UNL     1      -2.252  -2.787  24.350  0.00  0.00    +0.112 C 
ENDBRANCH  28  31
ENDBRANCH  24  25
ENDBRANCH  23  24
ENDBRANCH  20  23
TORSDOF 9
ENDMDL
MODEL 2
REMARK VINA RESULT:      -9.7      1.703      4.523
REMARK  Name = 
REMARK  9 active torsions:
REMARK  status: ('A' for Active; 'I' for Inactive)
REMARK    1  A    between atoms: O_2  and  C_3
REMARK    2  A    between atoms: C_3  and  C_4
REMARK    3  A    between atoms: C_9  and  C_11
REMARK    4  A    between atoms: C_11  and  C_12
REMARK    5  A    between atoms: C_12  and  C_13
REMARK    6  A    between atoms: C_20  and  N_23
REMARK    7  A    between atoms: N_23  and  C_24
REMARK    8  A    between atoms: C_24  and  C_25
REMARK    9  A    between atoms: C_28  and  N_31
REMARK                            x       y       z     vdW  Elec       q    Type
REMARK                         _______ _______ _______ _____ _____    ______ ____
ROOT
ATOM     13  C   UNL     1      -2.008  -1.625  24.886  0.00  0.00    +0.080 C 
ATOM     14  C   UNL     1      -1.847  -2.395  24.639  0.00  0.00    +0.131 C 
ATOM     15  N   UNL     1      -2.463  -2.892  24.407  0.00  0.00    -0.203 NA
ATOM     16  C   UNL     1      -3.241  -2.618  24.421  0.00  0.00    +0.256 C 
ATOM     17  O   UNL     1      -3.858  -3.115  24.188  0.00  0.00    -0.272 OA
ATOM     18  C   UNL     1      -3.403  -1.847  24.667  0.00  0.00    +0.138 C 
ATOM     19  C   UNL     1      -4.109  -1.428  24.738  0.00  0.00    +0.044 C 
ATOM     20  C   UNL     1      -3.930  -0.672  25.014  0.00  0.00    +0.091 C 
ATOM     21  C   UNL     1      -3.112  -0.624  25.114  0.00  0.00    +0.090 C 
ATOM     22  N   UNL     1      -2.787  -1.351  24.899  0.00  0.00    -0.265 NA
ENDROOT
BRANCH  13  12
ATOM     12  C   UNL     1      -1.392  -1.129  25.118  0.00  0.00    +0.027 C 
BRANCH  12  11
ATOM     11  C   UNL     1      -0.783  -0.952  24.590  0.00  0.00    +0.087 C 
BRANCH  11   9
ATOM      4  C   UNL     1       0.457   0.744  23.910  0.00  0.00    +0.105 C 
ATOM      5  C   UNL     1       0.944   0.711  23.245  0.00  0.00    +0.024 C 
ATOM      6  C   UNL     1       0.872  -0.041  22.913  0.00  0.00    +0.023 C 
ATOM      7  C   UNL     1       0.340  -0.473  23.373  0.00  0.00    +0.093 C 
ATOM      8  N   UNL     1       0.083   0.013  23.990  0.00  0.00    -0.279 N 
ATOM      9  C   UNL     1      -0.452  -0.196  24.581  0.00  0.00    +0.226 C 
ATOM     10  O   UNL     1      -0.657   0.351  25.164  0.00  0.00    -0.275 OA
BRANCH   4   3
ATOM      3  C   UNL     1       0.361   1.395  24.407  0.00  0.00    +0.162 C 
BRANCH   3   2
ATOM      1  C   UNL     1       0.323   2.817  24.541  0.00  0.00    +0.174 C 
ATOM      2  O   UNL     1       0.608   2.143  24.162  0.00  0.00    -0.349 OA
ENDBRANCH   3   2
ENDBRANCH   4   3
ENDBRANCH  11   9
ENDBRANCH  12  11
ENDBRANCH  13  12
BRANCH  20  23
ATOM     23  N   UNL     1      -4.472  -0.069  25.164  0.00  0.00    -0.213 NA
BRANCH  23  24
ATOM     24  C   UNL     1      -4.636   0.494  24.583  0.00  0.00    +0.115 C 
BRANCH  24  25
ATOM     25  C   UNL     1      -4.774   1.279  24.796  0.00  0.00    -0.005 A 
ATOM     26  C   UNL     1      -4.278   1.875  24.515  0.00  0.00    -0.002 A 
ATOM     27  C   UNL     1      -4.416   2.660  24.727  0.00  0.00    +0.014 A 
ATOM     28  C   UNL     1      -5.049   2.849  25.221  0.00  0.00    +0.048 A 
ATOM     29  C   UNL     1      -5.545   2.252  25.501  0.00  0.00    +0.014 A 
ATOM     30  C   UNL     1      -5.407   1.467  25.289  0.00  0.00    -0.002 A 
BRANCH  28  31
ATOM     31  N   UNL     1      -5.187   3.634  25.433  0.00  0.00    -0.304 N 
ATOM     32  C   UNL     1      -4.573   4.184  25.401  0.00  0.00    +0.112 C 
ATOM     33  C   UNL     1      -5.939   3.869  25.677  0.00  0.00    +0.112 C 
ENDBRANCH  28  31
ENDBRANCH  24  25
ENDBRANCH  23  24
ENDBRANCH  20  23
TORSDOF 9
ENDMDL
MODEL 3
REMARK VINA RESULT:      -9.7      2.217      5.520
REMARK  Name = 
REMARK  9 active torsions:
REMARK  status: ('A' for Active; 'I' for Inactive)
REMARK    1  A    between atoms: O_2  and  C_3
REMARK    2  A    between atoms: C_3  and  C_4
REMARK    3  A    between atoms: C_9  and  C_11
REMARK    4  A    between atoms: C_11  and  C_12
REMARK    5  A    between atoms: C_12  and  C_13
REMARK    6  A    between atoms: C_20  and  N_23
REMARK    7  A    between atoms: N_23  and  C_24
REMARK    8  A    between atoms: C_24  and  C_25
REMARK    9  A    between atoms: C_28  and  N_31
REMARK                            x       y       z     vdW  Elec       q    Type
REMARK                         _______ _______ _______ _____ _____    ______ ____
ROOT
ATOM     13  C   UNL     1      -2.760  -0.439  24.883  0.00  0.00    +0.080 C 
ATOM     14  C   UNL     1      -3.329  -1.021  25.019  0.00  0.00    +0.131 C 
ATOM     15  N   UNL     1      -3.132  -1.818  24.938  0.00  0.00    -0.203 NA
ATOM     16  C   UNL     1      -2.367  -2.033  24.722  0.00  0.00    +0.256 C 
ATOM     17  O   UNL     1      -2.170  -2.832  24.641  0.00  0.00    -0.272 OA
ATOM     18  C   UNL     1      -1.797  -1.453  24.585  0.00  0.00    +0.138 C 
ATOM     19  C   UNL     1      -1.003  -1.499  24.367  0.00  0.00    +0.044 C 
ATOM     20  C   UNL     1      -0.709  -0.730  24.312  0.00  0.00    +0.091 C 
ATOM     21  C   UNL     1      -1.321  -0.209  24.497  0.00  0.00    +0.090 C 
ATOM     22  N   UNL     1      -1.993  -0.655  24.666  0.00  0.00    -0.265 NA
ENDROOT
BRANCH  13  12
ATOM     12  C   UNL     1      -2.957   0.357  24.963  0.00  0.00    +0.027 C 
BRANCH  12  11
ATOM     11  C   UNL     1      -3.746   0.593  24.929  0.00  0.00    +0.087 C 
BRANCH  11   9
ATOM      4  C   UNL     1      -5.008   2.396  25.115  0.00  0.00    +0.105 C 
ATOM      5  C   UNL     1      -5.831   2.370  25.154  0.00  0.00    +0.024 C 
ATOM      6  C   UNL     1      -6.064   1.580  25.111  0.00  0.00    +0.023 C 
ATOM      7  C   UNL     1      -5.385   1.117  25.046  0.00  0.00    +0.093 C 
ATOM      8  N   UNL     1      -4.731   1.622  25.048  0.00  0.00    -0.279 N 
ATOM      9  C   UNL     1      -3.940   1.393  24.994  0.00  0.00    +0.226 C 
ATOM     10  O   UNL     1      -3.345   1.962  25.003  0.00  0.00    -0.275 OA
BRANCH   4   3
ATOM      3  C   UNL     1      -4.544   3.077  25.138  0.00  0.00    +0.162 C 
BRANCH   3   2
ATOM      1  C   UNL     1      -4.429   4.492  25.298  0.00  0.00    +0.174 C 
ATOM      2  O   UNL     1      -4.892   3.811  25.278  0.00  0.00    -0.349 OA
ENDBRANCH   3   2
ENDBRANCH   4   3
ENDBRANCH  11   9
ENDBRANCH  12  11
ENDBRANCH  13  12
BRANCH  20  23
ATOM     23  N   UNL     1       0.063  -0.519  24.109  0.00  0.00    -0.213 NA
BRANCH  23  24
ATOM     24  C   UNL     1       0.203  -0.072  23.430  0.00  0.00    +0.115 C 
BRANCH  24  25
ATOM     25  C   UNL     1       0.977   0.080  23.188  0.00  0.00    -0.005 A 
ATOM     26  C   UNL     1       1.326  -0.389  22.607  0.00  0.00    -0.002 A 
ATOM     27  C   UNL     1       2.100  -0.238  22.365  0.00  0.00    +0.014 A 
ATOM     28  C   UNL     1       2.525   0.383  22.703  0.00  0.00    +0.048 A 
ATOM     29  C   UNL     1       2.174   0.852  23.284  0.00  0.00    +0.014 A 
ATOM     30  C   UNL     1       1.400   0.700  23.527  0.00  0.00    -0.002 A 
BRANCH  28  31
ATOM     31  N   UNL     1       3.298   0.535  22.461  0.00  0.00    -0.304 N 
ATOM     32  C   UNL     1       3.851   0.822  23.002  0.00  0.00    +0.112 C 
ATOM     33  C   UNL     1       3.519   0.399  21.678  0.00  0.00    +0.112 C 
ENDBRANCH  28  31
ENDBRANCH  24  25
ENDBRANCH  23  24
ENDBRANCH  20  23
TORSDOF 9
ENDMDL
MODEL 4
REMARK VINA RESULT:      -9.0      1.778      4.244
REMARK  Name = 
REMARK  9 active torsions:
REMARK  status: ('A' for Active; 'I' for Inactive)
REMARK    1  A    between atoms: O_2  and  C_3
REMARK    2  A    between atoms: C_3  and  C_4
REMARK    3  A    between atoms: C_9  and  C_11
REMARK    4  A    between atoms: C_11  and  C_12
REMARK    5  A    between atoms: C_12  and  C_13
REMARK    6  A    between atoms: C_20  and  N_23
REMARK    7  A    between atoms: N_23  and  C_24
REMARK    8  A    between atoms: C_24  and  C_25
REMARK    9  A    between atoms: C_28  and  N_31
REMARK                            x       y       z     vdW  Elec       q    Type
REMARK                         _______ _______ _______ _____ _____    ______ ____
ROOT
ATOM     13  C   UNL     1      -2.301   4.214  25.589  0.00  0.00    +0.080 C 
ATOM     14  C   UNL     1      -2.229   5.022  25.436  0.00  0.00    +0.131 C 
ATOM     15  N   UNL     1      -1.523   5.324  25.135  0.00  0.00    -0.203 NA
ATOM     16  C   UNL     1      -0.889   4.819  24.986  0.00  0.00    +0.256 C 
ATOM     17  O   UNL     1      -0.182   5.122  24.684  0.00  0.00    -0.272 OA
ATOM     18  C   UNL     1      -0.960   4.011  25.138  0.00  0.00    +0.138 C 
ATOM     19  C   UNL     1      -0.432   3.384  25.047  0.00  0.00    +0.044 C 
ATOM     20  C   UNL     1      -0.812   2.694  25.291  0.00  0.00    +0.091 C 
ATOM     21  C   UNL     1      -1.575   2.895  25.534  0.00  0.00    +0.090 C 
ATOM     22  N   UNL     1      -1.666   3.709  25.439  0.00  0.00    -0.265 NA
ENDROOT
BRANCH  13  12
ATOM     12  C   UNL     1      -3.006   3.912  25.889  0.00  0.00    +0.027 C 
BRANCH  12  11
ATOM     11  C   UNL     1      -3.664   3.832  25.398  0.00  0.00    +0.087 C 
BRANCH  11   9
ATOM      4  C   UNL     1      -5.364   2.423  25.343  0.00  0.00    +0.105 C 
ATOM      5  C   UNL     1      -5.552   1.967  24.682  0.00  0.00    +0.024 C 
ATOM      6  C   UNL     1      -5.005   2.139  24.088  0.00  0.00    +0.023 C 
ATOM      7  C   UNL     1      -4.479   2.702  24.382  0.00  0.00    +0.093 C 
ATOM      8  N   UNL     1      -4.701   2.878  25.158  0.00  0.00    -0.279 N 
ATOM      9  C   UNL     1      -4.326   3.414  25.661  0.00  0.00    +0.226 C 
ATOM     10  O   UNL     1      -4.612   3.533  26.424  0.00  0.00    -0.275 OA
BRANCH   4   3
ATOM      3  C   UNL     1      -5.769   2.424  26.061  0.00  0.00    +0.162 C 
BRANCH   3   2
ATOM      1  C   UNL     1      -6.650   1.766  26.972  0.00  0.00    +0.174 C 
ATOM      2  O   UNL     1      -6.347   1.856  26.211  0.00  0.00    -0.349 OA
ENDBRANCH   3   2
ENDBRANCH   4   3
ENDBRANCH  11   9
ENDBRANCH  12  11
ENDBRANCH  13  12
BRANCH  20  23
ATOM     23  N   UNL     1      -0.486   1.936  25.293  0.00  0.00    -0.213 NA
BRANCH  23  24
ATOM     24  C   UNL     1      -0.563   1.452  24.629  0.00  0.00    +0.115 C 
BRANCH  24  25
ATOM     25  C   UNL     1      -0.623   0.634  24.719  0.00  0.00    -0.005 A 
ATOM     26  C   UNL     1      -1.029   0.319  25.364  0.00  0.00    -0.002 A 
ATOM     27  C   UNL     1      -1.089  -0.499  25.453  0.00  0.00    +0.014 A 
ATOM     28  C   UNL     1      -0.743  -1.002  24.899  0.00  0.00    +0.048 A 
ATOM     29  C   UNL     1      -0.337  -0.686  24.254  0.00  0.00    +0.014 A 
ATOM     30  C   UNL     1      -0.277   0.132  24.164  0.00  0.00    -0.002 A 
BRANCH  28  31
ATOM     31  N   UNL     1      -0.803  -1.820  24.989  0.00  0.00    -0.304 N 
ATOM     32  C   UNL     1      -0.206  -2.236  25.376  0.00  0.00    +0.112 C 
ATOM     33  C   UNL     1      -1.459  -2.220  24.690  0.00  0.00    +0.112 C 
ENDBRANCH  28  31
ENDBRANCH  24  25
ENDBRANCH  23  24
ENDBRANCH  20  23
TORSDOF 9
ENDMDL
MODEL 5
REMARK VINA RESULT:      -9.0      1.226      3.783
REMARK  Name = 
REMARK  9 active torsions:
REMARK  status: ('A' for Active; 'I' for Inactive)
REMARK    1  A    between atoms: O_2  and  C_3
REMARK    2  A    between atoms: C_3  and  C_4
REMARK    3  A    between atoms: C_9  and  C_11
REMARK    4  A    between atoms: C_11  and  C_12
REMARK    5  A    between atoms: C_12  and  C_13
REMARK    6  A    between atoms: C_20  and  N_23
REMARK    7  A    between atoms: N_23  and  C_24
REMARK    8  A    between atoms: C_24  and  C_25
REMARK    9  A    between atoms: C_28  and  N_31
REMARK                            x       y       z     vdW  Elec       q    Type
REMARK                         _______ _______ _______ _____ _____    ______ ____
ROOT
ATOM     13  C   UNL     1      -1.522   2.760  24.922  0.00  0.00    +0.080 C 
ATOM     14  C   UNL     1      -1.126   3.443  25.161  0.00  0.00    +0.131 C 
ATOM     15  N   UNL     1      -0.411   3.384  25.569  0.00  0.00    -0.203 NA
ATOM     16  C   UNL     1      -0.092   2.643  25.737  0.00  0.00    +0.256 C 
ATOM     17  O   UNL     1       0.624   2.584  26.145  0.00  0.00    -0.272 OA
ATOM     18  C   UNL     1      -0.487   1.959  25.498  0.00  0.00    +0.138 C 
ATOM     19  C   UNL     1      -0.308   1.159  25.585  0.00  0.00    +0.044 C 
ATOM     20  C   UNL     1      -0.912   0.723  25.232  0.00  0.00    +0.091 C 
ATOM     21  C   UNL     1      -1.465   1.254  24.926  0.00  0.00    +0.090 C 
ATOM     22  N   UNL     1      -1.202   2.018  25.091  0.00  0.00    -0.265 NA
ENDROOT
BRANCH  13  12
ATOM     12  C   UNL     1      -2.236   2.818  24.515  0.00  0.00    +0.027 C 
BRANCH  12  11
ATOM     11  C   UNL     1      -2.863   3.245  24.840  0.00  0.00    +0.087 C 
BRANCH  11   9
ATOM      4  C   UNL     1      -5.031   3.065  25.220  0.00  0.00    +0.105 C 
ATOM      5  C   UNL     1      -5.439   3.549  25.749  0.00  0.00    +0.024 C 
ATOM      6  C   UNL     1      -4.899   4.077  26.081  0.00  0.00    +0.023 C 
ATOM      7  C   UNL     1      -4.157   3.920  25.758  0.00  0.00    +0.093 C 
ATOM      8  N   UNL     1      -4.238   3.294  25.225  0.00  0.00    -0.279 N 
ATOM      9  C   UNL     1      -3.634   2.956  24.777  0.00  0.00    +0.226 C 
ATOM     10  O   UNL     1      -3.799   2.331  24.266  0.00  0.00    -0.275 OA
BRANCH   4   3
ATOM      3  C   UNL     1      -5.359   2.460  24.767  0.00  0.00    +0.162 C 
BRANCH   3   2
ATOM      1  C   UNL     1      -6.381   1.470  24.643  0.00  0.00    +0.174 C 
ATOM      2  O   UNL     1      -6.132   2.210  24.907  0.00  0.00    -0.349 OA
ENDBRANCH   3   2
ENDBRANCH   4   3
ENDBRANCH  11   9
ENDBRANCH  12  11
ENDBRANCH  13  12
BRANCH  20  23
ATOM     23  N   UNL     1      -0.956  -0.100  25.191  0.00  0.00    -0.213 NA
BRANCH  23  24
ATOM     24  C   UNL     1      -1.469  -0.512  25.690  0.00  0.00    +0.115 C 
BRANCH  24  25
ATOM     25  C   UNL     1      -1.990  -1.069  25.377  0.00  0.00    -0.005 A 
ATOM     26  C   UNL     1      -1.718  -1.633  24.840  0.00  0.00    -0.002 A 
ATOM     27  C   UNL     1      -2.239  -2.190  24.528  0.00  0.00    +0.014 A 
ATOM     28  C   UNL     1      -3.033  -2.184  24.752  0.00  0.00    +0.048 A 
ATOM     29  C   UNL     1      -3.305  -1.620  25.289  0.00  0.00    +0.014 A 
ATOM     30  C   UNL     1      -2.783  -1.063  25.601  0.00  0.00    -0.002 A 
BRANCH  28  31
ATOM     31  N   UNL     1      -3.555  -2.742  24.439  0.00  0.00    -0.304 N 
ATOM     32  C   UNL     1      -3.497  -3.532  24.666  0.00  0.00    +0.112 C 
ATOM     33  C   UNL     1      -4.133  -2.509  23.900  0.00  0.00    +0.112 C 
ENDBRANCH  28  31
ENDBRANCH  24  25
ENDBRANCH  23  24
ENDBRANCH  20  23
TORSDOF 9
ENDMDL
MODEL 6
REMARK VINA RESULT:      -8.9      2.060      4.113
REMARK  Name = 
REMARK  9 active torsions:
REMARK  status: ('A' for Active; 'I' for Inactive)
REMARK    1  A    between atoms: O_2  and  C_3
REMARK    2  A    between atoms: C_3  and  C_4
REMARK    3  A    between atoms: C_9  and  C_11
REMARK    4  A    between atoms: C_11  and  C_12
REMARK    5  A    between atoms: C_12  and  C_13
REMARK    6  A    between atoms: C_20  and  N_23
REMARK    7  A    between atoms: N_23  and  C_24
REMARK    8  A    between atoms: C_24  and  C_25
REMARK    9  A    between atoms: C_28  and  N_31
REMARK                            x       y       z     vdW  Elec       q    Type
REMARK                         _______ _______ _______ _____ _____    ______ ____
ROOT
ATOM     13  C   UNL     1      -0.599   3.071  25.263  0.00  0.00    +0.080 C 
ATOM     14  C   UNL     1       0.104   3.453  25.063  0.00  0.00    +0.131 C 
ATOM     15  N   UNL     1       0.105   4.264  24.912  0.00  0.00    -0.203 NA
ATOM     16  C   UNL     1      -0.597   4.693  24.959  0.00  0.00    +0.256 C 
ATOM     17  O   UNL     1      -0.597   5.505  24.808  0.00  0.00    -0.272 OA
ATOM     18  C   UNL     1      -1.302   4.312  25.159  0.00  0.00    +0.138 C 
ATOM     19  C   UNL     1      -2.073   4.588  25.248  0.00  0.00    +0.044 C 
ATOM     20  C   UNL     1      -2.551   3.949  25.455  0.00  0.00    +0.091 C 
ATOM     21  C   UNL     1      -2.074   3.276  25.493  0.00  0.00    +0.090 C 
ATOM     22  N   UNL     1      -1.302   3.501  25.311  0.00  0.00    -0.265 NA
ENDROOT
BRANCH  13  12
ATOM     12  C   UNL     1      -0.599   2.261  25.414  0.00  0.00    +0.027 C 
BRANCH  12  11
ATOM     11  C   UNL     1      -0.223   1.743  24.894  0.00  0.00    +0.087 C 
BRANCH  11   9
ATOM      4  C   UNL     1      -0.278  -0.367  24.243  0.00  0.00    +0.105 C 
ATOM      5  C   UNL     1       0.100  -0.640  23.563  0.00  0.00    +0.024 C 
ATOM      6  C   UNL     1       0.476   0.001  23.204  0.00  0.00    +0.023 C 
ATOM      7  C   UNL     1       0.330   0.671  23.663  0.00  0.00    +0.093 C 
ATOM      8  N   UNL     1      -0.136   0.444  24.305  0.00  0.00    -0.279 N 
ATOM      9  C   UNL     1      -0.411   0.939  24.905  0.00  0.00    +0.226 C 
ATOM     10  O   UNL     1      -0.874   0.632  25.514  0.00  0.00    -0.275 OA
BRANCH   4   3
ATOM      3  C   UNL     1      -0.720  -0.823  24.768  0.00  0.00    +0.162 C 
BRANCH   3   2
ATOM      1  C   UNL     1      -1.434  -2.040  24.991  0.00  0.00    +0.174 C 
ATOM      2  O   UNL     1      -0.813  -1.632  24.636  0.00  0.00    -0.349 OA
ENDBRANCH   3   2
ENDBRANCH   4   3
ENDBRANCH  11   9
ENDBRANCH  12  11
ENDBRANCH  13  12
BRANCH  20  23
ATOM     23  N   UNL     1      -3.363   3.976  25.598  0.00  0.00    -0.213 NA
BRANCH  23  24
ATOM     24  C   UNL     1      -3.896   3.848  24.981  0.00  0.00    +0.115 C 
BRANCH  24  25
ATOM     25  C   UNL     1      -4.532   3.333  25.085  0.00  0.00    -0.005 A 
ATOM     26  C   UNL     1      -5.085   3.476  25.679  0.00  0.00    -0.002 A 
ATOM     27  C   UNL     1      -5.721   2.962  25.783  0.00  0.00    +0.014 A 
ATOM     28  C   UNL     1      -5.804   2.303  25.293  0.00  0.00    +0.048 A 
ATOM     29  C   UNL     1      -5.250   2.160  24.699  0.00  0.00    +0.014 A 
ATOM     30  C   UNL     1      -4.614   2.675  24.595  0.00  0.00    -0.002 A 
BRANCH  28  31
ATOM     31  N   UNL     1      -6.441   1.789  25.397  0.00  0.00    -0.304 N 
ATOM     32  C   UNL     1      -6.627   1.511  26.151  0.00  0.00    +0.112 C 
ATOM     33  C   UNL     1      -6.890   1.552  24.748  0.00  0.00    +0.112 C 
ENDBRANCH  28  31
ENDBRANCH  24  25
ENDBRANCH  23  24
ENDBRANCH  20  23
TORSDOF 9
ENDMDL
MODEL 7
REMARK VINA RESULT:      -8.8      1.394      2.212
REMARK  Name = 
REMARK  9 active torsions:
REMARK  status: ('A' for Active; 'I' for Inactive)
REMARK    1  A    between atoms: O_2  and  C_3
REMARK    2  A    between atoms: C_3  and  C_4
REMARK    3  A    between atoms: C_9  and  C_11
REMARK    4  A    between atoms: C_11  and  C_12
REMARK    5  A    between atoms: C_12  and  C_13
REMARK    6  A    between atoms: C_20  and  N_23
REMARK    7  A    between atoms: N_23  and  C_24
REMARK    8  A    between atoms: C_24  and  C_25
REMARK    9  A    between atoms: C_28  and  N_31
REMARK                            x       y       z     vdW  Elec       q    Type
REMARK                         _______ _______ _______ _____ _____    ______ ____
ROOT
ATOM     13  C   UNL     1      -1.462   2.941  24.728  0.00  0.00    +0.080 C 
ATOM     14  C   UNL     1      -1.214   3.621  25.123  0.00  0.00    +0.131 C 
ATOM     15  N   UNL     1      -1.746   4.045  25.590  0.00  0.00    -0.203 NA
ATOM     16  C   UNL     1      -2.526   3.789  25.661  0.00  0.00    +0.256 C 
ATOM     17  O   UNL     1      -3.059   4.213  26.128  0.00  0.00    -0.272 OA
ATOM     18  C   UNL     1      -2.775   3.108  25.266  0.00  0.00    +0.138 C 
ATOM     19  C   UNL     1      -3.505   2.725  25.233  0.00  0.00    +0.044 C 
ATOM     20  C   UNL     1      -3.424   2.065  24.746  0.00  0.00    +0.091 C 
ATOM     21  C   UNL     1      -2.643   2.039  24.478  0.00  0.00    +0.090 C 
ATOM     22  N   UNL     1      -2.243   2.684  24.800  0.00  0.00    -0.265 NA
ENDROOT
BRANCH  13  12
ATOM     12  C   UNL     1      -0.930   2.518  24.262  0.00  0.00    +0.027 C 
BRANCH  12  11
ATOM     11  C   UNL     1      -0.503   1.892  24.588  0.00  0.00    +0.087 C 
BRANCH  11   9
ATOM      4  C   UNL     1       0.591   0.204  23.675  0.00  0.00    +0.105 C 
ATOM      5  C   UNL     1       0.393  -0.586  23.805  0.00  0.00    +0.024 C 
ATOM      6  C   UNL     1      -0.256  -0.607  24.315  0.00  0.00    +0.023 C 
ATOM      7  C   UNL     1      -0.460   0.171  24.499  0.00  0.00    +0.093 C 
ATOM      8  N   UNL     1       0.064   0.672  24.104  0.00  0.00    -0.279 N 
ATOM      9  C   UNL     1       0.061   1.497  24.132  0.00  0.00    +0.226 C 
ATOM     10  O   UNL     1       0.621   1.926  23.706  0.00  0.00    -0.275 OA
BRANCH   4   3
ATOM      3  C   UNL     1       1.207   0.476  23.200  0.00  0.00    +0.162 C 
BRANCH   3   2
ATOM      1  C   UNL     1       2.379   0.186  22.437  0.00  0.00    +0.174 C 
ATOM      2  O   UNL     1       1.667  -0.057  22.772  0.00  0.00    -0.349 OA
ENDBRANCH   3   2
ENDBRANCH   4   3
ENDBRANCH  11   9
ENDBRANCH  12  11
ENDBRANCH  13  12
BRANCH  20  23
ATOM     23  N   UNL     1      -4.018   1.524  24.559  0.00  0.00    -0.213 NA
BRANCH  23  24
ATOM     24  C   UNL     1      -4.234   0.943  25.104  0.00  0.00    +0.115 C 
BRANCH  24  25
ATOM     25  C   UNL     1      -4.161   0.145  24.907  0.00  0.00    -0.005 A 
ATOM     26  C   UNL     1      -3.890  -0.395  25.468  0.00  0.00    -0.002 A 
ATOM     27  C   UNL     1      -3.818  -1.193  25.271  0.00  0.00    +0.014 A 
ATOM     28  C   UNL     1      -4.017  -1.451  24.513  0.00  0.00    +0.048 A 
ATOM     29  C   UNL     1      -4.288  -0.910  23.952  0.00  0.00    +0.014 A 
ATOM     30  C   UNL     1      -4.360  -0.112  24.149  0.00  0.00    -0.002 A 
BRANCH  28  31
ATOM     31  N   UNL     1      -3.944  -2.249  24.317  0.00  0.00    -0.304 N 
ATOM     32  C   UNL     1      -3.456  -2.741  24.762  0.00  0.00    +0.112 C 
ATOM     33  C   UNL     1      -4.361  -2.554  23.674  0.00  0.00    +0.112 C 
ENDBRANCH  28  31
ENDBRANCH  24  25
ENDBRANCH  23  24
ENDBRANCH  20  23
TORSDOF 9
ENDMDL
MODEL 8
REMARK VINA RESULT:      -8.7      1.650      4.985
REMARK  Name = 
REMARK  9 active torsions:
REMARK  status: ('A' for Active; 'I' for Inactive)
REMARK    1  A    between atoms: O_2  and  C_3
REMARK    2  A    between atoms: C_3  and  C_4
REMARK    3  A    between atoms: C_9  and  C_11
REMARK    4  A    between atoms: C_11  and  C_12
REMARK    5  A    between atoms: C_12  and  C_13
REMARK    6  A    between atoms: C_20  and  N_23
REMARK    7  A    between atoms: N_23  and  C_24
REMARK    8  A    between atoms: C_24  and  C_25
REMARK    9  A    between atoms: C_28  and  N_31
REMARK                            x       y       z     vdW  Elec       q    Type
REMARK                         _______ _______ _______ _____ _____    ______ ____
ROOT
ATOM     13  C   UNL     1      -4.862   0.977  24.920  0.00  0.00    +0.080 C 
ATOM     14  C   UNL     1      -5.597   0.605  24.873  0.00  0.00    +0.131 C 
ATOM     15  N   UNL     1      -6.287   1.037  25.005  0.00  0.00    -0.203 NA
ATOM     16  C   UNL     1      -6.242   1.841  25.185  0.00  0.00    +0.256 C 
ATOM     17  O   UNL     1      -6.933   2.273  25.318  0.00  0.00    -0.272 OA
ATOM     18  C   UNL     1      -5.508   2.213  25.233  0.00  0.00    +0.138 C 
ATOM     19  C   UNL     1      -5.293   2.992  25.398  0.00  0.00    +0.044 C 
ATOM     20  C   UNL     1      -4.471   3.042  25.368  0.00  0.00    +0.091 C 
ATOM     21  C   UNL     1      -4.176   2.293  25.184  0.00  0.00    +0.090 C 
ATOM     22  N   UNL     1      -4.817   1.781  25.100  0.00  0.00    -0.265 NA
ENDROOT
BRANCH  13  12
ATOM     12  C   UNL     1      -4.173   0.545  24.788  0.00  0.00    +0.027 C 
BRANCH  12  11
ATOM     11  C   UNL     1      -4.207  -0.276  24.711  0.00  0.00    +0.087 C 
BRANCH  11   9
ATOM      4  C   UNL     1      -2.872  -2.026  24.541  0.00  0.00    +0.105 C 
ATOM      5  C   UNL     1      -3.119  -2.757  24.249  0.00  0.00    +0.024 C 
ATOM      6  C   UNL     1      -3.917  -2.696  24.048  0.00  0.00    +0.023 C 
ATOM      7  C   UNL     1      -4.163  -1.927  24.217  0.00  0.00    +0.093 C 
ATOM      8  N   UNL     1      -3.517  -1.512  24.521  0.00  0.00    -0.279 N 
ATOM      9  C   UNL     1      -3.516  -0.724  24.764  0.00  0.00    +0.226 C 
ATOM     10  O   UNL     1      -2.825  -0.384  25.057  0.00  0.00    -0.275 OA
BRANCH   4   3
ATOM      3  C   UNL     1      -2.113  -1.843  24.805  0.00  0.00    +0.162 C 
BRANCH   3   2
ATOM      1  C   UNL     1      -0.752  -2.221  25.021  0.00  0.00    +0.174 C 
ATOM      2  O   UNL     1      -1.505  -2.395  24.734  0.00  0.00    -0.349 OA
ENDBRANCH   3   2
ENDBRANCH   4   3
ENDBRANCH  11   9
ENDBRANCH  12  11
ENDBRANCH  13  12
BRANCH  20  23
ATOM     23  N   UNL     1      -4.020   3.720  25.499  0.00  0.00    -0.213 NA
BRANCH  23  24
ATOM     24  C   UNL     1      -3.327   3.677  25.944  0.00  0.00    +0.115 C 
BRANCH  24  25
ATOM     25  C   UNL     1      -2.630   4.010  25.655  0.00  0.00    -0.005 A 
ATOM     26  C   UNL     1      -2.630   4.783  25.368  0.00  0.00    -0.002 A 
ATOM     27  C   UNL     1      -1.933   5.116  25.079  0.00  0.00    +0.014 A 
ATOM     28  C   UNL     1      -1.235   4.677  25.078  0.00  0.00    +0.048 A 
ATOM     29  C   UNL     1      -1.235   3.904  25.366  0.00  0.00    +0.014 A 
ATOM     30  C   UNL     1      -1.932   3.570  25.655  0.00  0.00    -0.002 A 
BRANCH  28  31
ATOM     31  N   UNL     1      -0.538   5.010  24.790  0.00  0.00    -0.304 N 
ATOM     32  C   UNL     1       0.056   4.525  24.486  0.00  0.00    +0.112 C 
ATOM     33  C   UNL     1      -0.435   5.828  24.805  0.00  0.00    +0.112 C 
ENDBRANCH  28  31
ENDBRANCH  24  25
ENDBRANCH  23  24
ENDBRANCH  20  23
TORSDOF 9
ENDMDL
MODEL 9
REMARK VINA RESULT:      -8.7      1.668      4.332
REMARK  Name = 
REMARK  9 active torsions:
REMARK  status: ('A' for Active; 'I' for Inactive)
REMARK    1  A    between atoms: O_2  and  C_3
REMARK    2  A    between atoms: C_3  and  C_4
REMARK    3  A    between atoms: C_9  and  C_11
REMARK    4  A    between atoms: C_11  and  C_12
REMARK    5  A    between atoms: C_12  and  C_13
REMARK    6  A    between atoms: C_20  and  N_23
REMARK    7  A    between atoms: N_23  and  C_24
REMARK    8  A    between atoms: C_24  and  C_25
REMARK    9  A    between atoms: C_28  and  N_31
REMARK                            x       y       z     vdW  Elec       q    Type
REMARK                         _______ _______ _______ _____ _____    ______ ____
ROOT
ATOM     13  C   UNL     1      -4.979   1.860  24.966  0.00  0.00    +0.080 C 
ATOM     14  C   UNL     1      -5.735   2.027  25.250  0.00  0.00    +0.131 C 
ATOM     15  N   UNL     1      -5.899   2.766  25.578  0.00  0.00    -0.203 NA
ATOM     16  C   UNL     1      -5.307   3.338  25.622  0.00  0.00    +0.256 C 
ATOM     17  O   UNL     1      -5.471   4.077  25.950  0.00  0.00    -0.272 OA
ATOM     18  C   UNL     1      -4.550   3.172  25.337  0.00  0.00    +0.138 C 
ATOM     19  C   UNL     1      -3.861   3.623  25.307  0.00  0.00    +0.044 C 
ATOM     20  C   UNL     1      -3.270   3.163  24.960  0.00  0.00    +0.091 C 
ATOM     21  C   UNL     1      -3.595   2.427  24.776  0.00  0.00    +0.090 C 
ATOM     22  N   UNL     1      -4.386   2.433  25.009  0.00  0.00    -0.265 NA
ENDROOT
BRANCH  13  12
ATOM     12  C   UNL     1      -4.815   1.121  24.638  0.00  0.00    +0.027 C 
BRANCH  12  11
ATOM     11  C   UNL     1      -4.632   0.484  25.128  0.00  0.00    +0.087 C 
BRANCH  11   9
ATOM      4  C   UNL     1      -3.770  -1.542  24.943  0.00  0.00    +0.105 C 
ATOM      5  C   UNL     1      -3.283  -1.880  25.516  0.00  0.00    +0.024 C 
ATOM      6  C   UNL     1      -3.194  -1.335  26.129  0.00  0.00    +0.023 C 
ATOM      7  C   UNL     1      -3.626  -0.660  25.936  0.00  0.00    +0.093 C 
ATOM      8  N   UNL     1      -3.983  -0.787  25.202  0.00  0.00    -0.279 N 
ATOM      9  C   UNL     1      -4.467  -0.255  24.798  0.00  0.00    +0.226 C 
ATOM     10  O   UNL     1      -4.785  -0.460  24.066  0.00  0.00    -0.275 OA
BRANCH   4   3
ATOM      3  C   UNL     1      -4.003  -1.895  24.236  0.00  0.00    +0.162 C 
BRANCH   3   2
ATOM      1  C   UNL     1      -4.140  -3.080  23.449  0.00  0.00    +0.174 C 
ATOM      2  O   UNL     1      -3.781  -2.672  24.068  0.00  0.00    -0.349 OA
ENDBRANCH   3   2
ENDBRANCH   4   3
ENDBRANCH  11   9
ENDBRANCH  12  11
ENDBRANCH  13  12
BRANCH  20  23
ATOM     23  N   UNL     1      -2.492   3.398  24.821  0.00  0.00    -0.213 NA
BRANCH  23  24
ATOM     24  C   UNL     1      -1.884   3.121  25.306  0.00  0.00    +0.115 C 
BRANCH  24  25
ATOM     25  C   UNL     1      -1.261   2.689  24.982  0.00  0.00    -0.005 A 
ATOM     26  C   UNL     1      -1.025   1.981  25.332  0.00  0.00    -0.002 A 
ATOM     27  C   UNL     1      -0.401   1.549  25.007  0.00  0.00    +0.014 A 
ATOM     28  C   UNL     1      -0.014   1.825  24.333  0.00  0.00    +0.048 A 
ATOM     29  C   UNL     1      -0.251   2.534  23.984  0.00  0.00    +0.014 A 
ATOM     30  C   UNL     1      -0.875   2.966  24.308  0.00  0.00    -0.002 A 
BRANCH  28  31
ATOM     31  N   UNL     1       0.609   1.393  24.009  0.00  0.00    -0.304 N 
ATOM     32  C   UNL     1       1.358   1.732  23.948  0.00  0.00    +0.112 C 
ATOM     33  C   UNL     1       0.483   0.622  23.745  0.00  0.00    +0.112 C 
ENDBRANCH  28  31
ENDBRANCH  24  25
ENDBRANCH  23  24
ENDBRANCH  20  23
TORSDOF 9
ENDMDL
MODEL 10
REMARK VINA RESULT:      -8.6      1.947      4.584
REMARK  Name = 
REMARK  9 active torsions:
REMARK  status: ('A' for Active; 'I' for Inactive)
REMARK    1  A    between atoms: O_2  and  C_3
REMARK    2  A    between atoms: C_3  and  C_4
REMARK    3  A    between atoms: C_9  and  C_11
REMARK    4  A    between atoms: C_11  and  C_12
REMARK    5  A    between atoms: C_12  and  C_13
REMARK    6  A    between atoms: C_20  and  N_23
REMARK    7  A    between atoms: N_23  and  C_24
REMARK    8  A    between atoms: C_24  and  C_25
REMARK    9  A    between atoms: C_28  and  N_31
REMARK                            x       y       z     vdW  Elec       q    Type
REMARK                         _______ _______ _______ _____ _____    ______ ____
ROOT
ATOM     13  C   UNL     1      -3.663   1.950  24.761  0.00  0.00    +0.080 C 
ATOM     14  C   UNL     1      -4.212   2.446  25.125  0.00  0.00    +0.131 C 
ATOM     15  N   UNL     1      -3.974   3.176  25.428  0.00  0.00    -0.203 NA
ATOM     16  C   UNL     1      -3.186   3.409  25.366  0.00  0.00    +0.256 C 
ATOM     17  O   UNL     1      -2.947   4.140  25.669  0.00  0.00    -0.272 OA
ATOM     18  C   UNL     1      -2.635   2.914  25.002  0.00  0.00    +0.138 C 
ATOM     19  C   UNL     1      -1.827   2.996  24.863  0.00  0.00    +0.044 C 
ATOM     20  C   UNL     1      -1.565   2.317  24.474  0.00  0.00    +0.091 C 
ATOM     21  C   UNL     1      -2.213   1.815  24.373  0.00  0.00    +0.090 C 
ATOM     22  N   UNL     1      -2.874   2.184  24.700  0.00  0.00    -0.265 NA
ENDROOT
BRANCH  13  12
ATOM     12  C   UNL     1      -3.901   1.222  24.459  0.00  0.00    +0.027 C 
BRANCH  12  11
ATOM     11  C   UNL     1      -4.037   0.588  24.969  0.00  0.00    +0.087 C 
BRANCH  11   9
ATOM      4  C   UNL     1      -3.827  -1.609  24.874  0.00  0.00    +0.105 C 
ATOM      5  C   UNL     1      -3.480  -2.057  25.473  0.00  0.00    +0.024 C 
ATOM      6  C   UNL     1      -3.244  -1.541  26.073  0.00  0.00    +0.023 C 
ATOM      7  C   UNL     1      -3.447  -0.775  25.845  0.00  0.00    +0.093 C 
ATOM      8  N   UNL     1      -3.807  -0.816  25.103  0.00  0.00    -0.279 N 
ATOM      9  C   UNL     1      -4.096  -0.179  24.667  0.00  0.00    +0.226 C 
ATOM     10  O   UNL     1      -4.444  -0.306  23.931  0.00  0.00    -0.275 OA
BRANCH   4   3
ATOM      3  C   UNL     1      -4.139  -1.903  24.170  0.00  0.00    +0.162 C 
BRANCH   3   2
ATOM      1  C   UNL     1      -4.449  -3.011  23.323  0.00  0.00    +0.174 C 
ATOM      2  O   UNL     1      -4.079  -2.706  23.993  0.00  0.00    -0.349 OA
ENDBRANCH   3   2
ENDBRANCH   4   3
ENDBRANCH  11   9
ENDBRANCH  12  11
ENDBRANCH  13  12
BRANCH  20  23
ATOM     23  N   UNL     1      -0.792   2.166  24.228  0.00  0.00    -0.213 NA
BRANCH  23  24
ATOM     24  C   UNL     1      -0.392   1.501  24.508  0.00  0.00    +0.115 C 
BRANCH  24  25
ATOM     25  C   UNL     1       0.193   1.147  24.046  0.00  0.00    -0.005 A 
ATOM     26  C   UNL     1       0.876   1.566  23.854  0.00  0.00    -0.002 A 
ATOM     27  C   UNL     1       1.461   1.211  23.393  0.00  0.00    +0.014 A 
ATOM     28  C   UNL     1       1.363   0.437  23.124  0.00  0.00    +0.048 A 
ATOM     29  C   UNL     1       0.679   0.019  23.317  0.00  0.00    +0.014 A 
ATOM     30  C   UNL     1       0.094   0.373  23.778  0.00  0.00    -0.002 A 
BRANCH  28  31
ATOM     31  N   UNL     1       1.948   0.083  22.663  0.00  0.00    -0.304 N 
ATOM     32  C   UNL     1       2.709  -0.012  22.965  0.00  0.00    +0.112 C 
ATOM     33  C   UNL     1       1.771  -0.176  21.901  0.00  0.00    +0.112 C 
ENDBRANCH  28  31
ENDBRANCH  24  25
ENDBRANCH  23  24
ENDBRANCH  20  23
TORSDOF 9
ENDMDL
