MODEL 1
REMARK VINA RESULT:     -12.0      0.000      0.000
REMARK  Name = 
REMARK  5 active torsions:
REMARK  status: ('A' for Active; 'I' for Inactive)
REMARK    1  A    between atoms: O_2  and  C_3
REMARK    2  A    between atoms: C_6  and  C_9
REMARK    3  A    between atoms: C_15  and  N_16
REMARK    4  A    between atoms: C_17  and  C_19
REMARK    5  A    between atoms: C_20  and  C_25
REMARK                            x       y       z     vdW  Elec       q    Type
REMARK                         _______ _______ _______ _____ _____    ______ ____
ROOT
ATOM      9  C   UNL     1      -4.533   0.686  24.935  0.00  0.00    +0.048 C 
ATOM     10  C   UNL     1      -5.335   0.874  24.928  0.00  0.00    +0.042 C 
ATOM     11  C   UNL     1      -5.406   1.693  25.004  0.00  0.00    +0.184 C 
ATOM     12  O   UNL     1      -6.112   2.118  25.023  0.00  0.00    -0.220 OA
ATOM     13  C   UNL     1      -4.647   2.010  25.058  0.00  0.00    +0.202 C 
ATOM     14  O   UNL     1      -4.460   2.809  25.140  0.00  0.00    -0.219 OA
ATOM     15  C   UNL     1      -4.106   1.388  25.015  0.00  0.00    +0.132 C 
ENDROOT
BRANCH   9   6
ATOM      3  C   UNL     1      -3.569  -1.587  24.748  0.00  0.00    +0.139 A 
ATOM      4  C   UNL     1      -3.552  -1.190  25.470  0.00  0.00    +0.037 A 
ATOM      5  C   UNL     1      -3.873  -0.433  25.532  0.00  0.00    -0.001 A 
ATOM      6  C   UNL     1      -4.211  -0.072  24.872  0.00  0.00    -0.020 A 
ATOM      7  C   UNL     1      -4.229  -0.469  24.149  0.00  0.00    -0.001 A 
ATOM      8  C   UNL     1      -3.908  -1.227  24.087  0.00  0.00    +0.037 A 
BRANCH   3   2
ATOM      1  C   UNL     1      -2.455  -2.440  24.477  0.00  0.00    +0.252 C 
ATOM      2  O   UNL     1      -3.248  -2.344  24.685  0.00  0.00    -0.471 OA
ENDBRANCH   3   2
ENDBRANCH   9   6
BRANCH  15  16
ATOM     16  N   UNL     1      -3.284   1.456  25.046  0.00  0.00    -0.200 NA
ATOM     17  C   UNL     1      -2.899   2.019  24.583  0.00  0.00    +0.268 C 
ATOM     18  O   UNL     1      -3.336   2.514  24.087  0.00  0.00    -0.268 OA
BRANCH  17  19
ATOM     19  C   UNL     1      -2.078   2.087  24.614  0.00  0.00    +0.096 A 
ATOM     20  C   UNL     1      -1.559   2.002  23.978  0.00  0.00    +0.220 A 
ATOM     21  O   UNL     1      -0.792   2.114  24.258  0.00  0.00    -0.454 OA
ATOM     22  C   UNL     1      -0.835   2.268  25.068  0.00  0.00    +0.123 A 
ATOM     23  C   UNL     1      -0.197   2.414  25.569  0.00  0.00    +0.072 C 
ATOM     24  C   UNL     1      -1.630   2.252  25.288  0.00  0.00    +0.041 A 
BRANCH  20  25
ATOM     25  C   UNL     1      -1.771   1.834  23.199  0.00  0.00    +0.451 C 
ATOM     26  F   UNL     1      -1.984   1.666  22.419  0.00  0.00    -0.163 F 
ATOM     27  F   UNL     1      -1.936   2.633  23.072  0.00  0.00    -0.163 F 
ATOM     28  F   UNL     1      -1.607   1.036  23.326  0.00  0.00    -0.163 F 
ENDBRANCH  20  25
ENDBRANCH  17  19
ENDBRANCH  15  16
TORSDOF 5
ENDMDL
MODEL 2
REMARK VINA RESULT:     -12.0      1.516      3.699
REMARK  Name = 
REMARK  5 active torsions:
REMARK  status: ('A' for Active; 'I' for Inactive)
REMARK    1  A    between atoms: O_2  and  C_3
REMARK    2  A    between atoms: C_6  and  C_9
REMARK    3  A    between atoms: C_15  and  N_16
REMARK    4  A    between atoms: C_17  and  C_19
REMARK    5  A    between atoms: C_20  and  C_25
REMARK                            x       y       z     vdW  Elec       q    Type
REMARK                         _______ _______ _______ _____ _____    ______ ____
ROOT
ATOM      9  C   UNL     1      -3.696   2.109  24.610  0.00  0.00    +0.048 C 
ATOM     10  C   UNL     1      -4.112   2.784  24.838  0.00  0.00    +0.042 C 
ATOM     11  C   UNL     1      -4.893   2.564  24.986  0.00  0.00    +0.184 C 
ATOM     12  O   UNL     1      -5.500   3.067  25.229  0.00  0.00    -0.220 OA
ATOM     13  C   UNL     1      -4.961   1.753  24.850  0.00  0.00    +0.202 C 
ATOM     14  O   UNL     1      -5.647   1.303  24.931  0.00  0.00    -0.219 OA
ATOM     15  C   UNL     1      -4.220   1.472  24.617  0.00  0.00    +0.132 C 
ENDROOT
BRANCH   9   6
ATOM      3  C   UNL     1      -1.297   2.011  24.010  0.00  0.00    +0.139 A 
ATOM      4  C   UNL     1      -1.872   1.924  23.425  0.00  0.00    +0.037 A 
ATOM      5  C   UNL     1      -2.671   1.956  23.625  0.00  0.00    -0.001 A 
ATOM      6  C   UNL     1      -2.896   2.076  24.410  0.00  0.00    -0.020 A 
ATOM      7  C   UNL     1      -2.320   2.164  24.995  0.00  0.00    -0.001 A 
ATOM      8  C   UNL     1      -1.520   2.132  24.795  0.00  0.00    +0.037 A 
BRANCH   3   2
ATOM      1  C   UNL     1       0.017   1.495  24.239  0.00  0.00    +0.252 C 
ATOM      2  O   UNL     1      -0.497   1.979  23.809  0.00  0.00    -0.471 OA
ENDBRANCH   3   2
ENDBRANCH   9   6
BRANCH  15  16
ATOM     16  N   UNL     1      -4.037   0.690  24.425  0.00  0.00    -0.200 NA
ATOM     17  C   UNL     1      -4.239   0.080  24.943  0.00  0.00    +0.268 C 
ATOM     18  O   UNL     1      -4.623   0.252  25.653  0.00  0.00    -0.268 OA
BRANCH  17  19
ATOM     19  C   UNL     1      -4.055  -0.700  24.751  0.00  0.00    +0.096 A 
ATOM     20  C   UNL     1      -3.569  -1.206  25.186  0.00  0.00    +0.220 A 
ATOM     21  O   UNL     1      -3.539  -1.931  24.794  0.00  0.00    -0.454 OA
ATOM     22  C   UNL     1      -4.007  -1.874  24.117  0.00  0.00    +0.123 A 
ATOM     23  C   UNL     1      -4.134  -2.473  23.564  0.00  0.00    +0.072 C 
ATOM     24  C   UNL     1      -4.327  -1.114  24.090  0.00  0.00    +0.041 A 
BRANCH  20  25
ATOM     25  C   UNL     1      -3.180  -1.018  25.889  0.00  0.00    +0.451 C 
ATOM     26  F   UNL     1      -2.791  -0.830  26.592  0.00  0.00    -0.163 F 
ATOM     27  F   UNL     1      -2.481  -0.891  25.469  0.00  0.00    -0.163 F 
ATOM     28  F   UNL     1      -3.879  -1.144  26.309  0.00  0.00    -0.163 F 
ENDBRANCH  20  25
ENDBRANCH  17  19
ENDBRANCH  15  16
TORSDOF 5
ENDMDL
MODEL 3
REMARK VINA RESULT:     -11.3      1.375      1.789
REMARK  Name = 
REMARK  5 active torsions:
REMARK  status: ('A' for Active; 'I' for Inactive)
REMARK    1  A    between atoms: O_2  and  C_3
REMARK    2  A    between atoms: C_6  and  C_9
REMARK    3  A    between atoms: C_15  and  N_16
REMARK    4  A    between atoms: C_17  and  C_19
REMARK    5  A    between atoms: C_20  and  C_25
REMARK                            x       y       z     vdW  Elec       q    Type
REMARK                         _______ _______ _______ _____ _____    ______ ____
ROOT
ATOM      9  C   UNL     1      -3.982   0.677  24.630  0.00  0.00    +0.048 C 
ATOM     10  C   UNL     1      -4.680   1.110  24.707  0.00  0.00    +0.042 C 
ATOM     11  C   UNL     1      -4.518   1.893  24.503  0.00  0.00    +0.184 C 
ATOM     12  O   UNL     1      -5.059   2.516  24.502  0.00  0.00    -0.220 OA
ATOM     13  C   UNL     1      -3.720   1.944  24.298  0.00  0.00    +0.202 C 
ATOM     14  O   UNL     1      -3.324   2.626  24.058  0.00  0.00    -0.219 OA
ATOM     15  C   UNL     1      -3.389   1.193  24.377  0.00  0.00    +0.132 C 
ENDROOT
BRANCH   9   6
ATOM      3  C   UNL     1      -3.714  -1.742  25.076  0.00  0.00    +0.139 A 
ATOM      4  C   UNL     1      -3.856  -1.478  24.308  0.00  0.00    +0.037 A 
ATOM      5  C   UNL     1      -3.945  -0.672  24.159  0.00  0.00    -0.001 A 
ATOM      6  C   UNL     1      -3.893  -0.129  24.778  0.00  0.00    -0.020 A 
ATOM      7  C   UNL     1      -3.750  -0.394  25.547  0.00  0.00    -0.001 A 
ATOM      8  C   UNL     1      -3.661  -1.201  25.696  0.00  0.00    +0.037 A 
BRANCH   3   2
ATOM      1  C   UNL     1      -3.234  -3.029  24.678  0.00  0.00    +0.252 C 
ATOM      2  O   UNL     1      -3.624  -2.549  25.224  0.00  0.00    -0.471 OA
ENDBRANCH   3   2
ENDBRANCH   9   6
BRANCH  15  16
ATOM     16  N   UNL     1      -2.602   0.992  24.229  0.00  0.00    -0.200 NA
ATOM     17  C   UNL     1      -1.993   1.451  24.543  0.00  0.00    +0.268 C 
ATOM     18  O   UNL     1      -2.170   2.111  25.005  0.00  0.00    -0.268 OA
BRANCH  17  19
ATOM     19  C   UNL     1      -1.207   1.250  24.395  0.00  0.00    +0.096 A 
ATOM     20  C   UNL     1      -0.587   1.282  24.939  0.00  0.00    +0.220 A 
ATOM     21  O   UNL     1       0.100   1.033  24.557  0.00  0.00    -0.454 OA
ATOM     22  C   UNL     1      -0.094   0.847  23.776  0.00  0.00    +0.123 A 
ATOM     23  C   UNL     1       0.428   0.575  23.199  0.00  0.00    +0.072 C 
ATOM     24  C   UNL     1      -0.902   0.981  23.676  0.00  0.00    +0.041 A 
BRANCH  20  25
ATOM     25  C   UNL     1      -0.645   1.521  25.726  0.00  0.00    +0.451 C 
ATOM     26  F   UNL     1      -0.703   1.760  26.514  0.00  0.00    -0.163 F 
ATOM     27  F   UNL     1      -0.483   2.299  25.502  0.00  0.00    -0.163 F 
ATOM     28  F   UNL     1      -0.807   0.744  25.950  0.00  0.00    -0.163 F 
ENDBRANCH  20  25
ENDBRANCH  17  19
ENDBRANCH  15  16
TORSDOF 5
ENDMDL
MODEL 4
REMARK VINA RESULT:     -11.2      1.890      4.335
REMARK  Name = 
REMARK  5 active torsions:
REMARK  status: ('A' for Active; 'I' for Inactive)
REMARK    1  A    between atoms: O_2  and  C_3
REMARK    2  A    between atoms: C_6  and  C_9
REMARK    3  A    between atoms: C_15  and  N_16
REMARK    4  A    between atoms: C_17  and  C_19
REMARK    5  A    between atoms: C_20  and  C_25
REMARK                            x       y       z     vdW  Elec       q    Type
REMARK                         _______ _______ _______ _____ _____    ______ ____
ROOT
ATOM      9  C   UNL     1      -2.120   1.665  24.338  0.00  0.00    +0.048 C 
ATOM     10  C   UNL     1      -1.382   2.033  24.334  0.00  0.00    +0.042 C 
ATOM     11  C   UNL     1      -0.810   1.454  24.196  0.00  0.00    +0.184 C 
ATOM     12  O   UNL     1       0.004   1.580  24.148  0.00  0.00    -0.220 OA
ATOM     13  C   UNL     1      -1.194   0.729  24.115  0.00  0.00    +0.202 C 
ATOM     14  O   UNL     1      -0.833   0.002  23.972  0.00  0.00    -0.219 OA
ATOM     15  C   UNL     1      -2.005   0.859  24.203  0.00  0.00    +0.132 C 
ENDROOT
BRANCH   9   6
ATOM      3  C   UNL     1      -4.300   2.782  24.692  0.00  0.00    +0.139 A 
ATOM      4  C   UNL     1      -3.786   2.672  25.327  0.00  0.00    +0.037 A 
ATOM      5  C   UNL     1      -3.059   2.299  25.209  0.00  0.00    -0.001 A 
ATOM      6  C   UNL     1      -2.847   2.037  24.456  0.00  0.00    -0.020 A 
ATOM      7  C   UNL     1      -3.363   2.148  23.821  0.00  0.00    -0.001 A 
ATOM      8  C   UNL     1      -4.089   2.521  23.939  0.00  0.00    +0.037 A 
BRANCH   3   2
ATOM      1  C   UNL     1      -5.529   2.898  25.414  0.00  0.00    +0.252 C 
ATOM      2  O   UNL     1      -5.027   3.154  24.811  0.00  0.00    -0.471 OA
ENDBRANCH   3   2
ENDBRANCH   9   6
BRANCH  15  16
ATOM     16  N   UNL     1      -2.596   0.284  24.162  0.00  0.00    -0.200 NA
ATOM     17  C   UNL     1      -2.521  -0.415  24.595  0.00  0.00    +0.268 C 
ATOM     18  O   UNL     1      -1.857  -0.538  25.067  0.00  0.00    -0.268 OA
BRANCH  17  19
ATOM     19  C   UNL     1      -3.112  -0.989  24.554  0.00  0.00    +0.096 A 
ATOM     20  C   UNL     1      -3.507  -1.325  25.196  0.00  0.00    +0.220 A 
ATOM     21  O   UNL     1      -4.050  -1.872  24.903  0.00  0.00    -0.454 OA
ATOM     22  C   UNL     1      -3.991  -1.875  24.080  0.00  0.00    +0.123 A 
ATOM     23  C   UNL     1      -4.434  -2.341  23.564  0.00  0.00    +0.072 C 
ATOM     24  C   UNL     1      -3.411  -1.329  23.864  0.00  0.00    +0.041 A 
BRANCH  20  25
ATOM     25  C   UNL     1      -3.380  -1.145  25.991  0.00  0.00    +0.451 C 
ATOM     26  F   UNL     1      -3.254  -0.964  26.786  0.00  0.00    -0.163 F 
ATOM     27  F   UNL     1      -2.742  -1.667  26.008  0.00  0.00    -0.163 F 
ATOM     28  F   UNL     1      -4.019  -0.623  25.975  0.00  0.00    -0.163 F 
ENDBRANCH  20  25
ENDBRANCH  17  19
ENDBRANCH  15  16
TORSDOF 5
ENDMDL
MODEL 5
REMARK VINA RESULT:     -11.2      2.031      3.715
REMARK  Name = 
REMARK  5 active torsions:
REMARK  status: ('A' for Active; 'I' for Inactive)
REMARK    1  A    between atoms: O_2  and  C_3
REMARK    2  A    between atoms: C_6  and  C_9
REMARK    3  A    between atoms: C_15  and  N_16
REMARK    4  A    between atoms: C_17  and  C_19
REMARK    5  A    between atoms: C_20  and  C_25
REMARK                            x       y       z     vdW  Elec       q    Type
REMARK                         _______ _______ _______ _____ _____    ______ ____
ROOT
ATOM      9  C   UNL     1      -1.122   3.328  25.077  0.00  0.00    +0.048 C 
ATOM     10  C   UNL     1      -0.581   3.950  25.042  0.00  0.00    +0.042 C 
ATOM     11  C   UNL     1      -1.001   4.658  25.103  0.00  0.00    +0.184 C 
ATOM     12  O   UNL     1      -0.677   5.416  25.093  0.00  0.00    -0.220 OA
ATOM     13  C   UNL     1      -1.802   4.473  25.176  0.00  0.00    +0.202 C 
ATOM     14  O   UNL     1      -2.419   5.015  25.251  0.00  0.00    -0.219 OA
ATOM     15  C   UNL     1      -1.877   3.652  25.159  0.00  0.00    +0.132 C 
ENDROOT
BRANCH   9   6
ATOM      3  C   UNL     1      -0.579   0.917  24.954  0.00  0.00    +0.139 A 
ATOM      4  C   UNL     1      -0.808   1.252  25.672  0.00  0.00    +0.037 A 
ATOM      5  C   UNL     1      -0.989   2.055  25.713  0.00  0.00    -0.001 A 
ATOM      6  C   UNL     1      -0.941   2.524  25.036  0.00  0.00    -0.020 A 
ATOM      7  C   UNL     1      -0.712   2.189  24.317  0.00  0.00    -0.001 A 
ATOM      8  C   UNL     1      -0.531   1.385  24.277  0.00  0.00    +0.037 A 
BRANCH   3   2
ATOM      1  C   UNL     1      -0.983  -0.432  24.707  0.00  0.00    +0.252 C 
ATOM      2  O   UNL     1      -0.398   0.113  24.914  0.00  0.00    -0.471 OA
ENDBRANCH   3   2
ENDBRANCH   9   6
BRANCH  15  16
ATOM     16  N   UNL     1      -2.583   3.228  25.216  0.00  0.00    -0.200 NA
ATOM     17  C   UNL     1      -3.233   3.447  24.757  0.00  0.00    +0.268 C 
ATOM     18  O   UNL     1      -3.177   4.089  24.242  0.00  0.00    -0.268 OA
BRANCH  17  19
ATOM     19  C   UNL     1      -3.939   3.023  24.814  0.00  0.00    +0.096 A 
ATOM     20  C   UNL     1      -4.292   2.586  24.209  0.00  0.00    +0.220 A 
ATOM     21  O   UNL     1      -4.986   2.255  24.507  0.00  0.00    -0.454 OA
ATOM     22  C   UNL     1      -5.063   2.487  25.295  0.00  0.00    +0.123 A 
ATOM     23  C   UNL     1      -5.679   2.281  25.803  0.00  0.00    +0.072 C 
ATOM     24  C   UNL     1      -4.415   2.962  25.485  0.00  0.00    +0.041 A 
BRANCH  20  25
ATOM     25  C   UNL     1      -4.001   2.495  23.443  0.00  0.00    +0.451 C 
ATOM     26  F   UNL     1      -3.710   2.405  22.676  0.00  0.00    -0.163 F 
ATOM     27  F   UNL     1      -4.291   3.242  23.245  0.00  0.00    -0.163 F 
ATOM     28  F   UNL     1      -3.710   1.749  23.641  0.00  0.00    -0.163 F 
ENDBRANCH  20  25
ENDBRANCH  17  19
ENDBRANCH  15  16
TORSDOF 5
ENDMDL
MODEL 6
REMARK VINA RESULT:     -11.0      1.870      3.775
REMARK  Name = 
REMARK  5 active torsions:
REMARK  status: ('A' for Active; 'I' for Inactive)
REMARK    1  A    between atoms: O_2  and  C_3
REMARK    2  A    between atoms: C_6  and  C_9
REMARK    3  A    between atoms: C_15  and  N_16
REMARK    4  A    between atoms: C_17  and  C_19
REMARK    5  A    between atoms: C_20  and  C_25
REMARK                            x       y       z     vdW  Elec       q    Type
REMARK                         _______ _______ _______ _____ _____    ______ ____
ROOT
ATOM      9  C   UNL     1      -2.321   4.040  25.218  0.00  0.00    +0.048 C 
ATOM     10  C   UNL     1      -2.006   4.798  25.138  0.00  0.00    +0.042 C 
ATOM     11  C   UNL     1      -1.185   4.729  25.090  0.00  0.00    +0.184 C 
ATOM     12  O   UNL     1      -0.651   5.352  25.006  0.00  0.00    -0.220 OA
ATOM     13  C   UNL     1      -0.993   3.929  25.140  0.00  0.00    +0.202 C 
ATOM     14  O   UNL     1      -0.232   3.610  25.116  0.00  0.00    -0.219 OA
ATOM     15  C   UNL     1      -1.695   3.502  25.219  0.00  0.00    +0.132 C 
ENDROOT
BRANCH   9   6
ATOM      3  C   UNL     1      -4.723   3.475  25.418  0.00  0.00    +0.139 A 
ATOM      4  C   UNL     1      -4.239   3.461  26.086  0.00  0.00    +0.037 A 
ATOM      5  C   UNL     1      -3.439   3.649  26.019  0.00  0.00    -0.001 A 
ATOM      6  C   UNL     1      -3.122   3.851  25.285  0.00  0.00    -0.020 A 
ATOM      7  C   UNL     1      -3.607   3.865  24.616  0.00  0.00    -0.001 A 
ATOM      8  C   UNL     1      -4.407   3.677  24.683  0.00  0.00    +0.037 A 
BRANCH   3   2
ATOM      1  C   UNL     1      -5.767   2.499  25.449  0.00  0.00    +0.252 C 
ATOM      2  O   UNL     1      -5.523   3.287  25.485  0.00  0.00    -0.471 OA
ENDBRANCH   3   2
ENDBRANCH   9   6
BRANCH  15  16
ATOM     16  N   UNL     1      -1.759   2.682  25.288  0.00  0.00    -0.200 NA
ATOM     17  C   UNL     1      -1.369   2.192  24.752  0.00  0.00    +0.268 C 
ATOM     18  O   UNL     1      -0.914   2.521  24.147  0.00  0.00    -0.268 OA
BRANCH  17  19
ATOM     19  C   UNL     1      -1.433   1.373  24.820  0.00  0.00    +0.096 A 
ATOM     20  C   UNL     1      -1.733   0.860  24.247  0.00  0.00    +0.220 A 
ATOM     21  O   UNL     1      -1.694   0.092  24.547  0.00  0.00    -0.454 OA
ATOM     22  C   UNL     1      -1.371   0.130  25.305  0.00  0.00    +0.123 A 
ATOM     23  C   UNL     1      -1.233  -0.511  25.806  0.00  0.00    +0.072 C 
ATOM     24  C   UNL     1      -1.209   0.921  25.474  0.00  0.00    +0.041 A 
BRANCH  20  25
ATOM     25  C   UNL     1      -2.020   1.077  23.505  0.00  0.00    +0.451 C 
ATOM     26  F   UNL     1      -2.308   1.294  22.763  0.00  0.00    -0.163 F 
ATOM     27  F   UNL     1      -1.248   1.125  23.220  0.00  0.00    -0.163 F 
ATOM     28  F   UNL     1      -2.793   1.028  23.790  0.00  0.00    -0.163 F 
ENDBRANCH  20  25
ENDBRANCH  17  19
ENDBRANCH  15  16
TORSDOF 5
ENDMDL
MODEL 7
REMARK VINA RESULT:     -10.8      1.439      3.535
REMARK  Name = 
REMARK  5 active torsions:
REMARK  status: ('A' for Active; 'I' for Inactive)
REMARK    1  A    between atoms: O_2  and  C_3
REMARK    2  A    between atoms: C_6  and  C_9
REMARK    3  A    between atoms: C_15  and  N_16
REMARK    4  A    between atoms: C_17  and  C_19
REMARK    5  A    between atoms: C_20  and  C_25
REMARK                            x       y       z     vdW  Elec       q    Type
REMARK                         _______ _______ _______ _____ _____    ______ ____
ROOT
ATOM      9  C   UNL     1      -3.879   3.433  25.432  0.00  0.00    +0.048 C 
ATOM     10  C   UNL     1      -4.431   4.046  25.450  0.00  0.00    +0.042 C 
ATOM     11  C   UNL     1      -5.185   3.710  25.457  0.00  0.00    +0.184 C 
ATOM     12  O   UNL     1      -5.899   4.123  25.475  0.00  0.00    -0.220 OA
ATOM     13  C   UNL     1      -5.099   2.890  25.444  0.00  0.00    +0.202 C 
ATOM     14  O   UNL     1      -5.712   2.338  25.446  0.00  0.00    -0.219 OA
ATOM     15  C   UNL     1      -4.292   2.718  25.428  0.00  0.00    +0.132 C 
ENDROOT
BRANCH   9   6
ATOM      3  C   UNL     1      -1.418   3.691  25.395  0.00  0.00    +0.139 A 
ATOM      4  C   UNL     1      -1.794   3.418  26.076  0.00  0.00    +0.037 A 
ATOM      5  C   UNL     1      -2.614   3.332  26.089  0.00  0.00    -0.001 A 
ATOM      6  C   UNL     1      -3.059   3.519  25.420  0.00  0.00    -0.020 A 
ATOM      7  C   UNL     1      -2.682   3.792  24.737  0.00  0.00    -0.001 A 
ATOM      8  C   UNL     1      -1.862   3.878  24.725  0.00  0.00    +0.037 A 
BRANCH   3   2
ATOM      1  C   UNL     1      -0.112   3.109  25.382  0.00  0.00    +0.252 C 
ATOM      2  O   UNL     1      -0.598   3.777  25.383  0.00  0.00    -0.471 OA
ENDBRANCH   3   2
ENDBRANCH   9   6
BRANCH  15  16
ATOM     16  N   UNL     1      -3.957   1.964  25.412  0.00  0.00    -0.200 NA
ATOM     17  C   UNL     1      -4.223   1.406  24.865  0.00  0.00    +0.268 C 
ATOM     18  O   UNL     1      -4.823   1.603  24.335  0.00  0.00    -0.268 OA
BRANCH  17  19
ATOM     19  C   UNL     1      -3.887   0.653  24.849  0.00  0.00    +0.096 A 
ATOM     20  C   UNL     1      -3.453   0.329  24.226  0.00  0.00    +0.220 A 
ATOM     21  O   UNL     1      -3.225  -0.433  24.445  0.00  0.00    -0.454 OA
ATOM     22  C   UNL     1      -3.518  -0.580  25.202  0.00  0.00    +0.123 A 
ATOM     23  C   UNL     1      -3.418  -1.276  25.634  0.00  0.00    +0.072 C 
ATOM     24  C   UNL     1      -3.927   0.091  25.452  0.00  0.00    +0.041 A 
BRANCH  20  25
ATOM     25  C   UNL     1      -3.278   0.701  23.511  0.00  0.00    +0.451 C 
ATOM     26  F   UNL     1      -3.104   1.073  22.796  0.00  0.00    -0.163 F 
ATOM     27  F   UNL     1      -4.034   0.521  23.233  0.00  0.00    -0.163 F 
ATOM     28  F   UNL     1      -2.523   0.881  23.789  0.00  0.00    -0.163 F 
ENDBRANCH  20  25
ENDBRANCH  17  19
ENDBRANCH  15  16
TORSDOF 5
ENDMDL
MODEL 8
REMARK VINA RESULT:     -10.6      1.679      4.309
REMARK  Name = 
REMARK  5 active torsions:
REMARK  status: ('A' for Active; 'I' for Inactive)
REMARK    1  A    between atoms: O_2  and  C_3
REMARK    2  A    between atoms: C_6  and  C_9
REMARK    3  A    between atoms: C_15  and  N_16
REMARK    4  A    between atoms: C_17  and  C_19
REMARK    5  A    between atoms: C_20  and  C_25
REMARK                            x       y       z     vdW  Elec       q    Type
REMARK                         _______ _______ _______ _____ _____    ______ ____
ROOT
ATOM      9  C   UNL     1      -1.175   1.433  24.962  0.00  0.00    +0.048 C 
ATOM     10  C   UNL     1      -0.589   0.858  24.882  0.00  0.00    +0.042 C 
ATOM     11  C   UNL     1      -0.956   0.119  24.869  0.00  0.00    +0.184 C 
ATOM     12  O   UNL     1      -0.576  -0.610  24.797  0.00  0.00    -0.220 OA
ATOM     13  C   UNL     1      -1.769   0.237  24.941  0.00  0.00    +0.202 C 
ATOM     14  O   UNL     1      -2.345  -0.353  24.954  0.00  0.00    -0.219 OA
ATOM     15  C   UNL     1      -1.905   1.049  24.998  0.00  0.00    +0.132 C 
ENDROOT
BRANCH   9   6
ATOM      3  C   UNL     1      -0.810   3.878  25.072  0.00  0.00    +0.139 A 
ATOM      4  C   UNL     1      -0.671   3.472  24.368  0.00  0.00    +0.037 A 
ATOM      5  C   UNL     1      -0.793   2.657  24.331  0.00  0.00    -0.001 A 
ATOM      6  C   UNL     1      -1.053   2.248  24.998  0.00  0.00    -0.020 A 
ATOM      7  C   UNL     1      -1.193   2.655  25.703  0.00  0.00    -0.001 A 
ATOM      8  C   UNL     1      -1.071   3.470  25.740  0.00  0.00    +0.037 A 
BRANCH   3   2
ATOM      1  C   UNL     1      -1.323   5.211  24.998  0.00  0.00    +0.252 C 
ATOM      2  O   UNL     1      -0.689   4.693  25.108  0.00  0.00    -0.471 OA
ENDBRANCH   3   2
ENDBRANCH   9   6
BRANCH  15  16
ATOM     16  N   UNL     1      -2.641   1.413  25.078  0.00  0.00    -0.200 NA
ATOM     17  C   UNL     1      -3.250   1.232  24.552  0.00  0.00    +0.268 C 
ATOM     18  O   UNL     1      -3.122   0.687  23.945  0.00  0.00    -0.268 OA
BRANCH  17  19
ATOM     19  C   UNL     1      -3.985   1.596  24.632  0.00  0.00    +0.096 A 
ATOM     20  C   UNL     1      -4.307   2.158  24.119  0.00  0.00    +0.220 A 
ATOM     21  O   UNL     1      -5.049   2.371  24.409  0.00  0.00    -0.454 OA
ATOM     22  C   UNL     1      -5.187   1.942  25.100  0.00  0.00    +0.123 A 
ATOM     23  C   UNL     1      -5.863   1.985  25.571  0.00  0.00    +0.072 C 
ATOM     24  C   UNL     1      -4.529   1.463  25.238  0.00  0.00    +0.041 A 
BRANCH  20  25
ATOM     25  C   UNL     1      -3.949   2.453  23.437  0.00  0.00    +0.451 C 
ATOM     26  F   UNL     1      -3.591   2.748  22.755  0.00  0.00    -0.163 F 
ATOM     27  F   UNL     1      -4.045   1.720  23.070  0.00  0.00    -0.163 F 
ATOM     28  F   UNL     1      -3.854   3.185  23.804  0.00  0.00    -0.163 F 
ENDBRANCH  20  25
ENDBRANCH  17  19
ENDBRANCH  15  16
TORSDOF 5
ENDMDL
