MODEL 1
REMARK VINA RESULT:     -11.4      0.000      0.000
REMARK  Name = 
REMARK  10 active torsions:
REMARK  status: ('A' for Active; 'I' for Inactive)
REMARK    1  A    between atoms: O_2  and  C_3
REMARK    2  A    between atoms: C_3  and  C_5
REMARK    3  A    between atoms: C_5  and  C_6
REMARK    4  A    between atoms: C_5  and  N_15
REMARK    5  A    between atoms: C_6  and  C_7
REMARK    6  A    between atoms: C_10  and  O_11
REMARK    7  A    between atoms: C_16  and  C_18
REMARK    8  A    between atoms: N_23  and  S_24
REMARK    9  A    between atoms: S_24  and  C_27
REMARK   10  A    between atoms: N_35  and  C_36
REMARK                            x       y       z     vdW  Elec       q    Type
REMARK                         _______ _______ _______ _____ _____    ______ ____
ROOT
ATOM     18  C   UNL     1      -2.115  -0.137  24.929  0.00  0.00    +0.177 C 
ATOM     19  C   UNL     1      -1.403  -0.083  24.517  0.00  0.00    +0.122 C 
ATOM     20  N   UNL     1      -0.985  -0.767  24.325  0.00  0.00    -0.259 N 
ATOM     21  C   UNL     1      -1.279  -1.506  24.545  0.00  0.00    +0.114 C 
ATOM     22  C   UNL     1      -1.992  -1.560  24.958  0.00  0.00    +0.118 C 
ATOM     23  N   UNL     1      -2.410  -0.875  25.150  0.00  0.00    -0.145 NA
ATOM     33  C   UNL     1      -0.273  -0.714  23.913  0.00  0.00    +0.328 C 
ATOM     34  O   UNL     1       0.145  -1.399  23.721  0.00  0.00    -0.250 OA
ATOM     35  N   UNL     1       0.022   0.025  23.693  0.00  0.00    -0.162 NA
ENDROOT
BRANCH  35  36
ATOM     36  C   UNL     1       0.734   0.078  23.281  0.00  0.00    +0.075 A 
ATOM     37  C   UNL     1       1.380   0.463  23.622  0.00  0.00    +0.017 A 
ATOM     38  C   UNL     1       2.093   0.516  23.210  0.00  0.00    +0.001 A 
ATOM     39  C   UNL     1       2.160   0.186  22.457  0.00  0.00    +0.000 A 
ATOM     40  C   UNL     1       1.515  -0.198  22.116  0.00  0.00    +0.001 A 
ATOM     41  C   UNL     1       0.802  -0.252  22.528  0.00  0.00    +0.017 A 
ENDBRANCH  35  36
BRANCH  18  16
ATOM     15  N   UNL     1      -2.466   1.220  24.647  0.00  0.00    -0.194 NA
ATOM     16  C   UNL     1      -2.534   0.548  25.122  0.00  0.00    +0.260 C 
ATOM     17  O   UNL     1      -3.020   0.561  25.788  0.00  0.00    -0.272 OA
BRANCH  15   5
ATOM      5  C   UNL     1      -2.884   1.905  24.839  0.00  0.00    +0.198 C 
BRANCH   5   3
ATOM      3  C   UNL     1      -3.547   2.121  24.397  0.00  0.00    +0.337 C 
ATOM      4  O   UNL     1      -3.497   2.169  23.576  0.00  0.00    -0.248 OA
BRANCH   3   2
ATOM      1  C   UNL     1      -4.956   2.350  24.341  0.00  0.00    +0.256 C 
ATOM      2  O   UNL     1      -4.259   2.288  24.778  0.00  0.00    -0.443 OA
ENDBRANCH   3   2
ENDBRANCH   5   3
BRANCH   5   6
ATOM      6  C   UNL     1      -2.640   2.373  25.472  0.00  0.00    +0.059 C 
BRANCH   6   7
ATOM      7  C   UNL     1      -2.147   3.020  25.340  0.00  0.00    -0.020 A 
ATOM      8  C   UNL     1      -2.378   3.773  25.589  0.00  0.00    -0.001 A 
ATOM      9  C   UNL     1      -1.884   4.421  25.457  0.00  0.00    +0.037 A 
ATOM     10  C   UNL     1      -1.160   4.316  25.076  0.00  0.00    +0.139 A 
ATOM     13  C   UNL     1      -0.929   3.565  24.827  0.00  0.00    +0.037 A 
ATOM     14  C   UNL     1      -1.422   2.917  24.959  0.00  0.00    -0.001 A 
BRANCH  10  11
ATOM     11  O   UNL     1      -0.667   4.964  24.944  0.00  0.00    -0.471 OA
ATOM     12  C   UNL     1      -0.990   5.692  24.729  0.00  0.00    +0.252 C 
ENDBRANCH  10  11
ENDBRANCH   6   7
ENDBRANCH   5   6
ENDBRANCH  15   5
ENDBRANCH  18  16
BRANCH  23  24
ATOM     24  S   UNL     1      -3.122  -0.929  25.562  0.00  0.00    +0.064 S 
ATOM     25  O   UNL     1      -3.835  -0.983  25.975  0.00  0.00    -0.153 OA
ATOM     26  O   UNL     1      -2.834  -0.406  26.131  0.00  0.00    -0.153 OA
BRANCH  24  27
ATOM     27  C   UNL     1      -3.412  -1.453  24.994  0.00  0.00    +0.122 A 
ATOM     28  C   UNL     1      -3.260  -2.261  25.062  0.00  0.00    +0.020 A 
ATOM     29  C   UNL     1      -3.549  -2.785  24.494  0.00  0.00    +0.001 A 
ATOM     30  C   UNL     1      -3.991  -2.501  23.858  0.00  0.00    +0.000 A 
ATOM     31  C   UNL     1      -4.144  -1.693  23.790  0.00  0.00    +0.001 A 
ATOM     32  C   UNL     1      -3.854  -1.169  24.358  0.00  0.00    +0.020 A 
ENDBRANCH  24  27
ENDBRANCH  23  24
TORSDOF 10
ENDMDL
MODEL 2
REMARK VINA RESULT:     -11.3      1.604      4.607
REMARK  Name = 
REMARK  10 active torsions:
REMARK  status: ('A' for Active; 'I' for Inactive)
REMARK    1  A    between atoms: O_2  and  C_3
REMARK    2  A    between atoms: C_3  and  C_5
REMARK    3  A    between atoms: C_5  and  C_6
REMARK    4  A    between atoms: C_5  and  N_15
REMARK    5  A    between atoms: C_6  and  C_7
REMARK    6  A    between atoms: C_10  and  O_11
REMARK    7  A    between atoms: C_16  and  C_18
REMARK    8  A    between atoms: N_23  and  S_24
REMARK    9  A    between atoms: S_24  and  C_27
REMARK   10  A    between atoms: N_35  and  C_36
REMARK                            x       y       z     vdW  Elec       q    Type
REMARK                         _______ _______ _______ _____ _____    ______ ____
ROOT
ATOM     18  C   UNL     1      -3.143   1.900  24.345  0.00  0.00    +0.177 C 
ATOM     19  C   UNL     1      -3.223   1.082  24.413  0.00  0.00    +0.122 C 
ATOM     20  N   UNL     1      -3.974   0.744  24.460  0.00  0.00    -0.259 N 
ATOM     21  C   UNL     1      -4.645   1.223  24.440  0.00  0.00    +0.114 C 
ATOM     22  C   UNL     1      -4.564   2.042  24.372  0.00  0.00    +0.118 C 
ATOM     23  N   UNL     1      -3.813   2.380  24.325  0.00  0.00    -0.145 NA
ATOM     33  C   UNL     1      -4.055  -0.074  24.528  0.00  0.00    +0.328 C 
ATOM     34  O   UNL     1      -4.806  -0.413  24.575  0.00  0.00    -0.250 OA
ATOM     35  N   UNL     1      -3.383  -0.555  24.548  0.00  0.00    -0.162 NA
ENDROOT
BRANCH  35  36
ATOM     36  C   UNL     1      -3.464  -1.373  24.616  0.00  0.00    +0.075 A 
ATOM     37  C   UNL     1      -3.274  -1.748  25.326  0.00  0.00    +0.017 A 
ATOM     38  C   UNL     1      -3.355  -2.566  25.394  0.00  0.00    +0.001 A 
ATOM     39  C   UNL     1      -3.626  -3.009  24.752  0.00  0.00    +0.000 A 
ATOM     40  C   UNL     1      -3.816  -2.634  24.043  0.00  0.00    +0.001 A 
ATOM     41  C   UNL     1      -3.735  -1.815  23.974  0.00  0.00    +0.017 A 
ENDBRANCH  35  36
BRANCH  18  16
ATOM     15  N   UNL     1      -1.751   1.875  24.671  0.00  0.00    -0.194 NA
ATOM     16  C   UNL     1      -2.392   2.238  24.297  0.00  0.00    +0.260 C 
ATOM     17  O   UNL     1      -2.280   2.939  23.877  0.00  0.00    -0.272 OA
BRANCH  15   5
ATOM      5  C   UNL     1      -1.000   2.213  24.623  0.00  0.00    +0.198 C 
BRANCH   5   3
ATOM      3  C   UNL     1      -0.665   2.569  25.289  0.00  0.00    +0.337 C 
ATOM      4  O   UNL     1      -0.364   3.334  25.240  0.00  0.00    -0.248 OA
BRANCH   3   2
ATOM      1  C   UNL     1      -0.301   2.513  26.669  0.00  0.00    +0.256 C 
ATOM      2  O   UNL     1      -0.633   2.158  26.003  0.00  0.00    -0.443 OA
ENDBRANCH   3   2
ENDBRANCH   5   3
BRANCH   5   6
ATOM      6  C   UNL     1      -0.584   2.195  23.912  0.00  0.00    +0.059 C 
BRANCH   6   7
ATOM      7  C   UNL     1      -0.076   1.567  23.746  0.00  0.00    -0.020 A 
ATOM      8  C   UNL     1       0.741   1.686  23.742  0.00  0.00    -0.001 A 
ATOM      9  C   UNL     1       1.248   1.057  23.577  0.00  0.00    +0.037 A 
ATOM     10  C   UNL     1       0.939   0.309  23.415  0.00  0.00    +0.139 A 
ATOM     13  C   UNL     1       0.124   0.190  23.419  0.00  0.00    +0.037 A 
ATOM     14  C   UNL     1      -0.384   0.819  23.584  0.00  0.00    -0.001 A 
BRANCH  10  11
ATOM     11  O   UNL     1       1.447  -0.319  23.250  0.00  0.00    -0.471 OA
ATOM     12  C   UNL     1       1.997  -0.256  22.638  0.00  0.00    +0.252 C 
ENDBRANCH  10  11
ENDBRANCH   6   7
ENDBRANCH   5   6
ENDBRANCH  15   5
ENDBRANCH  18  16
BRANCH  23  24
ATOM     24  S   UNL     1      -3.733   3.198  24.257  0.00  0.00    +0.064 S 
ATOM     25  O   UNL     1      -3.653   4.017  24.189  0.00  0.00    -0.153 OA
ATOM     26  O   UNL     1      -3.264   3.097  23.586  0.00  0.00    -0.153 OA
BRANCH  24  27
ATOM     27  C   UNL     1      -4.202   3.300  24.928  0.00  0.00    +0.122 A 
ATOM     28  C   UNL     1      -5.025   3.284  24.862  0.00  0.00    +0.020 A 
ATOM     29  C   UNL     1      -5.494   3.386  25.533  0.00  0.00    +0.001 A 
ATOM     30  C   UNL     1      -5.141   3.505  26.269  0.00  0.00    +0.000 A 
ATOM     31  C   UNL     1      -4.319   3.521  26.335  0.00  0.00    +0.001 A 
ATOM     32  C   UNL     1      -3.849   3.419  25.664  0.00  0.00    +0.020 A 
ENDBRANCH  24  27
ENDBRANCH  23  24
TORSDOF 10
ENDMDL
MODEL 3
REMARK VINA RESULT:     -11.3      1.542      5.824
REMARK  Name = 
REMARK  10 active torsions:
REMARK  status: ('A' for Active; 'I' for Inactive)
REMARK    1  A    between atoms: O_2  and  C_3
REMARK    2  A    between atoms: C_3  and  C_5
REMARK    3  A    between atoms: C_5  and  C_6
REMARK    4  A    between atoms: C_5  and  N_15
REMARK    5  A    between atoms: C_6  and  C_7
REMARK    6  A    between atoms: C_10  and  O_11
REMARK    7  A    between atoms: C_16  and  C_18
REMARK    8  A    between atoms: N_23  and  S_24
REMARK    9  A    between atoms: S_24  and  C_27
REMARK   10  A    between atoms: N_35  and  C_36
REMARK                            x       y       z     vdW  Elec       q    Type
REMARK                         _______ _______ _______ _____ _____    ______ ____
ROOT
ATOM     18  C   UNL     1      -1.756   2.133  25.458  0.00  0.00    +0.177 C 
ATOM     19  C   UNL     1      -2.578   2.095  25.412  0.00  0.00    +0.122 C 
ATOM     20  N   UNL     1      -3.031   2.773  25.540  0.00  0.00    -0.259 N 
ATOM     21  C   UNL     1      -2.660   3.489  25.716  0.00  0.00    +0.114 C 
ATOM     22  C   UNL     1      -1.837   3.527  25.762  0.00  0.00    +0.118 C 
ATOM     23  N   UNL     1      -1.385   2.849  25.633  0.00  0.00    -0.145 NA
ATOM     33  C   UNL     1      -3.853   2.735  25.494  0.00  0.00    +0.328 C 
ATOM     34  O   UNL     1      -4.305   3.413  25.623  0.00  0.00    -0.250 OA
ATOM     35  N   UNL     1      -4.224   2.019  25.319  0.00  0.00    -0.162 NA
ENDROOT
BRANCH  35  36
ATOM     36  C   UNL     1      -5.047   1.981  25.273  0.00  0.00    +0.075 A 
ATOM     37  C   UNL     1      -5.418   1.965  24.536  0.00  0.00    +0.017 A 
ATOM     38  C   UNL     1      -6.241   1.927  24.490  0.00  0.00    +0.001 A 
ATOM     39  C   UNL     1      -6.693   1.907  25.180  0.00  0.00    +0.000 A 
ATOM     40  C   UNL     1      -6.322   1.923  25.916  0.00  0.00    +0.001 A 
ATOM     41  C   UNL     1      -5.499   1.961  25.963  0.00  0.00    +0.017 A 
ENDBRANCH  35  36
BRANCH  18  16
ATOM     15  N   UNL     1      -1.550   0.894  24.775  0.00  0.00    -0.194 NA
ATOM     16  C   UNL     1      -1.304   1.455  25.329  0.00  0.00    +0.260 C 
ATOM     17  O   UNL     1      -0.607   1.337  25.753  0.00  0.00    -0.272 OA
BRANCH  15   5
ATOM      5  C   UNL     1      -1.097   0.216  24.647  0.00  0.00    +0.198 C 
BRANCH   5   3
ATOM      3  C   UNL     1      -0.609   0.166  23.984  0.00  0.00    +0.337 C 
ATOM      4  O   UNL     1      -0.902   0.362  23.239  0.00  0.00    -0.248 OA
BRANCH   3   2
ATOM      1  C   UNL     1       0.687  -0.052  23.421  0.00  0.00    +0.256 C 
ATOM      2  O   UNL     1       0.174  -0.080  24.067  0.00  0.00    -0.443 OA
ENDBRANCH   3   2
ENDBRANCH   5   3
BRANCH   5   6
ATOM      6  C   UNL     1      -1.134  -0.411  25.180  0.00  0.00    +0.059 C 
BRANCH   6   7
ATOM      7  C   UNL     1      -1.718  -0.989  25.098  0.00  0.00    -0.020 A 
ATOM      8  C   UNL     1      -1.557  -1.682  24.679  0.00  0.00    -0.001 A 
ATOM      9  C   UNL     1      -2.140  -2.260  24.597  0.00  0.00    +0.037 A 
ATOM     10  C   UNL     1      -2.884  -2.144  24.934  0.00  0.00    +0.139 A 
ATOM     13  C   UNL     1      -3.045  -1.452  25.352  0.00  0.00    +0.037 A 
ATOM     14  C   UNL     1      -2.462  -0.875  25.434  0.00  0.00    -0.001 A 
BRANCH  10  11
ATOM     11  O   UNL     1      -3.468  -2.722  24.851  0.00  0.00    -0.471 OA
ATOM     12  C   UNL     1      -3.933  -2.745  24.171  0.00  0.00    +0.252 C 
ENDBRANCH  10  11
ENDBRANCH   6   7
ENDBRANCH   5   6
ENDBRANCH  15   5
ENDBRANCH  18  16
BRANCH  23  24
ATOM     24  S   UNL     1      -0.563   2.887  25.679  0.00  0.00    +0.064 S 
ATOM     25  O   UNL     1       0.261   2.925  25.726  0.00  0.00    -0.153 OA
ATOM     26  O   UNL     1      -0.563   2.253  26.208  0.00  0.00    -0.153 OA
BRANCH  24  27
ATOM     27  C   UNL     1      -0.561   3.520  25.151  0.00  0.00    +0.122 A 
ATOM     28  C   UNL     1      -0.713   4.285  25.423  0.00  0.00    +0.020 A 
ATOM     29  C   UNL     1      -0.712   4.918  24.894  0.00  0.00    +0.001 A 
ATOM     30  C   UNL     1      -0.559   4.787  24.094  0.00  0.00    +0.000 A 
ATOM     31  C   UNL     1      -0.408   4.024  23.823  0.00  0.00    +0.001 A 
ATOM     32  C   UNL     1      -0.409   3.390  24.350  0.00  0.00    +0.020 A 
ENDBRANCH  24  27
ENDBRANCH  23  24
TORSDOF 10
ENDMDL
MODEL 4
REMARK VINA RESULT:     -11.2      1.274      3.836
REMARK  Name = 
REMARK  10 active torsions:
REMARK  status: ('A' for Active; 'I' for Inactive)
REMARK    1  A    between atoms: O_2  and  C_3
REMARK    2  A    between atoms: C_3  and  C_5
REMARK    3  A    between atoms: C_5  and  C_6
REMARK    4  A    between atoms: C_5  and  N_15
REMARK    5  A    between atoms: C_6  and  C_7
REMARK    6  A    between atoms: C_10  and  O_11
REMARK    7  A    between atoms: C_16  and  C_18
REMARK    8  A    between atoms: N_23  and  S_24
REMARK    9  A    between atoms: S_24  and  C_27
REMARK   10  A    between atoms: N_35  and  C_36
REMARK                            x       y       z     vdW  Elec       q    Type
REMARK                         _______ _______ _______ _____ _____    ______ ____
ROOT
ATOM     18  C   UNL     1      -2.374  -0.047  25.222  0.00  0.00    +0.177 C 
ATOM     19  C   UNL     1      -2.929   0.562  25.227  0.00  0.00    +0.122 C 
ATOM     20  N   UNL     1      -3.720   0.398  25.394  0.00  0.00    -0.259 N 
ATOM     21  C   UNL     1      -3.956  -0.375  25.556  0.00  0.00    +0.114 C 
ATOM     22  C   UNL     1      -3.400  -0.985  25.551  0.00  0.00    +0.118 C 
ATOM     23  N   UNL     1      -2.609  -0.821  25.385  0.00  0.00    -0.145 NA
ATOM     33  C   UNL     1      -4.276   1.007  25.399  0.00  0.00    +0.328 C 
ATOM     34  O   UNL     1      -5.067   0.843  25.566  0.00  0.00    -0.250 OA
ATOM     35  N   UNL     1      -4.040   1.782  25.236  0.00  0.00    -0.162 NA
ENDROOT
BRANCH  35  36
ATOM     36  C   UNL     1      -4.597   2.391  25.241  0.00  0.00    +0.075 A 
ATOM     37  C   UNL     1      -4.535   3.001  25.794  0.00  0.00    +0.017 A 
ATOM     38  C   UNL     1      -5.091   3.610  25.799  0.00  0.00    +0.001 A 
ATOM     39  C   UNL     1      -5.708   3.610  25.252  0.00  0.00    +0.000 A 
ATOM     40  C   UNL     1      -5.770   3.001  24.700  0.00  0.00    +0.001 A 
ATOM     41  C   UNL     1      -5.214   2.391  24.694  0.00  0.00    +0.017 A 
ENDBRANCH  35  36
BRANCH  18  16
ATOM     15  N   UNL     1      -1.389   0.725  24.532  0.00  0.00    -0.194 NA
ATOM     16  C   UNL     1      -1.583   0.117  25.056  0.00  0.00    +0.260 C 
ATOM     17  O   UNL     1      -0.985  -0.326  25.412  0.00  0.00    -0.272 OA
BRANCH  15   5
ATOM      5  C   UNL     1      -0.598   0.890  24.365  0.00  0.00    +0.198 C 
BRANCH   5   3
ATOM      3  C   UNL     1      -0.247   0.578  23.686  0.00  0.00    +0.337 C 
ATOM      4  O   UNL     1      -0.633   0.633  22.960  0.00  0.00    -0.248 OA
BRANCH   3   2
ATOM      1  C   UNL     1       0.821  -0.142  23.067  0.00  0.00    +0.256 C 
ATOM      2  O   UNL     1       0.491   0.213  23.734  0.00  0.00    -0.443 OA
ENDBRANCH   3   2
ENDBRANCH   5   3
BRANCH   5   6
ATOM      6  C   UNL     1      -0.159   1.364  24.876  0.00  0.00    +0.059 C 
BRANCH   6   7
ATOM      7  C   UNL     1      -0.318   2.172  24.929  0.00  0.00    -0.020 A 
ATOM      8  C   UNL     1      -0.395   2.530  25.669  0.00  0.00    -0.001 A 
ATOM      9  C   UNL     1      -0.555   3.338  25.721  0.00  0.00    +0.037 A 
ATOM     10  C   UNL     1      -0.638   3.787  25.034  0.00  0.00    +0.139 A 
ATOM     13  C   UNL     1      -0.561   3.429  24.295  0.00  0.00    +0.037 A 
ATOM     14  C   UNL     1      -0.402   2.622  24.243  0.00  0.00    -0.001 A 
BRANCH  10  11
ATOM     11  O   UNL     1      -0.798   4.595  25.086  0.00  0.00    -0.471 OA
ATOM     12  C   UNL     1      -1.573   4.856  25.195  0.00  0.00    +0.252 C 
ENDBRANCH  10  11
ENDBRANCH   6   7
ENDBRANCH   5   6
ENDBRANCH  15   5
ENDBRANCH  18  16
BRANCH  23  24
ATOM     24  S   UNL     1      -2.053  -1.431  25.380  0.00  0.00    +0.064 S 
ATOM     25  O   UNL     1      -1.497  -2.041  25.375  0.00  0.00    -0.153 OA
ATOM     26  O   UNL     1      -1.536  -0.964  25.822  0.00  0.00    -0.153 OA
BRANCH  24  27
ATOM     27  C   UNL     1      -2.569  -1.898  24.938  0.00  0.00    +0.122 A 
ATOM     28  C   UNL     1      -3.101  -2.401  25.321  0.00  0.00    +0.020 A 
ATOM     29  C   UNL     1      -3.617  -2.869  24.880  0.00  0.00    +0.001 A 
ATOM     30  C   UNL     1      -3.602  -2.835  24.055  0.00  0.00    +0.000 A 
ATOM     31  C   UNL     1      -3.072  -2.333  23.673  0.00  0.00    +0.001 A 
ATOM     32  C   UNL     1      -2.555  -1.864  24.114  0.00  0.00    +0.020 A 
ENDBRANCH  24  27
ENDBRANCH  23  24
TORSDOF 10
ENDMDL
MODEL 5
REMARK VINA RESULT:     -10.2      1.620      4.472
REMARK  Name = 
REMARK  10 active torsions:
REMARK  status: ('A' for Active; 'I' for Inactive)
REMARK    1  A    between atoms: O_2  and  C_3
REMARK    2  A    between atoms: C_3  and  C_5
REMARK    3  A    between atoms: C_5  and  C_6
REMARK    4  A    between atoms: C_5  and  N_15
REMARK    5  A    between atoms: C_6  and  C_7
REMARK    6  A    between atoms: C_10  and  O_11
REMARK    7  A    between atoms: C_16  and  C_18
REMARK    8  A    between atoms: N_23  and  S_24
REMARK    9  A    between atoms: S_24  and  C_27
REMARK   10  A    between atoms: N_35  and  C_36
REMARK                            x       y       z     vdW  Elec       q    Type
REMARK                         _______ _______ _______ _____ _____    ______ ____
ROOT
ATOM     18  C   UNL     1      -2.822   2.172  24.121  0.00  0.00    +0.177 C 
ATOM     19  C   UNL     1      -2.172   1.671  24.043  0.00  0.00    +0.122 C 
ATOM     20  N   UNL     1      -1.410   1.986  24.003  0.00  0.00    -0.259 N 
ATOM     21  C   UNL     1      -1.299   2.803  24.041  0.00  0.00    +0.114 C 
ATOM     22  C   UNL     1      -1.950   3.304  24.120  0.00  0.00    +0.118 C 
ATOM     23  N   UNL     1      -2.711   2.989  24.160  0.00  0.00    -0.145 NA
ATOM     33  C   UNL     1      -0.760   1.485  23.924  0.00  0.00    +0.328 C 
ATOM     34  O   UNL     1       0.002   1.801  23.884  0.00  0.00    -0.250 OA
ATOM     35  N   UNL     1      -0.871   0.668  23.886  0.00  0.00    -0.162 NA
ENDROOT
BRANCH  35  36
ATOM     36  C   UNL     1      -0.220   0.167  23.807  0.00  0.00    +0.075 A 
ATOM     37  C   UNL     1      -0.097  -0.437  24.356  0.00  0.00    +0.017 A 
ATOM     38  C   UNL     1       0.554  -0.937  24.278  0.00  0.00    +0.001 A 
ATOM     39  C   UNL     1       1.081  -0.835  23.651  0.00  0.00    +0.000 A 
ATOM     40  C   UNL     1       0.957  -0.232  23.103  0.00  0.00    +0.001 A 
ATOM     41  C   UNL     1       0.306   0.270  23.181  0.00  0.00    +0.017 A 
ENDBRANCH  35  36
BRANCH  18  16
ATOM     15  N   UNL     1      -3.751   1.250  24.695  0.00  0.00    -0.194 NA
ATOM     16  C   UNL     1      -3.583   1.857  24.161  0.00  0.00    +0.260 C 
ATOM     17  O   UNL     1      -4.177   2.148  23.668  0.00  0.00    -0.272 OA
BRANCH  15   5
ATOM      5  C   UNL     1      -4.513   0.935  24.735  0.00  0.00    +0.198 C 
BRANCH   5   3
ATOM      3  C   UNL     1      -5.070   1.267  25.245  0.00  0.00    +0.337 C 
ATOM      4  O   UNL     1      -4.899   1.346  26.048  0.00  0.00    -0.248 OA
BRANCH   3   2
ATOM      1  C   UNL     1      -6.381   1.789  25.469  0.00  0.00    +0.256 C 
ATOM      2  O   UNL     1      -5.798   1.520  24.951  0.00  0.00    -0.443 OA
ENDBRANCH   3   2
ENDBRANCH   5   3
BRANCH   5   6
ATOM      6  C   UNL     1      -4.716   0.289  24.265  0.00  0.00    +0.059 C 
BRANCH   6   7
ATOM      7  C   UNL     1      -4.382  -0.450  24.414  0.00  0.00    -0.020 A 
ATOM      8  C   UNL     1      -4.337  -1.012  23.810  0.00  0.00    -0.001 A 
ATOM      9  C   UNL     1      -4.002  -1.752  23.959  0.00  0.00    +0.037 A 
ATOM     10  C   UNL     1      -3.714  -1.929  24.711  0.00  0.00    +0.139 A 
ATOM     13  C   UNL     1      -3.759  -1.369  25.314  0.00  0.00    +0.037 A 
ATOM     14  C   UNL     1      -4.093  -0.629  25.165  0.00  0.00    -0.001 A 
BRANCH  10  11
ATOM     11  O   UNL     1      -3.380  -2.669  24.860  0.00  0.00    -0.471 OA
ATOM     12  C   UNL     1      -2.662  -2.876  24.510  0.00  0.00    +0.252 C 
ENDBRANCH  10  11
ENDBRANCH   6   7
ENDBRANCH   5   6
ENDBRANCH  15   5
ENDBRANCH  18  16
BRANCH  23  24
ATOM     24  S   UNL     1      -3.361   3.490  24.238  0.00  0.00    +0.064 S 
ATOM     25  O   UNL     1      -4.012   3.992  24.316  0.00  0.00    -0.153 OA
ATOM     26  O   UNL     1      -3.736   3.104  23.613  0.00  0.00    -0.153 OA
BRANCH  24  27
ATOM     27  C   UNL     1      -2.988   3.878  24.863  0.00  0.00    +0.122 A 
ATOM     28  C   UNL     1      -2.446   4.482  24.709  0.00  0.00    +0.020 A 
ATOM     29  C   UNL     1      -2.073   4.869  25.335  0.00  0.00    +0.001 A 
ATOM     30  C   UNL     1      -2.240   4.654  26.113  0.00  0.00    +0.000 A 
ATOM     31  C   UNL     1      -2.781   4.051  26.267  0.00  0.00    +0.001 A 
ATOM     32  C   UNL     1      -3.155   3.662  25.642  0.00  0.00    +0.020 A 
ENDBRANCH  24  27
ENDBRANCH  23  24
TORSDOF 10
ENDMDL
MODEL 6
REMARK VINA RESULT:      -9.9      1.939      4.207
REMARK  Name = 
REMARK  10 active torsions:
REMARK  status: ('A' for Active; 'I' for Inactive)
REMARK    1  A    between atoms: O_2  and  C_3
REMARK    2  A    between atoms: C_3  and  C_5
REMARK    3  A    between atoms: C_5  and  C_6
REMARK    4  A    between atoms: C_5  and  N_15
REMARK    5  A    between atoms: C_6  and  C_7
REMARK    6  A    between atoms: C_10  and  O_11
REMARK    7  A    between atoms: C_16  and  C_18
REMARK    8  A    between atoms: N_23  and  S_24
REMARK    9  A    between atoms: S_24  and  C_27
REMARK   10  A    between atoms: N_35  and  C_36
REMARK                            x       y       z     vdW  Elec       q    Type
REMARK                         _______ _______ _______ _____ _____    ______ ____
ROOT
ATOM     18  C   UNL     1      -1.597   1.558  24.307  0.00  0.00    +0.177 C 
ATOM     19  C   UNL     1      -1.880   0.792  24.417  0.00  0.00    +0.122 C 
ATOM     20  N   UNL     1      -1.411   0.230  24.798  0.00  0.00    -0.259 N 
ATOM     21  C   UNL     1      -0.659   0.434  25.068  0.00  0.00    +0.114 C 
ATOM     22  C   UNL     1      -0.376   1.202  24.957  0.00  0.00    +0.118 C 
ATOM     23  N   UNL     1      -0.845   1.764  24.577  0.00  0.00    -0.145 NA
ATOM     33  C   UNL     1      -1.693  -0.537  24.908  0.00  0.00    +0.328 C 
ATOM     34  O   UNL     1      -1.224  -1.099  25.289  0.00  0.00    -0.250 OA
ATOM     35  N   UNL     1      -2.446  -0.742  24.638  0.00  0.00    -0.162 NA
ENDROOT
BRANCH  35  36
ATOM     36  C   UNL     1      -2.729  -1.510  24.749  0.00  0.00    +0.075 A 
ATOM     37  C   UNL     1      -3.275  -1.665  25.349  0.00  0.00    +0.017 A 
ATOM     38  C   UNL     1      -3.557  -2.432  25.459  0.00  0.00    +0.001 A 
ATOM     39  C   UNL     1      -3.294  -3.044  24.972  0.00  0.00    +0.000 A 
ATOM     40  C   UNL     1      -2.749  -2.888  24.373  0.00  0.00    +0.001 A 
ATOM     41  C   UNL     1      -2.466  -2.121  24.261  0.00  0.00    +0.017 A 
ENDBRANCH  35  36
BRANCH  18  16
ATOM     15  N   UNL     1      -2.888   2.093  24.004  0.00  0.00    -0.194 NA
ATOM     16  C   UNL     1      -2.066   2.120  23.926  0.00  0.00    +0.260 C 
ATOM     17  O   UNL     1      -1.715   2.709  23.468  0.00  0.00    -0.272 OA
BRANCH  15   5
ATOM      5  C   UNL     1      -3.357   2.655  23.624  0.00  0.00    +0.198 C 
BRANCH   5   3
ATOM      3  C   UNL     1      -3.501   2.591  22.814  0.00  0.00    +0.337 C 
ATOM      4  O   UNL     1      -3.561   1.848  22.462  0.00  0.00    -0.248 OA
BRANCH   3   2
ATOM      1  C   UNL     1      -3.691   3.210  21.540  0.00  0.00    +0.256 C 
ATOM      2  O   UNL     1      -3.585   3.272  22.355  0.00  0.00    -0.443 OA
ENDBRANCH   3   2
ENDBRANCH   5   3
BRANCH   5   6
ATOM      6  C   UNL     1      -3.682   3.280  24.053  0.00  0.00    +0.059 C 
BRANCH   6   7
ATOM      7  C   UNL     1      -4.254   3.131  24.628  0.00  0.00    -0.020 A 
ATOM      8  C   UNL     1      -4.260   3.570  25.328  0.00  0.00    -0.001 A 
ATOM      9  C   UNL     1      -4.832   3.421  25.903  0.00  0.00    +0.037 A 
ATOM     10  C   UNL     1      -5.399   2.834  25.779  0.00  0.00    +0.139 A 
ATOM     13  C   UNL     1      -5.393   2.397  25.080  0.00  0.00    +0.037 A 
ATOM     14  C   UNL     1      -4.821   2.545  24.505  0.00  0.00    -0.001 A 
BRANCH  10  11
ATOM     11  O   UNL     1      -5.971   2.686  26.354  0.00  0.00    -0.471 OA
ATOM     12  C   UNL     1      -6.302   1.934  26.423  0.00  0.00    +0.252 C 
ENDBRANCH  10  11
ENDBRANCH   6   7
ENDBRANCH   5   6
ENDBRANCH  15   5
ENDBRANCH  18  16
BRANCH  23  24
ATOM     24  S   UNL     1      -0.562   2.530  24.466  0.00  0.00    +0.064 S 
ATOM     25  O   UNL     1      -0.279   3.298  24.355  0.00  0.00    -0.153 OA
ATOM     26  O   UNL     1      -0.697   2.464  23.655  0.00  0.00    -0.153 OA
BRANCH  24  27
ATOM     27  C   UNL     1      -0.427   2.598  25.277  0.00  0.00    +0.122 A 
ATOM     28  C   UNL     1       0.285   2.331  25.600  0.00  0.00    +0.020 A 
ATOM     29  C   UNL     1       0.421   2.399  26.410  0.00  0.00    +0.001 A 
ATOM     30  C   UNL     1      -0.154   2.732  26.899  0.00  0.00    +0.000 A 
ATOM     31  C   UNL     1      -0.864   2.999  26.577  0.00  0.00    +0.001 A 
ATOM     32  C   UNL     1      -1.001   2.932  25.766  0.00  0.00    +0.020 A 
ENDBRANCH  24  27
ENDBRANCH  23  24
TORSDOF 10
ENDMDL
MODEL 7
REMARK VINA RESULT:      -9.8      1.332      3.939
REMARK  Name = 
REMARK  10 active torsions:
REMARK  status: ('A' for Active; 'I' for Inactive)
REMARK    1  A    between atoms: O_2  and  C_3
REMARK    2  A    between atoms: C_3  and  C_5
REMARK    3  A    between atoms: C_5  and  C_6
REMARK    4  A    between atoms: C_5  and  N_15
REMARK    5  A    between atoms: C_6  and  C_7
REMARK    6  A    between atoms: C_10  and  O_11
REMARK    7  A    between atoms: C_16  and  C_18
REMARK    8  A    between atoms: N_23  and  S_24
REMARK    9  A    between atoms: S_24  and  C_27
REMARK   10  A    between atoms: N_35  and  C_36
REMARK                            x       y       z     vdW  Elec       q    Type
REMARK                         _______ _______ _______ _____ _____    ______ ____
ROOT
ATOM     18  C   UNL     1      -1.728   0.583  25.148  0.00  0.00    +0.177 C 
ATOM     19  C   UNL     1      -1.702   1.406  25.155  0.00  0.00    +0.122 C 
ATOM     20  N   UNL     1      -0.975   1.796  25.155  0.00  0.00    -0.259 N 
ATOM     21  C   UNL     1      -0.273   1.362  25.147  0.00  0.00    +0.114 C 
ATOM     22  C   UNL     1      -0.300   0.537  25.140  0.00  0.00    +0.118 C 
ATOM     23  N   UNL     1      -1.027   0.147  25.140  0.00  0.00    -0.145 NA
ATOM     33  C   UNL     1      -0.948   2.621  25.162  0.00  0.00    +0.328 C 
ATOM     34  O   UNL     1      -0.221   3.010  25.162  0.00  0.00    -0.250 OA
ATOM     35  N   UNL     1      -1.650   3.056  25.169  0.00  0.00    -0.162 NA
ENDROOT
BRANCH  35  36
ATOM     36  C   UNL     1      -1.623   3.880  25.177  0.00  0.00    +0.075 A 
ATOM     37  C   UNL     1      -2.188   4.307  25.601  0.00  0.00    +0.017 A 
ATOM     38  C   UNL     1      -2.162   5.131  25.608  0.00  0.00    +0.001 A 
ATOM     39  C   UNL     1      -1.571   5.529  25.192  0.00  0.00    +0.000 A 
ATOM     40  C   UNL     1      -1.006   5.103  24.768  0.00  0.00    +0.001 A 
ATOM     41  C   UNL     1      -1.032   4.278  24.760  0.00  0.00    +0.017 A 
ENDBRANCH  35  36
BRANCH  18  16
ATOM     15  N   UNL     1      -3.065   0.457  24.658  0.00  0.00    -0.194 NA
ATOM     16  C   UNL     1      -2.455   0.193  25.148  0.00  0.00    +0.260 C 
ATOM     17  O   UNL     1      -2.573  -0.460  25.637  0.00  0.00    -0.272 OA
BRANCH  15   5
ATOM      5  C   UNL     1      -3.792   0.067  24.658  0.00  0.00    +0.198 C 
BRANCH   5   3
ATOM      3  C   UNL     1      -3.965  -0.483  24.068  0.00  0.00    +0.337 C 
ATOM      4  O   UNL     1      -3.840  -0.292  23.275  0.00  0.00    -0.248 OA
BRANCH   3   2
ATOM      1  C   UNL     1      -4.363  -1.803  23.690  0.00  0.00    +0.256 C 
ATOM      2  O   UNL     1      -4.262  -1.226  24.271  0.00  0.00    -0.443 OA
ENDBRANCH   3   2
ENDBRANCH   5   3
BRANCH   5   6
ATOM      6  C   UNL     1      -4.345   0.227  25.247  0.00  0.00    +0.059 C 
BRANCH   6   7
ATOM      7  C   UNL     1      -4.765   0.937  25.237  0.00  0.00    -0.020 A 
ATOM      8  C   UNL     1      -4.673   1.462  24.606  0.00  0.00    -0.001 A 
ATOM      9  C   UNL     1      -5.092   2.173  24.595  0.00  0.00    +0.037 A 
ATOM     10  C   UNL     1      -5.605   2.358  25.215  0.00  0.00    +0.139 A 
ATOM     13  C   UNL     1      -5.697   1.834  25.845  0.00  0.00    +0.037 A 
ATOM     14  C   UNL     1      -5.278   1.124  25.856  0.00  0.00    -0.001 A 
BRANCH  10  11
ATOM     11  O   UNL     1      -6.024   3.068  25.204  0.00  0.00    -0.471 OA
ATOM     12  C   UNL     1      -5.666   3.763  25.466  0.00  0.00    +0.252 C 
ENDBRANCH  10  11
ENDBRANCH   6   7
ENDBRANCH   5   6
ENDBRANCH  15   5
ENDBRANCH  18  16
BRANCH  23  24
ATOM     24  S   UNL     1      -1.053  -0.677  25.133  0.00  0.00    +0.064 S 
ATOM     25  O   UNL     1      -1.079  -1.502  25.126  0.00  0.00    -0.153 OA
ATOM     26  O   UNL     1      -1.562  -0.667  25.783  0.00  0.00    -0.153 OA
BRANCH  24  27
ATOM     27  C   UNL     1      -0.544  -0.688  24.484  0.00  0.00    +0.122 A 
ATOM     28  C   UNL     1       0.272  -0.724  24.600  0.00  0.00    +0.020 A 
ATOM     29  C   UNL     1       0.781  -0.735  23.951  0.00  0.00    +0.001 A 
ATOM     30  C   UNL     1       0.474  -0.710  23.185  0.00  0.00    +0.000 A 
ATOM     31  C   UNL     1      -0.341  -0.675  23.069  0.00  0.00    +0.001 A 
ATOM     32  C   UNL     1      -0.851  -0.664  23.718  0.00  0.00    +0.020 A 
ENDBRANCH  24  27
ENDBRANCH  23  24
TORSDOF 10
ENDMDL
MODEL 8
REMARK VINA RESULT:      -9.6      1.835      4.061
REMARK  Name = 
REMARK  10 active torsions:
REMARK  status: ('A' for Active; 'I' for Inactive)
REMARK    1  A    between atoms: O_2  and  C_3
REMARK    2  A    between atoms: C_3  and  C_5
REMARK    3  A    between atoms: C_5  and  C_6
REMARK    4  A    between atoms: C_5  and  N_15
REMARK    5  A    between atoms: C_6  and  C_7
REMARK    6  A    between atoms: C_10  and  O_11
REMARK    7  A    between atoms: C_16  and  C_18
REMARK    8  A    between atoms: N_23  and  S_24
REMARK    9  A    between atoms: S_24  and  C_27
REMARK   10  A    between atoms: N_35  and  C_36
REMARK                            x       y       z     vdW  Elec       q    Type
REMARK                         _______ _______ _______ _____ _____    ______ ____
ROOT
ATOM     18  C   UNL     1      -1.730   0.731  24.410  0.00  0.00    +0.177 C 
ATOM     19  C   UNL     1      -2.502   0.977  24.566  0.00  0.00    +0.122 C 
ATOM     20  N   UNL     1      -3.125   0.439  24.510  0.00  0.00    -0.259 N 
ATOM     21  C   UNL     1      -2.977  -0.344  24.299  0.00  0.00    +0.114 C 
ATOM     22  C   UNL     1      -2.204  -0.590  24.143  0.00  0.00    +0.118 C 
ATOM     23  N   UNL     1      -1.581  -0.053  24.199  0.00  0.00    -0.145 NA
ATOM     33  C   UNL     1      -3.897   0.684  24.666  0.00  0.00    +0.328 C 
ATOM     34  O   UNL     1      -4.520   0.147  24.610  0.00  0.00    -0.250 OA
ATOM     35  N   UNL     1      -4.046   1.469  24.877  0.00  0.00    -0.162 NA
ENDROOT
BRANCH  35  36
ATOM     36  C   UNL     1      -4.818   1.714  25.032  0.00  0.00    +0.075 A 
ATOM     37  C   UNL     1      -5.236   2.142  24.464  0.00  0.00    +0.017 A 
ATOM     38  C   UNL     1      -6.008   2.387  24.619  0.00  0.00    +0.001 A 
ATOM     39  C   UNL     1      -6.362   2.205  25.342  0.00  0.00    +0.000 A 
ATOM     40  C   UNL     1      -5.944   1.778  25.909  0.00  0.00    +0.001 A 
ATOM     41  C   UNL     1      -5.171   1.532  25.755  0.00  0.00    +0.017 A 
ENDBRANCH  35  36
BRANCH  18  16
ATOM     15  N   UNL     1      -1.100   1.831  25.070  0.00  0.00    -0.194 NA
ATOM     16  C   UNL     1      -1.107   1.268  24.466  0.00  0.00    +0.260 C 
ATOM     17  O   UNL     1      -0.491   1.244  23.918  0.00  0.00    -0.272 OA
BRANCH  15   5
ATOM      5  C   UNL     1      -0.476   2.369  25.126  0.00  0.00    +0.198 C 
BRANCH   5   3
ATOM      3  C   UNL     1       0.070   2.304  25.740  0.00  0.00    +0.337 C 
ATOM      4  O   UNL     1       0.878   2.286  25.575  0.00  0.00    -0.248 OA
BRANCH   3   2
ATOM      1  C   UNL     1       0.354   2.214  27.138  0.00  0.00    +0.256 C 
ATOM      2  O   UNL     1      -0.192   2.256  26.521  0.00  0.00    -0.443 OA
ENDBRANCH   3   2
ENDBRANCH   5   3
BRANCH   5   6
ATOM      6  C   UNL     1      -0.400   2.970  24.567  0.00  0.00    +0.059 C 
BRANCH   6   7
ATOM      7  C   UNL     1      -0.715   3.717  24.720  0.00  0.00    -0.020 A 
ATOM      8  C   UNL     1      -0.243   4.389  24.639  0.00  0.00    -0.001 A 
ATOM      9  C   UNL     1      -0.558   5.136  24.792  0.00  0.00    +0.037 A 
ATOM     10  C   UNL     1      -1.346   5.211  25.026  0.00  0.00    +0.139 A 
ATOM     13  C   UNL     1      -1.818   4.540  25.107  0.00  0.00    +0.037 A 
ATOM     14  C   UNL     1      -1.503   3.793  24.954  0.00  0.00    -0.001 A 
BRANCH  10  11
ATOM     11  O   UNL     1      -1.661   5.958  25.179  0.00  0.00    -0.471 OA
ATOM     12  C   UNL     1      -2.477   6.056  25.246  0.00  0.00    +0.252 C 
ENDBRANCH  10  11
ENDBRANCH   6   7
ENDBRANCH   5   6
ENDBRANCH  15   5
ENDBRANCH  18  16
BRANCH  23  24
ATOM     24  S   UNL     1      -0.810  -0.299  24.043  0.00  0.00    +0.064 S 
ATOM     25  O   UNL     1      -0.037  -0.545  23.887  0.00  0.00    -0.153 OA
ATOM     26  O   UNL     1      -0.710   0.337  23.527  0.00  0.00    -0.153 OA
BRANCH  24  27
ATOM     27  C   UNL     1      -0.908  -0.935  24.559  0.00  0.00    +0.122 A 
ATOM     28  C   UNL     1      -0.677  -0.865  25.349  0.00  0.00    +0.020 A 
ATOM     29  C   UNL     1      -0.775  -1.501  25.864  0.00  0.00    +0.001 A 
ATOM     30  C   UNL     1      -1.103  -2.207  25.592  0.00  0.00    +0.000 A 
ATOM     31  C   UNL     1      -1.333  -2.277  24.803  0.00  0.00    +0.001 A 
ATOM     32  C   UNL     1      -1.236  -1.641  24.286  0.00  0.00    +0.020 A 
ENDBRANCH  24  27
ENDBRANCH  23  24
TORSDOF 10
ENDMDL
MODEL 9
REMARK VINA RESULT:      -9.6      1.786      4.286
REMARK  Name = 
REMARK  10 active torsions:
REMARK  status: ('A' for Active; 'I' for Inactive)
REMARK    1  A    between atoms: O_2  and  C_3
REMARK    2  A    between atoms: C_3  and  C_5
REMARK    3  A    between atoms: C_5  and  C_6
REMARK    4  A    between atoms: C_5  and  N_15
REMARK    5  A    between atoms: C_6  and  C_7
REMARK    6  A    between atoms: C_10  and  O_11
REMARK    7  A    between atoms: C_16  and  C_18
REMARK    8  A    between atoms: N_23  and  S_24
REMARK    9  A    between atoms: S_24  and  C_27
REMARK   10  A    between atoms: N_35  and  C_36
REMARK                            x       y       z     vdW  Elec       q    Type
REMARK                         _______ _______ _______ _____ _____    ______ ____
ROOT
ATOM     18  C   UNL     1      -3.202   1.649  24.116  0.00  0.00    +0.177 C 
ATOM     19  C   UNL     1      -3.278   0.835  24.227  0.00  0.00    +0.122 C 
ATOM     20  N   UNL     1      -4.023   0.503  24.348  0.00  0.00    -0.259 N 
ATOM     21  C   UNL     1      -4.693   0.985  24.359  0.00  0.00    +0.114 C 
ATOM     22  C   UNL     1      -4.616   1.800  24.248  0.00  0.00    +0.118 C 
ATOM     23  N   UNL     1      -3.871   2.132  24.127  0.00  0.00    -0.145 NA
ATOM     33  C   UNL     1      -4.100  -0.310  24.459  0.00  0.00    +0.328 C 
ATOM     34  O   UNL     1      -4.846  -0.642  24.580  0.00  0.00    -0.250 OA
ATOM     35  N   UNL     1      -3.430  -0.793  24.448  0.00  0.00    -0.162 NA
ENDROOT
BRANCH  35  36
ATOM     36  C   UNL     1      -3.507  -1.607  24.558  0.00  0.00    +0.075 A 
ATOM     37  C   UNL     1      -3.281  -1.948  25.275  0.00  0.00    +0.017 A 
ATOM     38  C   UNL     1      -3.357  -2.762  25.386  0.00  0.00    +0.001 A 
ATOM     39  C   UNL     1      -3.660  -3.234  24.781  0.00  0.00    +0.000 A 
ATOM     40  C   UNL     1      -3.886  -2.893  24.065  0.00  0.00    +0.001 A 
ATOM     41  C   UNL     1      -3.809  -2.079  23.954  0.00  0.00    +0.017 A 
ENDBRANCH  35  36
BRANCH  18  16
ATOM     15  N   UNL     1      -1.805   1.698  24.416  0.00  0.00    -0.194 NA
ATOM     16  C   UNL     1      -2.456   1.981  23.995  0.00  0.00    +0.260 C 
ATOM     17  O   UNL     1      -2.361   2.595  23.452  0.00  0.00    -0.272 OA
BRANCH  15   5
ATOM      5  C   UNL     1      -1.059   2.030  24.295  0.00  0.00    +0.198 C 
BRANCH   5   3
ATOM      3  C   UNL     1      -0.539   1.687  23.754  0.00  0.00    +0.337 C 
ATOM      4  O   UNL     1      -0.168   2.155  23.185  0.00  0.00    -0.248 OA
BRANCH   3   2
ATOM      1  C   UNL     1       0.187   0.545  23.295  0.00  0.00    +0.256 C 
ATOM      2  O   UNL     1      -0.391   0.876  23.782  0.00  0.00    -0.443 OA
ENDBRANCH   3   2
ENDBRANCH   5   3
BRANCH   5   6
ATOM      6  C   UNL     1      -0.835   2.703  24.714  0.00  0.00    +0.059 C 
BRANCH   6   7
ATOM      7  C   UNL     1      -0.472   2.628  25.451  0.00  0.00    -0.020 A 
ATOM      8  C   UNL     1      -0.746   2.067  25.991  0.00  0.00    -0.001 A 
ATOM      9  C   UNL     1      -0.383   1.991  26.728  0.00  0.00    +0.037 A 
ATOM     10  C   UNL     1       0.254   2.478  26.926  0.00  0.00    +0.139 A 
ATOM     13  C   UNL     1       0.528   3.038  26.387  0.00  0.00    +0.037 A 
ATOM     14  C   UNL     1       0.165   3.113  25.650  0.00  0.00    -0.001 A 
BRANCH  10  11
ATOM     11  O   UNL     1       0.617   2.402  27.663  0.00  0.00    -0.471 OA
ATOM     12  C   UNL     1       1.354   2.746  27.797  0.00  0.00    +0.252 C 
ENDBRANCH  10  11
ENDBRANCH   6   7
ENDBRANCH   5   6
ENDBRANCH  15   5
ENDBRANCH  18  16
BRANCH  23  24
ATOM     24  S   UNL     1      -3.795   2.945  24.017  0.00  0.00    +0.064 S 
ATOM     25  O   UNL     1      -3.719   3.760  23.906  0.00  0.00    -0.153 OA
ATOM     26  O   UNL     1      -3.359   2.811  23.329  0.00  0.00    -0.153 OA
BRANCH  24  27
ATOM     27  C   UNL     1      -4.231   3.080  24.704  0.00  0.00    +0.122 A 
ATOM     28  C   UNL     1      -5.055   3.038  24.684  0.00  0.00    +0.020 A 
ATOM     29  C   UNL     1      -5.491   3.173  25.371  0.00  0.00    +0.001 A 
ATOM     30  C   UNL     1      -5.103   3.349  26.078  0.00  0.00    +0.000 A 
ATOM     31  C   UNL     1      -4.280   3.391  26.098  0.00  0.00    +0.001 A 
ATOM     32  C   UNL     1      -3.843   3.256  25.411  0.00  0.00    +0.020 A 
ENDBRANCH  24  27
ENDBRANCH  23  24
TORSDOF 10
ENDMDL
