MODEL 1
REMARK VINA RESULT:     -17.1      0.000      0.000
REMARK  Name = 
REMARK  2 active torsions:
REMARK  status: ('A' for Active; 'I' for Inactive)
REMARK    1  A    between atoms: C_5  and  N_6
REMARK    2  A    between atoms: C_18  and  C_23
REMARK                            x       y       z     vdW  Elec       q    Type
REMARK                         _______ _______ _______ _____ _____    ______ ____
ROOT
ATOM      6  N   UNL     1      -1.909   1.827  24.911  0.00  0.00    -0.162 NA
ATOM      7  C   UNL     1      -2.732   1.855  24.951  0.00  0.00    +0.327 C 
ATOM      8  O   UNL     1      -3.172   1.158  24.908  0.00  0.00    -0.250 OA
ATOM      9  N   UNL     1      -3.116   2.582  25.033  0.00  0.00    -0.262 N 
ATOM     10  C   UNL     1      -3.211   3.408  25.111  0.00  0.00    +0.097 C 
ATOM     11  C   UNL     1      -4.197   3.456  25.159  0.00  0.00    +0.043 C 
ATOM     12  C   UNL     1      -4.983   3.664  25.212  0.00  0.00    +0.011 C 
ATOM     13  C   UNL     1      -4.605   3.077  25.143  0.00  0.00    +0.058 C 
ATOM     14  C   UNL     1      -3.652   3.046  25.098  0.00  0.00    +0.101 C 
ATOM     15  C   UNL     1      -4.697   2.165  25.066  0.00  0.00    +0.041 A 
ATOM     16  C   UNL     1      -5.277   1.580  25.039  0.00  0.00    +0.013 A 
ATOM     17  C   UNL     1      -5.061   0.788  24.959  0.00  0.00    +0.006 A 
ATOM     18  C   UNL     1      -4.264   0.582  24.905  0.00  0.00    +0.056 A 
ATOM     19  C   UNL     1      -3.683   1.167  24.931  0.00  0.00    +0.261 A 
ATOM     20  O   UNL     1      -2.990   0.725  24.861  0.00  0.00    -0.267 OA
ATOM     21  N   UNL     1      -3.900   1.959  25.012  0.00  0.00    -0.299 N 
ATOM     22  C   UNL     1      -4.283   2.504  25.077  0.00  0.00    +0.110 C 
ENDROOT
BRANCH   6   5
ATOM      1 CL   UNL     1      -0.374  -1.077  24.584  0.00  0.00    -0.082 Cl
ATOM      2  C   UNL     1      -0.757  -0.351  24.665  0.00  0.00    +0.058 A 
ATOM      3  C   UNL     1      -0.972   0.080  23.996  0.00  0.00    +0.013 A 
ATOM      4  C   UNL     1      -1.356   0.806  24.077  0.00  0.00    +0.018 A 
ATOM      5  C   UNL     1      -1.525   1.100  24.830  0.00  0.00    +0.075 A 
ATOM     30  C   UNL     1      -1.310   0.669  25.500  0.00  0.00    +0.018 A 
ATOM     31  C   UNL     1      -0.926  -0.056  25.417  0.00  0.00    +0.013 A 
ENDBRANCH   6   5
BRANCH  18  23
ATOM     23  C   UNL     1      -4.048  -0.210  24.825  0.00  0.00    +0.005 A 
ATOM     24  C   UNL     1      -3.998  -0.550  24.074  0.00  0.00    +0.001 A 
ATOM     25  C   UNL     1      -3.783  -1.342  23.993  0.00  0.00    +0.011 A 
ATOM     26  C   UNL     1      -3.617  -1.794  24.662  0.00  0.00    +0.058 A 
ATOM     27 CL   UNL     1      -3.401  -2.587  24.581  0.00  0.00    -0.082 Cl
ATOM     28  C   UNL     1      -3.666  -1.456  25.413  0.00  0.00    +0.011 A 
ATOM     29  C   UNL     1      -3.882  -0.663  25.494  0.00  0.00    +0.001 A 
ENDBRANCH  18  23
TORSDOF 2
ENDMDL
MODEL 2
REMARK VINA RESULT:     -16.7      1.864      3.632
REMARK  Name = 
REMARK  2 active torsions:
REMARK  status: ('A' for Active; 'I' for Inactive)
REMARK    1  A    between atoms: C_5  and  N_6
REMARK    2  A    between atoms: C_18  and  C_23
REMARK                            x       y       z     vdW  Elec       q    Type
REMARK                         _______ _______ _______ _____ _____    ______ ____
ROOT
ATOM      6  N   UNL     1      -1.090  -0.423  24.908  0.00  0.00    -0.162 NA
ATOM      7  C   UNL     1      -1.861  -0.659  24.737  0.00  0.00    +0.327 C 
ATOM      8  O   UNL     1      -2.440  -0.094  24.574  0.00  0.00    -0.250 OA
ATOM      9  N   UNL     1      -2.054  -1.462  24.728  0.00  0.00    -0.262 N 
ATOM     10  C   UNL     1      -1.952  -2.288  24.791  0.00  0.00    +0.097 C 
ATOM     11  C   UNL     1      -2.872  -2.585  24.587  0.00  0.00    +0.043 C 
ATOM     12  C   UNL     1      -3.566  -2.986  24.441  0.00  0.00    +0.011 C 
ATOM     13  C   UNL     1      -3.346  -2.320  24.463  0.00  0.00    +0.058 C 
ATOM     14  C   UNL     1      -2.452  -2.049  24.661  0.00  0.00    +0.101 C 
ATOM     15  C   UNL     1      -3.646  -1.458  24.352  0.00  0.00    +0.041 A 
ATOM     16  C   UNL     1      -4.331  -1.037  24.171  0.00  0.00    +0.013 A 
ATOM     17  C   UNL     1      -4.311  -0.213  24.137  0.00  0.00    +0.006 A 
ATOM     18  C   UNL     1      -3.606   0.190  24.285  0.00  0.00    +0.056 A 
ATOM     19  C   UNL     1      -2.921  -0.232  24.466  0.00  0.00    +0.261 A 
ATOM     20  O   UNL     1      -2.370   0.373  24.569  0.00  0.00    -0.267 OA
ATOM     21  N   UNL     1      -2.941  -1.056  24.500  0.00  0.00    -0.299 N 
ATOM     22  C   UNL     1      -3.176  -1.682  24.473  0.00  0.00    +0.110 C 
ENDROOT
BRANCH   6   5
ATOM      1 CL   UNL     1      -0.318   2.786  24.942  0.00  0.00    -0.082 Cl
ATOM      2  C   UNL     1      -0.511   1.984  24.934  0.00  0.00    +0.058 A 
ATOM      3  C   UNL     1      -0.774   1.615  25.623  0.00  0.00    +0.013 A 
ATOM      4  C   UNL     1      -0.967   0.814  25.615  0.00  0.00    +0.018 A 
ATOM      5  C   UNL     1      -0.897   0.380  24.916  0.00  0.00    +0.075 A 
ATOM     30  C   UNL     1      -0.634   0.748  24.226  0.00  0.00    +0.018 A 
ATOM     31  C   UNL     1      -0.441   1.550  24.235  0.00  0.00    +0.013 A 
ENDBRANCH   6   5
BRANCH  18  23
ATOM     23  C   UNL     1      -3.588   1.014  24.251  0.00  0.00    +0.005 A 
ATOM     24  C   UNL     1      -3.761   1.457  24.925  0.00  0.00    +0.001 A 
ATOM     25  C   UNL     1      -3.743   2.282  24.892  0.00  0.00    +0.011 A 
ATOM     26  C   UNL     1      -3.551   2.662  24.186  0.00  0.00    +0.058 A 
ATOM     27 CL   UNL     1      -3.532   3.487  24.153  0.00  0.00    -0.082 Cl
ATOM     28  C   UNL     1      -3.377   2.219  23.512  0.00  0.00    +0.011 A 
ATOM     29  C   UNL     1      -3.396   1.394  23.545  0.00  0.00    +0.001 A 
ENDBRANCH  18  23
TORSDOF 2
ENDMDL
MODEL 3
REMARK VINA RESULT:     -16.4      0.674      2.465
REMARK  Name = 
REMARK  2 active torsions:
REMARK  status: ('A' for Active; 'I' for Inactive)
REMARK    1  A    between atoms: C_5  and  N_6
REMARK    2  A    between atoms: C_18  and  C_23
REMARK                            x       y       z     vdW  Elec       q    Type
REMARK                         _______ _______ _______ _____ _____    ______ ____
ROOT
ATOM      6  N   UNL     1      -4.740   0.170  25.073  0.00  0.00    -0.162 NA
ATOM      7  C   UNL     1      -4.470   0.949  25.067  0.00  0.00    +0.327 C 
ATOM      8  O   UNL     1      -3.673   1.108  24.918  0.00  0.00    -0.250 OA
ATOM      9  N   UNL     1      -4.995   1.569  25.208  0.00  0.00    -0.262 N 
ATOM     10  C   UNL     1      -5.716   1.957  25.375  0.00  0.00    +0.097 C 
ATOM     11  C   UNL     1      -5.404   2.895  25.370  0.00  0.00    +0.043 C 
ATOM     12  C   UNL     1      -5.310   3.703  25.400  0.00  0.00    +0.011 C 
ATOM     13  C   UNL     1      -4.910   3.138  25.286  0.00  0.00    +0.058 C 
ATOM     14  C   UNL     1      -5.226   2.237  25.295  0.00  0.00    +0.101 C 
ATOM     15  C   UNL     1      -4.044   2.895  25.099  0.00  0.00    +0.041 A 
ATOM     16  C   UNL     1      -3.299   3.225  24.971  0.00  0.00    +0.013 A 
ATOM     17  C   UNL     1      -2.653   2.737  24.813  0.00  0.00    +0.006 A 
ATOM     18  C   UNL     1      -2.752   1.918  24.784  0.00  0.00    +0.056 A 
ATOM     19  C   UNL     1      -3.497   1.588  24.912  0.00  0.00    +0.261 A 
ATOM     20  O   UNL     1      -3.343   0.781  24.832  0.00  0.00    -0.267 OA
ATOM     21  N   UNL     1      -4.142   2.076  25.069  0.00  0.00    -0.299 N 
ATOM     22  C   UNL     1      -4.502   2.631  25.174  0.00  0.00    +0.110 C 
ENDROOT
BRANCH   6   5
ATOM      1 CL   UNL     1      -2.640  -2.312  24.506  0.00  0.00    -0.082 Cl
ATOM      2  C   UNL     1      -3.165  -1.692  24.647  0.00  0.00    +0.058 A 
ATOM      3  C   UNL     1      -3.576  -1.347  24.021  0.00  0.00    +0.013 A 
ATOM      4  C   UNL     1      -4.101  -0.727  24.162  0.00  0.00    +0.018 A 
ATOM      5  C   UNL     1      -4.215  -0.451  24.932  0.00  0.00    +0.075 A 
ATOM     30  C   UNL     1      -3.805  -0.796  25.559  0.00  0.00    +0.018 A 
ATOM     31  C   UNL     1      -3.280  -1.416  25.417  0.00  0.00    +0.013 A 
ENDBRANCH   6   5
BRANCH  18  23
ATOM     23  C   UNL     1      -2.106   1.431  24.626  0.00  0.00    +0.005 A 
ATOM     24  C   UNL     1      -1.918   1.235  23.846  0.00  0.00    +0.001 A 
ATOM     25  C   UNL     1      -1.271   0.748  23.688  0.00  0.00    +0.011 A 
ATOM     26  C   UNL     1      -0.813   0.456  24.308  0.00  0.00    +0.058 A 
ATOM     27 CL   UNL     1      -0.166  -0.033  24.149  0.00  0.00    -0.082 Cl
ATOM     28  C   UNL     1      -1.001   0.650  25.088  0.00  0.00    +0.011 A 
ATOM     29  C   UNL     1      -1.648   1.138  25.246  0.00  0.00    +0.001 A 
ENDBRANCH  18  23
TORSDOF 2
ENDMDL
MODEL 4
REMARK VINA RESULT:     -16.2      0.969      2.794
REMARK  Name = 
REMARK  2 active torsions:
REMARK  status: ('A' for Active; 'I' for Inactive)
REMARK    1  A    between atoms: C_5  and  N_6
REMARK    2  A    between atoms: C_18  and  C_23
REMARK                            x       y       z     vdW  Elec       q    Type
REMARK                         _______ _______ _______ _____ _____    ______ ____
ROOT
ATOM      6  N   UNL     1      -3.757   1.708  24.672  0.00  0.00    -0.162 NA
ATOM      7  C   UNL     1      -3.031   2.036  24.883  0.00  0.00    +0.327 C 
ATOM      8  O   UNL     1      -2.375   1.548  24.997  0.00  0.00    -0.250 OA
ATOM      9  N   UNL     1      -2.959   2.853  24.979  0.00  0.00    -0.262 N 
ATOM     10  C   UNL     1      -3.182   3.657  25.001  0.00  0.00    +0.097 C 
ATOM     11  C   UNL     1      -2.317   4.063  25.253  0.00  0.00    +0.043 C 
ATOM     12  C   UNL     1      -1.691   4.543  25.454  0.00  0.00    +0.011 C 
ATOM     13  C   UNL     1      -1.809   3.858  25.359  0.00  0.00    +0.058 C 
ATOM     14  C   UNL     1      -2.652   3.481  25.115  0.00  0.00    +0.101 C 
ATOM     15  C   UNL     1      -1.386   3.043  25.385  0.00  0.00    +0.041 A 
ATOM     16  C   UNL     1      -0.647   2.710  25.535  0.00  0.00    +0.013 A 
ATOM     17  C   UNL     1      -0.544   1.893  25.481  0.00  0.00    +0.006 A 
ATOM     18  C   UNL     1      -1.181   1.409  25.278  0.00  0.00    +0.056 A 
ATOM     19  C   UNL     1      -1.920   1.742  25.128  0.00  0.00    +0.261 A 
ATOM     20  O   UNL     1      -2.376   1.078  24.952  0.00  0.00    -0.267 OA
ATOM     21  N   UNL     1      -2.023   2.559  25.181  0.00  0.00    -0.299 N 
ATOM     22  C   UNL     1      -1.883   3.207  25.278  0.00  0.00    +0.110 C 
ENDROOT
BRANCH   6   5
ATOM      1 CL   UNL     1      -4.045  -1.557  24.287  0.00  0.00    -0.082 Cl
ATOM      2  C   UNL     1      -3.974  -0.741  24.384  0.00  0.00    +0.058 A 
ATOM      3  C   UNL     1      -4.117  -0.398  25.119  0.00  0.00    +0.013 A 
ATOM      4  C   UNL     1      -4.046   0.418  25.216  0.00  0.00    +0.018 A 
ATOM      5  C   UNL     1      -3.829   0.892  24.576  0.00  0.00    +0.075 A 
ATOM     30  C   UNL     1      -3.685   0.549  23.839  0.00  0.00    +0.018 A 
ATOM     31  C   UNL     1      -3.757  -0.267  23.743  0.00  0.00    +0.013 A 
ENDBRANCH   6   5
BRANCH  18  23
ATOM     23  C   UNL     1      -1.077   0.593  25.225  0.00  0.00    +0.005 A 
ATOM     24  C   UNL     1      -0.839   0.253  24.512  0.00  0.00    +0.001 A 
ATOM     25  C   UNL     1      -0.735  -0.563  24.457  0.00  0.00    +0.011 A 
ATOM     26  C   UNL     1      -0.870  -1.040  25.116  0.00  0.00    +0.058 A 
ATOM     27 CL   UNL     1      -0.766  -1.858  25.063  0.00  0.00    -0.082 Cl
ATOM     28  C   UNL     1      -1.109  -0.702  25.830  0.00  0.00    +0.011 A 
ATOM     29  C   UNL     1      -1.213   0.116  25.884  0.00  0.00    +0.001 A 
ENDBRANCH  18  23
TORSDOF 2
ENDMDL
MODEL 5
REMARK VINA RESULT:     -16.2      1.713      4.068
REMARK  Name = 
REMARK  2 active torsions:
REMARK  status: ('A' for Active; 'I' for Inactive)
REMARK    1  A    between atoms: C_5  and  N_6
REMARK    2  A    between atoms: C_18  and  C_23
REMARK                            x       y       z     vdW  Elec       q    Type
REMARK                         _______ _______ _______ _____ _____    ______ ____
ROOT
ATOM      6  N   UNL     1      -4.039   0.501  24.088  0.00  0.00    -0.162 NA
ATOM      7  C   UNL     1      -3.544  -0.135  24.259  0.00  0.00    +0.327 C 
ATOM      8  O   UNL     1      -2.760  -0.001  24.479  0.00  0.00    -0.250 OA
ATOM      9  N   UNL     1      -3.833  -0.907  24.210  0.00  0.00    -0.262 N 
ATOM     10  C   UNL     1      -4.375  -1.529  24.081  0.00  0.00    +0.097 C 
ATOM     11  C   UNL     1      -3.792  -2.301  24.283  0.00  0.00    +0.043 C 
ATOM     12  C   UNL     1      -3.451  -3.029  24.414  0.00  0.00    +0.011 C 
ATOM     13  C   UNL     1      -3.260  -2.354  24.439  0.00  0.00    +0.058 C 
ATOM     14  C   UNL     1      -3.835  -1.619  24.241  0.00  0.00    +0.101 C 
ATOM     15  C   UNL     1      -2.538  -1.816  24.623  0.00  0.00    +0.041 A 
ATOM     16  C   UNL     1      -1.747  -1.862  24.853  0.00  0.00    +0.013 A 
ATOM     17  C   UNL     1      -1.306  -1.172  24.950  0.00  0.00    +0.006 A 
ATOM     18  C   UNL     1      -1.655  -0.436  24.817  0.00  0.00    +0.056 A 
ATOM     19  C   UNL     1      -2.446  -0.390  24.587  0.00  0.00    +0.261 A 
ATOM     20  O   UNL     1      -2.558   0.424  24.519  0.00  0.00    -0.267 OA
ATOM     21  N   UNL     1      -2.887  -1.080  24.490  0.00  0.00    -0.299 N 
ATOM     22  C   UNL     1      -3.044  -1.731  24.474  0.00  0.00    +0.110 C 
ENDROOT
BRANCH   6   5
ATOM      1 CL   UNL     1      -2.886   3.587  24.285  0.00  0.00    -0.082 Cl
ATOM      2  C   UNL     1      -3.174   2.816  24.237  0.00  0.00    +0.058 A 
ATOM      3  C   UNL     1      -3.523   2.463  24.895  0.00  0.00    +0.013 A 
ATOM      4  C   UNL     1      -3.812   1.692  24.846  0.00  0.00    +0.018 A 
ATOM      5  C   UNL     1      -3.751   1.273  24.137  0.00  0.00    +0.075 A 
ATOM     30  C   UNL     1      -3.402   1.626  23.478  0.00  0.00    +0.018 A 
ATOM     31  C   UNL     1      -3.114   2.397  23.528  0.00  0.00    +0.013 A 
ENDBRANCH   6   5
BRANCH  18  23
ATOM     23  C   UNL     1      -1.213   0.253  24.914  0.00  0.00    +0.005 A 
ATOM     24  C   UNL     1      -0.793   0.567  24.277  0.00  0.00    +0.001 A 
ATOM     25  C   UNL     1      -0.350   1.256  24.373  0.00  0.00    +0.011 A 
ATOM     26  C   UNL     1      -0.328   1.633  25.107  0.00  0.00    +0.058 A 
ATOM     27 CL   UNL     1       0.115   2.323  25.203  0.00  0.00    -0.082 Cl
ATOM     28  C   UNL     1      -0.748   1.320  25.744  0.00  0.00    +0.011 A 
ATOM     29  C   UNL     1      -1.191   0.630  25.648  0.00  0.00    +0.001 A 
ENDBRANCH  18  23
TORSDOF 2
ENDMDL
