MODEL 1
REMARK VINA RESULT:      -9.9      0.000      0.000
REMARK  Name = 
REMARK  9 active torsions:
REMARK  status: ('A' for Active; 'I' for Inactive)
REMARK    1  A    between atoms: C_2  and  C_4
REMARK    2  A    between atoms: C_6  and  C_7
REMARK    3  A    between atoms: C_7  and  C_8
REMARK    4  A    between atoms: N_10  and  C_11
REMARK    5  A    between atoms: C_11  and  C_12
REMARK    6  A    between atoms: C_12  and  N_13
REMARK    7  A    between atoms: C_22  and  C_23
REMARK    8  A    between atoms: C_23  and  N_24
REMARK    9  A    between atoms: C_25  and  C_27
REMARK                            x       y       z     vdW  Elec       q    Type
REMARK                         _______ _______ _______ _____ _____    ______ ____
ROOT
ATOM      4  C   UNL     1      -2.988  -0.862  24.672  0.00  0.00    +0.006 C 
ATOM      5  C   UNL     1      -2.206  -1.120  24.723  0.00  0.00    +0.005 C 
ATOM      6  C   UNL     1      -1.641  -0.656  25.105  0.00  0.00    +0.027 C 
ATOM     19  C   UNL     1      -1.858   0.068  25.436  0.00  0.00    -0.048 C 
ATOM     20  C   UNL     1      -1.294   0.533  25.818  0.00  0.00    +0.026 C 
ATOM     21  C   UNL     1      -2.640   0.328  25.385  0.00  0.00    -0.033 C 
ATOM     22  C   UNL     1      -3.205  -0.138  25.003  0.00  0.00    +0.043 C 
ENDROOT
BRANCH   4   2
ATOM      1  C   UNL     1      -3.900  -1.960  24.685  0.00  0.00    +0.000 C 
ATOM      2  C   UNL     1      -3.552  -1.326  24.290  0.00  0.00    +0.000 C 
ATOM      3  C   UNL     1      -3.768  -1.155  23.513  0.00  0.00    +0.000 C 
ENDBRANCH   4   2
BRANCH   6   7
ATOM      7  C   UNL     1      -0.859  -0.914  25.156  0.00  0.00    +0.091 C 
BRANCH   7   8
ATOM      8  C   UNL     1      -0.413  -1.017  24.471  0.00  0.00    +0.242 C 
ATOM      9  O   UNL     1      -0.467  -1.722  24.045  0.00  0.00    -0.273 OA
ATOM     10  N   UNL     1       0.089  -0.416  24.211  0.00  0.00    -0.204 NA
BRANCH  10  11
ATOM     11  C   UNL     1       0.536  -0.519  23.526  0.00  0.00    +0.132 C 
BRANCH  11  12
ATOM     12  C   UNL     1       0.795   0.138  23.099  0.00  0.00    +0.096 C 
BRANCH  12  13
ATOM     13  N   UNL     1       1.539   0.133  22.744  0.00  0.00    -0.267 NA
ATOM     14  C   UNL     1       2.181   0.487  23.124  0.00  0.00    +0.105 C 
ATOM     15  C   UNL     1       2.925   0.481  22.769  0.00  0.00    +0.159 C 
ATOM     16  O   UNL     1       3.029   0.121  22.034  0.00  0.00    -0.351 OA
ATOM     17  C   UNL     1       2.388  -0.233  21.654  0.00  0.00    +0.159 C 
ATOM     18  C   UNL     1       1.643  -0.227  22.009  0.00  0.00    +0.105 C 
ENDBRANCH  12  13
ENDBRANCH  11  12
ENDBRANCH  10  11
ENDBRANCH   7   8
ENDBRANCH   6   7
BRANCH  22  23
ATOM     23  C   UNL     1      -3.986   0.122  24.952  0.00  0.00    +0.120 C 
BRANCH  23  24
ATOM     24  N   UNL     1      -4.163   0.919  25.070  0.00  0.00    -0.201 NA
ATOM     25  C   UNL     1      -4.950   1.167  25.097  0.00  0.00    +0.265 C 
ATOM     26  O   UNL     1      -5.559   0.617  25.006  0.00  0.00    -0.268 OA
BRANCH  25  27
ATOM     27  C   UNL     1      -5.128   1.964  25.214  0.00  0.00    +0.055 A 
ATOM     28  C   UNL     1      -5.689   2.182  25.778  0.00  0.00    +0.007 A 
ATOM     29  C   UNL     1      -5.866   2.979  25.895  0.00  0.00    +0.030 A 
ATOM     30  C   UNL     1      -5.483   3.558  25.449  0.00  0.00    +0.140 A 
ATOM     31  F   UNL     1      -5.661   4.355  25.567  0.00  0.00    -0.204 F 
ATOM     32  C   UNL     1      -4.922   3.339  24.886  0.00  0.00    +0.030 A 
ATOM     33  C   UNL     1      -4.744   2.543  24.768  0.00  0.00    +0.007 A 
ENDBRANCH  25  27
ENDBRANCH  23  24
ENDBRANCH  22  23
TORSDOF 9
ENDMDL
MODEL 2
REMARK VINA RESULT:      -9.4      3.307      5.188
REMARK  Name = 
REMARK  9 active torsions:
REMARK  status: ('A' for Active; 'I' for Inactive)
REMARK    1  A    between atoms: C_2  and  C_4
REMARK    2  A    between atoms: C_6  and  C_7
REMARK    3  A    between atoms: C_7  and  C_8
REMARK    4  A    between atoms: N_10  and  C_11
REMARK    5  A    between atoms: C_11  and  C_12
REMARK    6  A    between atoms: C_12  and  N_13
REMARK    7  A    between atoms: C_22  and  C_23
REMARK    8  A    between atoms: C_23  and  N_24
REMARK    9  A    between atoms: C_25  and  C_27
REMARK                            x       y       z     vdW  Elec       q    Type
REMARK                         _______ _______ _______ _____ _____    ______ ____
ROOT
ATOM      4  C   UNL     1      -3.734   1.695  23.903  0.00  0.00    +0.006 C 
ATOM      5  C   UNL     1      -3.950   2.403  24.268  0.00  0.00    +0.005 C 
ATOM      6  C   UNL     1      -4.544   2.409  24.839  0.00  0.00    +0.027 C 
ATOM     19  C   UNL     1      -4.923   1.706  25.047  0.00  0.00    -0.048 C 
ATOM     20  C   UNL     1      -5.518   1.712  25.619  0.00  0.00    +0.026 C 
ATOM     21  C   UNL     1      -4.709   0.998  24.682  0.00  0.00    -0.033 C 
ATOM     22  C   UNL     1      -4.114   0.993  24.110  0.00  0.00    +0.043 C 
ENDROOT
BRANCH   4   2
ATOM      1  C   UNL     1      -2.370   1.483  23.539  0.00  0.00    +0.000 C 
ATOM      2  C   UNL     1      -3.140   1.689  23.331  0.00  0.00    +0.000 C 
ATOM      3  C   UNL     1      -3.317   1.889  22.551  0.00  0.00    +0.000 C 
ENDBRANCH   4   2
BRANCH   6   7
ATOM      7  C   UNL     1      -4.759   3.117  25.205  0.00  0.00    +0.091 C 
BRANCH   7   8
ATOM      8  C   UNL     1      -4.262   3.773  25.160  0.00  0.00    +0.242 C 
ATOM      9  O   UNL     1      -4.406   4.362  24.601  0.00  0.00    -0.273 OA
ATOM     10  N   UNL     1      -3.619   3.840  25.673  0.00  0.00    -0.204 NA
BRANCH  10  11
ATOM     11  C   UNL     1      -3.121   4.496  25.628  0.00  0.00    +0.132 C 
BRANCH  11  12
ATOM     12  C   UNL     1      -2.384   4.482  25.999  0.00  0.00    +0.096 C 
BRANCH  12  13
ATOM     13  N   UNL     1      -1.699   4.617  25.561  0.00  0.00    -0.267 NA
ATOM     14  C   UNL     1      -1.130   4.023  25.491  0.00  0.00    +0.105 C 
ATOM     15  C   UNL     1      -0.445   4.157  25.053  0.00  0.00    +0.159 C 
ATOM     16  O   UNL     1      -0.327   4.887  24.686  0.00  0.00    -0.351 OA
ATOM     17  C   UNL     1      -0.894   5.481  24.756  0.00  0.00    +0.159 C 
ATOM     18  C   UNL     1      -1.581   5.346  25.194  0.00  0.00    +0.105 C 
ENDBRANCH  12  13
ENDBRANCH  11  12
ENDBRANCH  10  11
ENDBRANCH   7   8
ENDBRANCH   6   7
BRANCH  22  23
ATOM     23  C   UNL     1      -3.900   0.284  23.746  0.00  0.00    +0.120 C 
BRANCH  23  24
ATOM     24  N   UNL     1      -3.760  -0.388  24.203  0.00  0.00    -0.201 NA
ATOM     25  C   UNL     1      -3.846  -1.138  23.870  0.00  0.00    +0.265 C 
ATOM     26  O   UNL     1      -4.073  -1.216  23.081  0.00  0.00    -0.268 OA
BRANCH  25  27
ATOM     27  C   UNL     1      -3.706  -1.811  24.328  0.00  0.00    +0.055 A 
ATOM     28  C   UNL     1      -3.858  -2.560  24.016  0.00  0.00    +0.007 A 
ATOM     29  C   UNL     1      -3.718  -3.232  24.474  0.00  0.00    +0.030 A 
ATOM     30  C   UNL     1      -3.426  -3.155  25.242  0.00  0.00    +0.140 A 
ATOM     31  F   UNL     1      -3.286  -3.828  25.699  0.00  0.00    -0.204 F 
ATOM     32  C   UNL     1      -3.275  -2.407  25.552  0.00  0.00    +0.030 A 
ATOM     33  C   UNL     1      -3.415  -1.735  25.096  0.00  0.00    +0.007 A 
ENDBRANCH  25  27
ENDBRANCH  23  24
ENDBRANCH  22  23
TORSDOF 9
ENDMDL
MODEL 3
REMARK VINA RESULT:      -9.3      1.690      2.571
REMARK  Name = 
REMARK  9 active torsions:
REMARK  status: ('A' for Active; 'I' for Inactive)
REMARK    1  A    between atoms: C_2  and  C_4
REMARK    2  A    between atoms: C_6  and  C_7
REMARK    3  A    between atoms: C_7  and  C_8
REMARK    4  A    between atoms: N_10  and  C_11
REMARK    5  A    between atoms: C_11  and  C_12
REMARK    6  A    between atoms: C_12  and  N_13
REMARK    7  A    between atoms: C_22  and  C_23
REMARK    8  A    between atoms: C_23  and  N_24
REMARK    9  A    between atoms: C_25  and  C_27
REMARK                            x       y       z     vdW  Elec       q    Type
REMARK                         _______ _______ _______ _____ _____    ______ ____
ROOT
ATOM      4  C   UNL     1      -0.839   1.859  24.667  0.00  0.00    +0.006 C 
ATOM      5  C   UNL     1      -0.300   1.280  24.431  0.00  0.00    +0.005 C 
ATOM      6  C   UNL     1      -0.564   0.520  24.250  0.00  0.00    +0.027 C 
ATOM     19  C   UNL     1      -1.367   0.338  24.306  0.00  0.00    -0.048 C 
ATOM     20  C   UNL     1      -1.631  -0.423  24.124  0.00  0.00    +0.026 C 
ATOM     21  C   UNL     1      -1.906   0.915  24.542  0.00  0.00    -0.033 C 
ATOM     22  C   UNL     1      -1.642   1.676  24.723  0.00  0.00    +0.043 C 
ENDROOT
BRANCH   4   2
ATOM      1  C   UNL     1      -0.328   2.798  25.614  0.00  0.00    +0.000 C 
ATOM      2  C   UNL     1      -0.575   2.618  24.848  0.00  0.00    +0.000 C 
ATOM      3  C   UNL     1      -0.559   3.199  24.263  0.00  0.00    +0.000 C 
ENDBRANCH   4   2
BRANCH   6   7
ATOM      7  C   UNL     1      -0.026  -0.059  24.013  0.00  0.00    +0.091 C 
BRANCH   7   8
ATOM      8  C   UNL     1       0.523   0.105  23.421  0.00  0.00    +0.242 C 
ATOM      9  O   UNL     1       0.269   0.404  22.695  0.00  0.00    -0.273 OA
ATOM     10  N   UNL     1       1.327  -0.029  23.552  0.00  0.00    -0.204 NA
BRANCH  10  11
ATOM     11  C   UNL     1       1.876   0.135  22.960  0.00  0.00    +0.132 C 
BRANCH  11  12
ATOM     12  C   UNL     1       2.550  -0.334  22.879  0.00  0.00    +0.096 C 
BRANCH  12  13
ATOM     13  N   UNL     1       3.298   0.013  22.894  0.00  0.00    -0.267 NA
ATOM     14  C   UNL     1       3.428   0.732  22.511  0.00  0.00    +0.105 C 
ATOM     15  C   UNL     1       4.176   1.078  22.526  0.00  0.00    +0.159 C 
ATOM     16  O   UNL     1       4.795   0.706  22.924  0.00  0.00    -0.351 OA
ATOM     17  C   UNL     1       4.666  -0.013  23.308  0.00  0.00    +0.159 C 
ATOM     18  C   UNL     1       3.917  -0.359  23.293  0.00  0.00    +0.105 C 
ENDBRANCH  12  13
ENDBRANCH  11  12
ENDBRANCH  10  11
ENDBRANCH   7   8
ENDBRANCH   6   7
BRANCH  22  23
ATOM     23  C   UNL     1      -2.181   2.254  24.960  0.00  0.00    +0.120 C 
BRANCH  23  24
ATOM     24  N   UNL     1      -2.986   2.079  24.985  0.00  0.00    -0.201 NA
ATOM     25  C   UNL     1      -3.533   2.676  25.148  0.00  0.00    +0.265 C 
ATOM     26  O   UNL     1      -3.273   3.447  25.286  0.00  0.00    -0.268 OA
BRANCH  25  27
ATOM     27  C   UNL     1      -4.340   2.501  25.174  0.00  0.00    +0.055 A 
ATOM     28  C   UNL     1      -4.815   2.835  25.759  0.00  0.00    +0.007 A 
ATOM     29  C   UNL     1      -5.621   2.660  25.784  0.00  0.00    +0.030 A 
ATOM     30  C   UNL     1      -5.951   2.152  25.224  0.00  0.00    +0.140 A 
ATOM     31  F   UNL     1      -6.757   1.978  25.251  0.00  0.00    -0.204 F 
ATOM     32  C   UNL     1      -5.475   1.819  24.639  0.00  0.00    +0.030 A 
ATOM     33  C   UNL     1      -4.670   1.993  24.614  0.00  0.00    +0.007 A 
ENDBRANCH  25  27
ENDBRANCH  23  24
ENDBRANCH  22  23
TORSDOF 9
ENDMDL
MODEL 4
REMARK VINA RESULT:      -8.8      3.025      4.674
REMARK  Name = 
REMARK  9 active torsions:
REMARK  status: ('A' for Active; 'I' for Inactive)
REMARK    1  A    between atoms: C_2  and  C_4
REMARK    2  A    between atoms: C_6  and  C_7
REMARK    3  A    between atoms: C_7  and  C_8
REMARK    4  A    between atoms: N_10  and  C_11
REMARK    5  A    between atoms: C_11  and  C_12
REMARK    6  A    between atoms: C_12  and  N_13
REMARK    7  A    between atoms: C_22  and  C_23
REMARK    8  A    between atoms: C_23  and  N_24
REMARK    9  A    between atoms: C_25  and  C_27
REMARK                            x       y       z     vdW  Elec       q    Type
REMARK                         _______ _______ _______ _____ _____    ______ ____
ROOT
ATOM      4  C   UNL     1      -4.732   1.911  24.715  0.00  0.00    +0.006 C 
ATOM      5  C   UNL     1      -4.410   2.659  24.583  0.00  0.00    +0.005 C 
ATOM      6  C   UNL     1      -3.801   2.755  24.036  0.00  0.00    +0.027 C 
ATOM     19  C   UNL     1      -3.513   2.103  23.620  0.00  0.00    -0.048 C 
ATOM     20  C   UNL     1      -2.903   2.199  23.072  0.00  0.00    +0.026 C 
ATOM     21  C   UNL     1      -3.835   1.355  23.751  0.00  0.00    -0.033 C 
ATOM     22  C   UNL     1      -4.445   1.259  24.299  0.00  0.00    +0.043 C 
ENDROOT
BRANCH   4   2
ATOM      1  C   UNL     1      -5.166   1.655  26.052  0.00  0.00    +0.000 C 
ATOM      2  C   UNL     1      -5.342   1.814  25.262  0.00  0.00    +0.000 C 
ATOM      3  C   UNL     1      -6.128   1.878  25.020  0.00  0.00    +0.000 C 
ENDBRANCH   4   2
BRANCH   6   7
ATOM      7  C   UNL     1      -3.478   3.503  23.904  0.00  0.00    +0.091 C 
BRANCH   7   8
ATOM      8  C   UNL     1      -3.035   3.871  24.493  0.00  0.00    +0.242 C 
ATOM      9  O   UNL     1      -3.401   4.388  25.022  0.00  0.00    -0.273 OA
ATOM     10  N   UNL     1      -2.225   3.724  24.555  0.00  0.00    -0.204 NA
BRANCH  10  11
ATOM     11  C   UNL     1      -1.782   4.092  25.144  0.00  0.00    +0.132 C 
BRANCH  11  12
ATOM     12  C   UNL     1      -0.959   4.115  25.089  0.00  0.00    +0.096 C 
BRANCH  12  13
ATOM     13  N   UNL     1      -0.510   3.473  25.347  0.00  0.00    -0.267 NA
ATOM     14  C   UNL     1      -0.044   3.053  24.811  0.00  0.00    +0.105 C 
ATOM     15  C   UNL     1       0.405   2.412  25.068  0.00  0.00    +0.159 C 
ATOM     16  O   UNL     1       0.388   2.189  25.863  0.00  0.00    -0.351 OA
ATOM     17  C   UNL     1      -0.077   2.608  26.399  0.00  0.00    +0.159 C 
ATOM     18  C   UNL     1      -0.527   3.250  26.141  0.00  0.00    +0.105 C 
ENDBRANCH  12  13
ENDBRANCH  11  12
ENDBRANCH  10  11
ENDBRANCH   7   8
ENDBRANCH   6   7
BRANCH  22  23
ATOM     23  C   UNL     1      -4.767   0.511  24.430  0.00  0.00    +0.120 C 
BRANCH  23  24
ATOM     24  N   UNL     1      -4.269  -0.138  24.536  0.00  0.00    -0.201 NA
ATOM     25  C   UNL     1      -4.551  -0.902  24.395  0.00  0.00    +0.265 C 
ATOM     26  O   UNL     1      -5.330  -1.015  24.149  0.00  0.00    -0.268 OA
BRANCH  25  27
ATOM     27  C   UNL     1      -4.053  -1.552  24.501  0.00  0.00    +0.055 A 
ATOM     28  C   UNL     1      -3.983  -2.118  23.905  0.00  0.00    +0.007 A 
ATOM     29  C   UNL     1      -3.486  -2.767  24.011  0.00  0.00    +0.030 A 
ATOM     30  C   UNL     1      -3.058  -2.850  24.711  0.00  0.00    +0.140 A 
ATOM     31  F   UNL     1      -2.561  -3.500  24.816  0.00  0.00    -0.204 F 
ATOM     32  C   UNL     1      -3.128  -2.284  25.306  0.00  0.00    +0.030 A 
ATOM     33  C   UNL     1      -3.625  -1.634  25.201  0.00  0.00    +0.007 A 
ENDBRANCH  25  27
ENDBRANCH  23  24
ENDBRANCH  22  23
TORSDOF 9
ENDMDL
MODEL 5
REMARK VINA RESULT:      -8.8      2.675      6.681
REMARK  Name = 
REMARK  9 active torsions:
REMARK  status: ('A' for Active; 'I' for Inactive)
REMARK    1  A    between atoms: C_2  and  C_4
REMARK    2  A    between atoms: C_6  and  C_7
REMARK    3  A    between atoms: C_7  and  C_8
REMARK    4  A    between atoms: N_10  and  C_11
REMARK    5  A    between atoms: C_11  and  C_12
REMARK    6  A    between atoms: C_12  and  N_13
REMARK    7  A    between atoms: C_22  and  C_23
REMARK    8  A    between atoms: C_23  and  N_24
REMARK    9  A    between atoms: C_25  and  C_27
REMARK                            x       y       z     vdW  Elec       q    Type
REMARK                         _______ _______ _______ _____ _____    ______ ____
ROOT
ATOM      4  C   UNL     1      -0.978   1.483  24.882  0.00  0.00    +0.006 C 
ATOM      5  C   UNL     1      -1.344   2.157  25.187  0.00  0.00    +0.005 C 
ATOM      6  C   UNL     1      -1.087   2.906  24.959  0.00  0.00    +0.027 C 
ATOM     19  C   UNL     1      -0.464   2.983  24.423  0.00  0.00    -0.048 C 
ATOM     20  C   UNL     1      -0.207   3.733  24.194  0.00  0.00    +0.026 C 
ATOM     21  C   UNL     1      -0.098   2.311  24.117  0.00  0.00    -0.033 C 
ATOM     22  C   UNL     1      -0.355   1.560  24.346  0.00  0.00    +0.043 C 
ENDROOT
BRANCH   4   2
ATOM      1  C   UNL     1      -1.818   0.347  24.676  0.00  0.00    +0.000 C 
ATOM      2  C   UNL     1      -1.234   0.734  25.110  0.00  0.00    +0.000 C 
ATOM      3  C   UNL     1      -0.906   0.371  25.775  0.00  0.00    +0.000 C 
ENDBRANCH   4   2
BRANCH   6   7
ATOM      7  C   UNL     1      -1.453   3.580  25.264  0.00  0.00    +0.091 C 
BRANCH   7   8
ATOM      8  C   UNL     1      -2.200   3.523  25.609  0.00  0.00    +0.242 C 
ATOM      9  O   UNL     1      -2.271   3.393  26.421  0.00  0.00    -0.273 OA
ATOM     10  N   UNL     1      -2.877   3.597  25.143  0.00  0.00    -0.204 NA
BRANCH  10  11
ATOM     11  C   UNL     1      -3.624   3.541  25.487  0.00  0.00    +0.132 C 
BRANCH  11  12
ATOM     12  C   UNL     1      -4.299   3.553  25.014  0.00  0.00    +0.096 C 
BRANCH  12  13
ATOM     13  N   UNL     1      -4.915   3.025  25.159  0.00  0.00    -0.267 NA
ATOM     14  C   UNL     1      -5.419   3.143  25.801  0.00  0.00    +0.105 C 
ATOM     15  C   UNL     1      -6.035   2.615  25.946  0.00  0.00    +0.159 C 
ATOM     16  O   UNL     1      -6.147   1.966  25.449  0.00  0.00    -0.351 OA
ATOM     17  C   UNL     1      -5.643   1.846  24.807  0.00  0.00    +0.159 C 
ATOM     18  C   UNL     1      -5.027   2.376  24.662  0.00  0.00    +0.105 C 
ENDBRANCH  12  13
ENDBRANCH  11  12
ENDBRANCH  10  11
ENDBRANCH   7   8
ENDBRANCH   6   7
BRANCH  22  23
ATOM     23  C   UNL     1       0.012   0.888  24.040  0.00  0.00    +0.120 C 
BRANCH  23  24
ATOM     24  N   UNL     1       0.763   0.946  23.704  0.00  0.00    -0.201 NA
ATOM     25  C   UNL     1       1.085   0.302  23.300  0.00  0.00    +0.265 C 
ATOM     26  O   UNL     1       0.655  -0.399  23.233  0.00  0.00    -0.268 OA
BRANCH  25  27
ATOM     27  C   UNL     1       1.837   0.359  22.964  0.00  0.00    +0.055 A 
ATOM     28  C   UNL     1       2.008  -0.046  22.267  0.00  0.00    +0.007 A 
ATOM     29  C   UNL     1       2.760   0.012  21.931  0.00  0.00    +0.030 A 
ATOM     30  C   UNL     1       3.339   0.474  22.293  0.00  0.00    +0.140 A 
ATOM     31  F   UNL     1       4.090   0.531  21.957  0.00  0.00    -0.204 F 
ATOM     32  C   UNL     1       3.167   0.879  22.991  0.00  0.00    +0.030 A 
ATOM     33  C   UNL     1       2.416   0.822  23.326  0.00  0.00    +0.007 A 
ENDBRANCH  25  27
ENDBRANCH  23  24
ENDBRANCH  22  23
TORSDOF 9
ENDMDL
MODEL 6
REMARK VINA RESULT:      -8.8      2.276      3.456
REMARK  Name = 
REMARK  9 active torsions:
REMARK  status: ('A' for Active; 'I' for Inactive)
REMARK    1  A    between atoms: C_2  and  C_4
REMARK    2  A    between atoms: C_6  and  C_7
REMARK    3  A    between atoms: C_7  and  C_8
REMARK    4  A    between atoms: N_10  and  C_11
REMARK    5  A    between atoms: C_11  and  C_12
REMARK    6  A    between atoms: C_12  and  N_13
REMARK    7  A    between atoms: C_22  and  C_23
REMARK    8  A    between atoms: C_23  and  N_24
REMARK    9  A    between atoms: C_25  and  C_27
REMARK                            x       y       z     vdW  Elec       q    Type
REMARK                         _______ _______ _______ _____ _____    ______ ____
ROOT
ATOM      4  C   UNL     1      -2.365   1.887  24.040  0.00  0.00    +0.006 C 
ATOM      5  C   UNL     1      -1.653   2.289  24.153  0.00  0.00    +0.005 C 
ATOM      6  C   UNL     1      -1.152   2.075  24.772  0.00  0.00    +0.027 C 
ATOM     19  C   UNL     1      -1.361   1.458  25.278  0.00  0.00    -0.048 C 
ATOM     20  C   UNL     1      -0.859   1.243  25.897  0.00  0.00    +0.026 C 
ATOM     21  C   UNL     1      -2.073   1.056  25.166  0.00  0.00    -0.033 C 
ATOM     22  C   UNL     1      -2.575   1.271  24.547  0.00  0.00    +0.043 C 
ENDROOT
BRANCH   4   2
ATOM      1  C   UNL     1      -3.473   2.645  23.552  0.00  0.00    +0.000 C 
ATOM      2  C   UNL     1      -2.866   2.102  23.422  0.00  0.00    +0.000 C 
ATOM      3  C   UNL     1      -2.761   1.772  22.673  0.00  0.00    +0.000 C 
ENDBRANCH   4   2
BRANCH   6   7
ATOM      7  C   UNL     1      -0.440   2.476  24.885  0.00  0.00    +0.091 C 
BRANCH   7   8
ATOM      8  C   UNL     1       0.158   2.424  24.319  0.00  0.00    +0.242 C 
ATOM      9  O   UNL     1       0.282   3.045  23.791  0.00  0.00    -0.273 OA
ATOM     10  N   UNL     1       0.634   1.750  24.282  0.00  0.00    -0.204 NA
BRANCH  10  11
ATOM     11  C   UNL     1       1.232   1.698  23.717  0.00  0.00    +0.132 C 
BRANCH  11  12
ATOM     12  C   UNL     1       1.842   1.151  23.811  0.00  0.00    +0.096 C 
BRANCH  12  13
ATOM     13  N   UNL     1       2.164   0.774  23.152  0.00  0.00    -0.267 NA
ATOM     14  C   UNL     1       1.714   0.229  22.727  0.00  0.00    +0.105 C 
ATOM     15  C   UNL     1       2.036  -0.148  22.068  0.00  0.00    +0.159 C 
ATOM     16  O   UNL     1       2.809   0.020  21.834  0.00  0.00    -0.351 OA
ATOM     17  C   UNL     1       3.260   0.565  22.258  0.00  0.00    +0.159 C 
ATOM     18  C   UNL     1       2.937   0.942  22.918  0.00  0.00    +0.105 C 
ENDBRANCH  12  13
ENDBRANCH  11  12
ENDBRANCH  10  11
ENDBRANCH   7   8
ENDBRANCH   6   7
BRANCH  22  23
ATOM     23  C   UNL     1      -3.286   0.869  24.435  0.00  0.00    +0.120 C 
BRANCH  23  24
ATOM     24  N   UNL     1      -3.287   0.047  24.357  0.00  0.00    -0.201 NA
ATOM     25  C   UNL     1      -3.952  -0.388  24.581  0.00  0.00    +0.265 C 
ATOM     26  O   UNL     1      -4.615  -0.001  24.882  0.00  0.00    -0.268 OA
BRANCH  25  27
ATOM     27  C   UNL     1      -3.952  -1.210  24.503  0.00  0.00    +0.055 A 
ATOM     28  C   UNL     1      -4.311  -1.561  23.848  0.00  0.00    +0.007 A 
ATOM     29  C   UNL     1      -4.311  -2.382  23.770  0.00  0.00    +0.030 A 
ATOM     30  C   UNL     1      -3.954  -2.851  24.347  0.00  0.00    +0.140 A 
ATOM     31  F   UNL     1      -3.955  -3.673  24.268  0.00  0.00    -0.204 F 
ATOM     32  C   UNL     1      -3.596  -2.500  25.001  0.00  0.00    +0.030 A 
ATOM     33  C   UNL     1      -3.595  -1.679  25.079  0.00  0.00    +0.007 A 
ENDBRANCH  25  27
ENDBRANCH  23  24
ENDBRANCH  22  23
TORSDOF 9
ENDMDL
MODEL 7
REMARK VINA RESULT:      -8.7      1.421      2.200
REMARK  Name = 
REMARK  9 active torsions:
REMARK  status: ('A' for Active; 'I' for Inactive)
REMARK    1  A    between atoms: C_2  and  C_4
REMARK    2  A    between atoms: C_6  and  C_7
REMARK    3  A    between atoms: C_7  and  C_8
REMARK    4  A    between atoms: N_10  and  C_11
REMARK    5  A    between atoms: C_11  and  C_12
REMARK    6  A    between atoms: C_12  and  N_13
REMARK    7  A    between atoms: C_22  and  C_23
REMARK    8  A    between atoms: C_23  and  N_24
REMARK    9  A    between atoms: C_25  and  C_27
REMARK                            x       y       z     vdW  Elec       q    Type
REMARK                         _______ _______ _______ _____ _____    ______ ____
ROOT
ATOM      4  C   UNL     1      -1.160  -0.036  24.611  0.00  0.00    +0.006 C 
ATOM      5  C   UNL     1      -0.403   0.204  24.389  0.00  0.00    +0.005 C 
ATOM      6  C   UNL     1      -0.299   0.900  23.960  0.00  0.00    +0.027 C 
ATOM     19  C   UNL     1      -0.954   1.358  23.752  0.00  0.00    -0.048 C 
ATOM     20  C   UNL     1      -0.851   2.055  23.323  0.00  0.00    +0.026 C 
ATOM     21  C   UNL     1      -1.712   1.118  23.973  0.00  0.00    -0.033 C 
ATOM     22  C   UNL     1      -1.815   0.421  24.403  0.00  0.00    +0.043 C 
ENDROOT
BRANCH   4   2
ATOM      1  C   UNL     1      -1.413  -1.441  24.646  0.00  0.00    +0.000 C 
ATOM      2  C   UNL     1      -1.264  -0.733  25.040  0.00  0.00    +0.000 C 
ATOM      3  C   UNL     1      -1.217  -0.721  25.863  0.00  0.00    +0.000 C 
ENDBRANCH   4   2
BRANCH   6   7
ATOM      7  C   UNL     1       0.458   1.141  23.739  0.00  0.00    +0.091 C 
BRANCH   7   8
ATOM      8  C   UNL     1       0.963   0.614  23.356  0.00  0.00    +0.242 C 
ATOM      9  O   UNL     1       0.652  -0.015  22.922  0.00  0.00    -0.273 OA
ATOM     10  N   UNL     1       1.781   0.714  23.406  0.00  0.00    -0.204 NA
BRANCH  10  11
ATOM     11  C   UNL     1       2.286   0.187  23.024  0.00  0.00    +0.132 C 
BRANCH  11  12
ATOM     12  C   UNL     1       2.997   0.455  22.702  0.00  0.00    +0.096 C 
BRANCH  12  13
ATOM     13  N   UNL     1       3.715   0.168  22.990  0.00  0.00    -0.267 NA
ATOM     14  C   UNL     1       3.772  -0.611  23.255  0.00  0.00    +0.105 C 
ATOM     15  C   UNL     1       4.489  -0.898  23.542  0.00  0.00    +0.159 C 
ATOM     16  O   UNL     1       5.151  -0.406  23.565  0.00  0.00    -0.351 OA
ATOM     17  C   UNL     1       5.095   0.373  23.300  0.00  0.00    +0.159 C 
ATOM     18  C   UNL     1       4.376   0.660  23.012  0.00  0.00    +0.105 C 
ENDBRANCH  12  13
ENDBRANCH  11  12
ENDBRANCH  10  11
ENDBRANCH   7   8
ENDBRANCH   6   7
BRANCH  22  23
ATOM     23  C   UNL     1      -2.573   0.181  24.624  0.00  0.00    +0.120 C 
BRANCH  23  24
ATOM     24  N   UNL     1      -3.154   0.746  24.778  0.00  0.00    -0.201 NA
ATOM     25  C   UNL     1      -3.952   0.546  24.709  0.00  0.00    +0.265 C 
ATOM     26  O   UNL     1      -4.168  -0.219  24.487  0.00  0.00    -0.268 OA
BRANCH  25  27
ATOM     27  C   UNL     1      -4.534   1.111  24.863  0.00  0.00    +0.055 A 
ATOM     28  C   UNL     1      -4.558   1.808  24.423  0.00  0.00    +0.007 A 
ATOM     29  C   UNL     1      -5.139   2.372  24.577  0.00  0.00    +0.030 A 
ATOM     30  C   UNL     1      -5.696   2.239  25.171  0.00  0.00    +0.140 A 
ATOM     31  F   UNL     1      -6.278   2.805  25.324  0.00  0.00    -0.204 F 
ATOM     32  C   UNL     1      -5.672   1.543  25.610  0.00  0.00    +0.030 A 
ATOM     33  C   UNL     1      -5.091   0.978  25.457  0.00  0.00    +0.007 A 
ENDBRANCH  25  27
ENDBRANCH  23  24
ENDBRANCH  22  23
TORSDOF 9
ENDMDL
MODEL 8
REMARK VINA RESULT:      -8.5      1.922      3.270
REMARK  Name = 
REMARK  9 active torsions:
REMARK  status: ('A' for Active; 'I' for Inactive)
REMARK    1  A    between atoms: C_2  and  C_4
REMARK    2  A    between atoms: C_6  and  C_7
REMARK    3  A    between atoms: C_7  and  C_8
REMARK    4  A    between atoms: N_10  and  C_11
REMARK    5  A    between atoms: C_11  and  C_12
REMARK    6  A    between atoms: C_12  and  N_13
REMARK    7  A    between atoms: C_22  and  C_23
REMARK    8  A    between atoms: C_23  and  N_24
REMARK    9  A    between atoms: C_25  and  C_27
REMARK                            x       y       z     vdW  Elec       q    Type
REMARK                         _______ _______ _______ _____ _____    ______ ____
ROOT
ATOM      4  C   UNL     1      -2.065   1.931  23.407  0.00  0.00    +0.006 C 
ATOM      5  C   UNL     1      -1.323   1.576  23.478  0.00  0.00    +0.005 C 
ATOM      6  C   UNL     1      -0.877   1.687  24.162  0.00  0.00    +0.027 C 
ATOM     19  C   UNL     1      -1.171   2.153  24.776  0.00  0.00    -0.048 C 
ATOM     20  C   UNL     1      -0.724   2.265  25.461  0.00  0.00    +0.026 C 
ATOM     21  C   UNL     1      -1.912   2.508  24.706  0.00  0.00    -0.033 C 
ATOM     22  C   UNL     1      -2.360   2.397  24.021  0.00  0.00    +0.043 C 
ENDROOT
BRANCH   4   2
ATOM      1  C   UNL     1      -2.497   2.386  22.124  0.00  0.00    +0.000 C 
ATOM      2  C   UNL     1      -2.512   1.820  22.723  0.00  0.00    +0.000 C 
ATOM      3  C   UNL     1      -2.974   1.142  22.638  0.00  0.00    +0.000 C 
ENDBRANCH   4   2
BRANCH   6   7
ATOM      7  C   UNL     1      -0.135   1.333  24.234  0.00  0.00    +0.091 C 
BRANCH   7   8
ATOM      8  C   UNL     1      -0.049   0.524  24.099  0.00  0.00    +0.242 C 
ATOM      9  O   UNL     1       0.360   0.258  23.433  0.00  0.00    -0.273 OA
ATOM     10  N   UNL     1      -0.372  -0.020  24.628  0.00  0.00    -0.204 NA
BRANCH  10  11
ATOM     11  C   UNL     1      -0.286  -0.829  24.493  0.00  0.00    +0.132 C 
BRANCH  11  12
ATOM     12  C   UNL     1      -0.577  -1.373  25.042  0.00  0.00    +0.096 C 
BRANCH  12  13
ATOM     13  N   UNL     1      -1.274  -1.783  24.886  0.00  0.00    -0.267 NA
ATOM     14  C   UNL     1      -1.272  -2.417  24.357  0.00  0.00    +0.105 C 
ATOM     15  C   UNL     1      -1.970  -2.827  24.201  0.00  0.00    +0.159 C 
ATOM     16  O   UNL     1      -2.671  -2.604  24.574  0.00  0.00    -0.351 OA
ATOM     17  C   UNL     1      -2.675  -1.971  25.103  0.00  0.00    +0.159 C 
ATOM     18  C   UNL     1      -1.976  -1.560  25.259  0.00  0.00    +0.105 C 
ENDBRANCH  12  13
ENDBRANCH  11  12
ENDBRANCH  10  11
ENDBRANCH   7   8
ENDBRANCH   6   7
BRANCH  22  23
ATOM     23  C   UNL     1      -3.101   2.752  23.951  0.00  0.00    +0.120 C 
BRANCH  23  24
ATOM     24  N   UNL     1      -3.723   2.504  24.433  0.00  0.00    -0.201 NA
ATOM     25  C   UNL     1      -4.357   3.012  24.582  0.00  0.00    +0.265 C 
ATOM     26  O   UNL     1      -4.368   3.766  24.248  0.00  0.00    -0.268 OA
BRANCH  25  27
ATOM     27  C   UNL     1      -4.979   2.764  25.064  0.00  0.00    +0.055 A 
ATOM     28  C   UNL     1      -5.099   3.123  25.797  0.00  0.00    +0.007 A 
ATOM     29  C   UNL     1      -5.722   2.876  26.279  0.00  0.00    +0.030 A 
ATOM     30  C   UNL     1      -6.223   2.270  26.028  0.00  0.00    +0.140 A 
ATOM     31  F   UNL     1      -6.845   2.024  26.511  0.00  0.00    -0.204 F 
ATOM     32  C   UNL     1      -6.102   1.912  25.295  0.00  0.00    +0.030 A 
ATOM     33  C   UNL     1      -5.480   2.159  24.813  0.00  0.00    +0.007 A 
ENDBRANCH  25  27
ENDBRANCH  23  24
ENDBRANCH  22  23
TORSDOF 9
ENDMDL
