MODEL 1
REMARK VINA RESULT:     -10.9      0.000      0.000
REMARK  Name = 
REMARK  5 active torsions:
REMARK  status: ('A' for Active; 'I' for Inactive)
REMARK    1  A    between atoms: O_2  and  C_3
REMARK    2  A    between atoms: C_6  and  C_7
REMARK    3  A    between atoms: C_7  and  N_8
REMARK    4  A    between atoms: N_8  and  C_9
REMARK    5  A    between atoms: C_15  and  C_16
REMARK                            x       y       z     vdW  Elec       q    Type
REMARK                         _______ _______ _______ _____ _____    ______ ____
ROOT
ATOM      9  C   UNL     1      -4.398   1.713  24.719  0.00  0.00    +0.110 C 
ATOM     10  C   UNL     1      -5.087   1.974  25.088  0.00  0.00    +0.198 C 
ATOM     11  O   UNL     1      -5.703   1.498  25.362  0.00  0.00    -0.219 OA
ATOM     12  C   UNL     1      -5.053   2.798  25.136  0.00  0.00    +0.184 C 
ATOM     13  O   UNL     1      -5.628   3.289  25.466  0.00  0.00    -0.220 OA
ATOM     14  C   UNL     1      -4.343   3.044  24.797  0.00  0.00    +0.041 C 
ATOM     15  C   UNL     1      -3.937   2.373  24.538  0.00  0.00    +0.045 C 
ENDROOT
BRANCH  15  16
ATOM     16  C   UNL     1      -3.201   2.365  24.166  0.00  0.00    -0.002 A 
ATOM     17  C   UNL     1      -3.154   2.288  23.346  0.00  0.00    -0.001 A 
ATOM     18  C   UNL     1      -2.418   2.280  22.974  0.00  0.00    +0.020 A 
ATOM     19  C   UNL     1      -1.729   2.350  23.422  0.00  0.00    +0.099 A 
ATOM     20  N   UNL     1      -1.776   2.428  24.242  0.00  0.00    -0.243 NA
ATOM     21  C   UNL     1      -2.512   2.435  24.615  0.00  0.00    +0.095 A 
ENDBRANCH  15  16
BRANCH   9   8
ATOM      8  N   UNL     1      -4.203   0.926  24.558  0.00  0.00    -0.212 NA
BRANCH   8   7
ATOM      7  C   UNL     1      -4.447   0.328  25.070  0.00  0.00    +0.115 C 
BRANCH   7   6
ATOM      3  C   UNL     1      -3.562  -1.968  24.801  0.00  0.00    +0.139 A 
ATOM      4  C   UNL     1      -4.019  -1.628  24.203  0.00  0.00    +0.037 A 
ATOM      5  C   UNL     1      -4.314  -0.864  24.293  0.00  0.00    +0.000 A 
ATOM      6  C   UNL     1      -4.152  -0.437  24.980  0.00  0.00    -0.005 A 
ATOM     22  C   UNL     1      -3.696  -0.777  25.577  0.00  0.00    +0.000 A 
ATOM     23  C   UNL     1      -3.401  -1.541  25.488  0.00  0.00    +0.037 A 
BRANCH   3   2
ATOM      1  C   UNL     1      -2.490  -2.848  24.464  0.00  0.00    +0.252 C 
ATOM      2  O   UNL     1      -3.267  -2.733  24.711  0.00  0.00    -0.471 OA
ENDBRANCH   3   2
ENDBRANCH   7   6
ENDBRANCH   8   7
ENDBRANCH   9   8
TORSDOF 5
ENDMDL
MODEL 2
REMARK VINA RESULT:      -9.9      1.444      4.113
REMARK  Name = 
REMARK  5 active torsions:
REMARK  status: ('A' for Active; 'I' for Inactive)
REMARK    1  A    between atoms: O_2  and  C_3
REMARK    2  A    between atoms: C_6  and  C_7
REMARK    3  A    between atoms: C_7  and  N_8
REMARK    4  A    between atoms: N_8  and  C_9
REMARK    5  A    between atoms: C_15  and  C_16
REMARK                            x       y       z     vdW  Elec       q    Type
REMARK                         _______ _______ _______ _____ _____    ______ ____
ROOT
ATOM      9  C   UNL     1      -3.433  -1.032  24.472  0.00  0.00    +0.110 C 
ATOM     10  C   UNL     1      -3.957  -1.625  24.244  0.00  0.00    +0.198 C 
ATOM     11  O   UNL     1      -4.729  -1.515  23.974  0.00  0.00    -0.219 OA
ATOM     12  C   UNL     1      -3.575  -2.351  24.334  0.00  0.00    +0.184 C 
ATOM     13  O   UNL     1      -3.897  -3.093  24.169  0.00  0.00    -0.220 OA
ATOM     14  C   UNL     1      -2.814  -2.205  24.617  0.00  0.00    +0.041 C 
ATOM     15  C   UNL     1      -2.726  -1.389  24.702  0.00  0.00    +0.045 C 
ENDROOT
BRANCH  15  16
ATOM     16  C   UNL     1      -2.050  -1.001  24.971  0.00  0.00    -0.002 A 
ATOM     17  C   UNL     1      -1.936  -0.878  25.778  0.00  0.00    -0.001 A 
ATOM     18  C   UNL     1      -1.261  -0.490  26.046  0.00  0.00    +0.020 A 
ATOM     19  C   UNL     1      -0.696  -0.224  25.507  0.00  0.00    +0.099 A 
ATOM     20  N   UNL     1      -0.809  -0.346  24.699  0.00  0.00    -0.243 NA
ATOM     21  C   UNL     1      -1.485  -0.735  24.430  0.00  0.00    +0.095 A 
ENDBRANCH  15  16
BRANCH   9   8
ATOM      8  N   UNL     1      -3.588  -0.221  24.469  0.00  0.00    -0.212 NA
BRANCH   8   7
ATOM      7  C   UNL     1      -4.364   0.051  24.525  0.00  0.00    +0.115 C 
BRANCH   7   6
ATOM      3  C   UNL     1      -4.809   2.455  24.909  0.00  0.00    +0.139 A 
ATOM      4  C   UNL     1      -4.294   2.221  24.308  0.00  0.00    +0.037 A 
ATOM      5  C   UNL     1      -4.146   1.421  24.180  0.00  0.00    +0.000 A 
ATOM      6  C   UNL     1      -4.512   0.852  24.653  0.00  0.00    -0.005 A 
ATOM     22  C   UNL     1      -5.027   1.086  25.253  0.00  0.00    +0.000 A 
ATOM     23  C   UNL     1      -5.175   1.887  25.381  0.00  0.00    +0.037 A 
BRANCH   3   2
ATOM      1  C   UNL     1      -4.422   3.711  25.467  0.00  0.00    +0.252 C 
ATOM      2  O   UNL     1      -4.958   3.256  25.036  0.00  0.00    -0.471 OA
ENDBRANCH   3   2
ENDBRANCH   7   6
ENDBRANCH   8   7
ENDBRANCH   9   8
TORSDOF 5
ENDMDL
MODEL 3
REMARK VINA RESULT:      -9.9      1.400      2.438
REMARK  Name = 
REMARK  5 active torsions:
REMARK  status: ('A' for Active; 'I' for Inactive)
REMARK    1  A    between atoms: O_2  and  C_3
REMARK    2  A    between atoms: C_6  and  C_7
REMARK    3  A    between atoms: C_7  and  N_8
REMARK    4  A    between atoms: N_8  and  C_9
REMARK    5  A    between atoms: C_15  and  C_16
REMARK                            x       y       z     vdW  Elec       q    Type
REMARK                         _______ _______ _______ _____ _____    ______ ____
ROOT
ATOM      9  C   UNL     1      -3.928   1.831  24.195  0.00  0.00    +0.110 C 
ATOM     10  C   UNL     1      -3.427   2.127  23.611  0.00  0.00    +0.198 C 
ATOM     11  O   UNL     1      -2.814   1.715  23.243  0.00  0.00    -0.219 OA
ATOM     12  C   UNL     1      -3.645   2.908  23.460  0.00  0.00    +0.184 C 
ATOM     13  O   UNL     1      -3.289   3.414  22.914  0.00  0.00    -0.220 OA
ATOM     14  C   UNL     1      -4.282   3.094  23.950  0.00  0.00    +0.041 C 
ATOM     15  C   UNL     1      -4.457   2.428  24.405  0.00  0.00    +0.045 C 
ENDROOT
BRANCH  15  16
ATOM     16  C   UNL     1      -5.056   2.371  24.969  0.00  0.00    -0.002 A 
ATOM     17  C   UNL     1      -5.766   1.997  24.783  0.00  0.00    -0.001 A 
ATOM     18  C   UNL     1      -6.364   1.940  25.347  0.00  0.00    +0.020 A 
ATOM     19  C   UNL     1      -6.253   2.259  26.100  0.00  0.00    +0.099 A 
ATOM     20  N   UNL     1      -5.542   2.634  26.287  0.00  0.00    -0.243 NA
ATOM     21  C   UNL     1      -4.943   2.691  25.723  0.00  0.00    +0.095 A 
ENDBRANCH  15  16
BRANCH   9   8
ATOM      8  N   UNL     1      -3.906   1.070  24.514  0.00  0.00    -0.212 NA
BRANCH   8   7
ATOM      7  C   UNL     1      -3.476   0.477  24.135  0.00  0.00    +0.115 C 
BRANCH   7   6
ATOM      3  C   UNL     1      -3.607  -1.858  24.947  0.00  0.00    +0.139 A 
ATOM      4  C   UNL     1      -3.163  -1.300  25.362  0.00  0.00    +0.037 A 
ATOM      5  C   UNL     1      -3.120  -0.523  25.092  0.00  0.00    +0.000 A 
ATOM      6  C   UNL     1      -3.520  -0.301  24.405  0.00  0.00    -0.005 A 
ATOM     22  C   UNL     1      -3.964  -0.859  23.990  0.00  0.00    +0.000 A 
ATOM     23  C   UNL     1      -4.007  -1.636  24.260  0.00  0.00    +0.037 A 
BRANCH   3   2
ATOM      1  C   UNL     1      -3.272  -3.238  24.802  0.00  0.00    +0.252 C 
ATOM      2  O   UNL     1      -3.651  -2.636  25.217  0.00  0.00    -0.471 OA
ENDBRANCH   3   2
ENDBRANCH   7   6
ENDBRANCH   8   7
ENDBRANCH   9   8
TORSDOF 5
ENDMDL
MODEL 4
REMARK VINA RESULT:      -9.7      1.744      3.552
REMARK  Name = 
REMARK  5 active torsions:
REMARK  status: ('A' for Active; 'I' for Inactive)
REMARK    1  A    between atoms: O_2  and  C_3
REMARK    2  A    between atoms: C_6  and  C_7
REMARK    3  A    between atoms: C_7  and  N_8
REMARK    4  A    between atoms: N_8  and  C_9
REMARK    5  A    between atoms: C_15  and  C_16
REMARK                            x       y       z     vdW  Elec       q    Type
REMARK                         _______ _______ _______ _____ _____    ______ ____
ROOT
ATOM      9  C   UNL     1      -3.979   1.247  24.780  0.00  0.00    +0.110 C 
ATOM     10  C   UNL     1      -4.485   1.895  24.839  0.00  0.00    +0.198 C 
ATOM     11  O   UNL     1      -4.270   2.688  24.763  0.00  0.00    -0.219 OA
ATOM     12  C   UNL     1      -5.245   1.612  24.988  0.00  0.00    +0.184 C 
ATOM     13  O   UNL     1      -5.924   2.072  25.087  0.00  0.00    -0.220 OA
ATOM     14  C   UNL     1      -5.209   0.789  25.021  0.00  0.00    +0.041 C 
ATOM     15  C   UNL     1      -4.425   0.563  24.892  0.00  0.00    +0.045 C 
ENDROOT
BRANCH  15  16
ATOM     16  C   UNL     1      -4.141  -0.211  24.878  0.00  0.00    -0.002 A 
ATOM     17  C   UNL     1      -4.133  -0.637  24.172  0.00  0.00    -0.001 A 
ATOM     18  C   UNL     1      -3.849  -1.410  24.159  0.00  0.00    +0.020 A 
ATOM     19  C   UNL     1      -3.571  -1.760  24.853  0.00  0.00    +0.099 A 
ATOM     20  N   UNL     1      -3.579  -1.335  25.560  0.00  0.00    -0.243 NA
ATOM     21  C   UNL     1      -3.863  -0.560  25.574  0.00  0.00    +0.095 A 
ENDBRANCH  15  16
BRANCH   9   8
ATOM      8  N   UNL     1      -3.167   1.278  24.634  0.00  0.00    -0.212 NA
BRANCH   8   7
ATOM      7  C   UNL     1      -2.745   1.968  24.792  0.00  0.00    +0.115 C 
BRANCH   7   6
ATOM      3  C   UNL     1      -0.282   1.997  24.547  0.00  0.00    +0.139 A 
ATOM      4  C   UNL     1      -0.764   1.966  23.878  0.00  0.00    +0.037 A 
ATOM      5  C   UNL     1      -1.583   1.957  23.959  0.00  0.00    +0.000 A 
ATOM      6  C   UNL     1      -1.924   1.978  24.710  0.00  0.00    -0.005 A 
ATOM     22  C   UNL     1      -1.443   2.008  25.380  0.00  0.00    +0.000 A 
ATOM     23  C   UNL     1      -0.623   2.018  25.298  0.00  0.00    +0.037 A 
BRANCH   3   2
ATOM      1  C   UNL     1       0.908   1.479  23.951  0.00  0.00    +0.252 C 
ATOM      2  O   UNL     1       0.539   2.007  24.465  0.00  0.00    -0.471 OA
ENDBRANCH   3   2
ENDBRANCH   7   6
ENDBRANCH   8   7
ENDBRANCH   9   8
TORSDOF 5
ENDMDL
