MODEL 1
REMARK VINA RESULT:     -10.3      0.000      0.000
REMARK  Name = 
REMARK  6 active torsions:
REMARK  status: ('A' for Active; 'I' for Inactive)
REMARK    1  A    between atoms: C_5  and  N_6
REMARK    2  A    between atoms: N_9  and  C_10
REMARK    3  A    between atoms: C_10  and  C_11
REMARK    4  A    between atoms: C_13  and  C_14
REMARK    5  A    between atoms: C_14  and  C_15
REMARK    6  A    between atoms: N_20  and  C_23
REMARK                            x       y       z     vdW  Elec       q    Type
REMARK                         _______ _______ _______ _____ _____    ______ ____
ROOT
ATOM     11  C   UNL     1      -5.039   2.977  25.615  0.00  0.00    +0.170 C 
ATOM     12  O   UNL     1      -4.717   2.254  25.384  0.00  0.00    -0.351 OA
ATOM     13  C   UNL     1      -5.286   1.669  25.511  0.00  0.00    +0.157 C 
ATOM     29  C   UNL     1      -5.959   2.031  25.821  0.00  0.00    +0.212 C 
ATOM     30  O   UNL     1      -6.661   1.651  26.029  0.00  0.00    -0.218 OA
ATOM     31  C   UNL     1      -5.807   2.839  25.885  0.00  0.00    +0.213 C 
ATOM     32  O   UNL     1      -6.330   3.410  26.169  0.00  0.00    -0.218 OA
ENDROOT
BRANCH  11  10
ATOM     10  C   UNL     1      -4.661   3.709  25.582  0.00  0.00    +0.149 C 
BRANCH  10   9
ATOM      6  N   UNL     1      -2.556   4.169  25.932  0.00  0.00    -0.161 NA
ATOM      7  C   UNL     1      -3.277   4.058  25.544  0.00  0.00    +0.344 C 
ATOM      8  O   UNL     1      -3.331   4.187  24.731  0.00  0.00    -0.249 OA
ATOM      9  N   UNL     1      -3.941   3.820  25.969  0.00  0.00    -0.184 NA
BRANCH   6   5
ATOM      1  C   UNL     1       0.105   5.125  24.229  0.00  0.00    +0.031 C 
ATOM      2  C   UNL     1      -0.561   4.886  24.655  0.00  0.00    -0.022 A 
ATOM      3  C   UNL     1      -0.664   4.089  24.844  0.00  0.00    -0.003 A 
ATOM      4  C   UNL     1      -1.330   3.850  25.270  0.00  0.00    +0.016 A 
ATOM      5  C   UNL     1      -1.891   4.408  25.506  0.00  0.00    +0.075 A 
ATOM     33  C   UNL     1      -1.787   5.204  25.317  0.00  0.00    +0.016 A 
ATOM     34  C   UNL     1      -1.121   5.443  24.891  0.00  0.00    -0.003 A 
ENDBRANCH   6   5
ENDBRANCH  10   9
ENDBRANCH  11  10
BRANCH  13  14
ATOM     14  C   UNL     1      -5.196   0.864  25.355  0.00  0.00    +0.117 C 
BRANCH  14  15
ATOM     15  C   UNL     1      -4.844   0.616  24.650  0.00  0.00    +0.228 C 
ATOM     16  O   UNL     1      -5.101   0.926  23.931  0.00  0.00    -0.275 OA
ATOM     17  N   UNL     1      -4.237   0.058  24.666  0.00  0.00    -0.276 N 
ATOM     18  C   UNL     1      -3.886  -0.189  23.962  0.00  0.00    +0.115 C 
ATOM     19  C   UNL     1      -3.278  -0.747  23.978  0.00  0.00    +0.112 C 
ATOM     20  N   UNL     1      -3.021  -1.057  24.698  0.00  0.00    -0.304 N 
ATOM     21  C   UNL     1      -3.373  -0.809  25.402  0.00  0.00    +0.112 C 
ATOM     22  C   UNL     1      -3.980  -0.252  25.387  0.00  0.00    +0.115 C 
BRANCH  20  23
ATOM     23  C   UNL     1      -2.414  -1.615  24.713  0.00  0.00    +0.048 A 
ATOM     24  C   UNL     1      -2.573  -2.404  24.534  0.00  0.00    +0.015 A 
ATOM     25  C   UNL     1      -1.964  -2.961  24.550  0.00  0.00    +0.001 A 
ATOM     26  C   UNL     1      -1.198  -2.729  24.744  0.00  0.00    +0.000 A 
ATOM     27  C   UNL     1      -1.037  -1.940  24.923  0.00  0.00    +0.001 A 
ATOM     28  C   UNL     1      -1.646  -1.382  24.908  0.00  0.00    +0.015 A 
ENDBRANCH  20  23
ENDBRANCH  14  15
ENDBRANCH  13  14
TORSDOF 6
ENDMDL
MODEL 2
REMARK VINA RESULT:     -10.2      1.802      4.025
REMARK  Name = 
REMARK  6 active torsions:
REMARK  status: ('A' for Active; 'I' for Inactive)
REMARK    1  A    between atoms: C_5  and  N_6
REMARK    2  A    between atoms: N_9  and  C_10
REMARK    3  A    between atoms: C_10  and  C_11
REMARK    4  A    between atoms: C_13  and  C_14
REMARK    5  A    between atoms: C_14  and  C_15
REMARK    6  A    between atoms: N_20  and  C_23
REMARK                            x       y       z     vdW  Elec       q    Type
REMARK                         _______ _______ _______ _____ _____    ______ ____
ROOT
ATOM     11  C   UNL     1      -1.230   3.093  24.734  0.00  0.00    +0.170 C 
ATOM     12  O   UNL     1      -1.304   2.279  24.845  0.00  0.00    -0.351 OA
ATOM     13  C   UNL     1      -0.572   1.932  24.688  0.00  0.00    +0.157 C 
ATOM     29  C   UNL     1      -0.045   2.532  24.481  0.00  0.00    +0.212 C 
ATOM     30  O   UNL     1       0.749   2.432  24.281  0.00  0.00    -0.218 OA
ATOM     31  C   UNL     1      -0.451   3.250  24.510  0.00  0.00    +0.213 C 
ATOM     32  O   UNL     1      -0.135   3.993  24.343  0.00  0.00    -0.218 OA
ENDROOT
BRANCH  11  10
ATOM     10  C   UNL     1      -1.829   3.652  24.831  0.00  0.00    +0.149 C 
BRANCH  10   9
ATOM      6  N   UNL     1      -3.935   3.210  24.469  0.00  0.00    -0.161 NA
ATOM      7  C   UNL     1      -3.214   3.305  24.859  0.00  0.00    +0.344 C 
ATOM      8  O   UNL     1      -3.159   3.147  25.667  0.00  0.00    -0.249 OA
ATOM      9  N   UNL     1      -2.549   3.557  24.442  0.00  0.00    -0.184 NA
BRANCH   6   5
ATOM      1  C   UNL     1      -6.595   2.200  26.140  0.00  0.00    +0.031 C 
ATOM      2  C   UNL     1      -5.930   2.452  25.722  0.00  0.00    -0.022 A 
ATOM      3  C   UNL     1      -5.473   1.906  25.306  0.00  0.00    -0.003 A 
ATOM      4  C   UNL     1      -4.807   2.159  24.888  0.00  0.00    +0.016 A 
ATOM      5  C   UNL     1      -4.600   2.958  24.886  0.00  0.00    +0.075 A 
ATOM     33  C   UNL     1      -5.058   3.504  25.302  0.00  0.00    +0.016 A 
ATOM     34  C   UNL     1      -5.724   3.251  25.720  0.00  0.00    -0.003 A 
ENDBRANCH   6   5
ENDBRANCH  10   9
ENDBRANCH  11  10
BRANCH  13  14
ATOM     14  C   UNL     1      -0.398   1.127  24.732  0.00  0.00    +0.117 C 
BRANCH  14  15
ATOM     15  C   UNL     1      -0.739   0.662  25.322  0.00  0.00    +0.228 C 
ATOM     16  O   UNL     1      -0.525   0.774  26.111  0.00  0.00    -0.275 OA
ATOM     17  N   UNL     1      -1.295   0.085  25.123  0.00  0.00    -0.276 N 
ATOM     18  C   UNL     1      -1.636  -0.380  25.713  0.00  0.00    +0.115 C 
ATOM     19  C   UNL     1      -2.191  -0.956  25.514  0.00  0.00    +0.112 C 
ATOM     20  N   UNL     1      -2.406  -1.068  24.726  0.00  0.00    -0.304 N 
ATOM     21  C   UNL     1      -2.065  -0.603  24.136  0.00  0.00    +0.112 C 
ATOM     22  C   UNL     1      -1.509  -0.026  24.334  0.00  0.00    +0.115 C 
BRANCH  20  23
ATOM     23  C   UNL     1      -2.961  -1.645  24.527  0.00  0.00    +0.048 A 
ATOM     24  C   UNL     1      -3.688  -1.424  24.205  0.00  0.00    +0.015 A 
ATOM     25  C   UNL     1      -4.243  -2.002  24.006  0.00  0.00    +0.001 A 
ATOM     26  C   UNL     1      -4.071  -2.799  24.131  0.00  0.00    +0.000 A 
ATOM     27  C   UNL     1      -3.345  -3.020  24.453  0.00  0.00    +0.001 A 
ATOM     28  C   UNL     1      -2.790  -2.442  24.651  0.00  0.00    +0.015 A 
ENDBRANCH  20  23
ENDBRANCH  14  15
ENDBRANCH  13  14
TORSDOF 6
ENDMDL
MODEL 3
REMARK VINA RESULT:     -10.1      2.976      5.369
REMARK  Name = 
REMARK  6 active torsions:
REMARK  status: ('A' for Active; 'I' for Inactive)
REMARK    1  A    between atoms: C_5  and  N_6
REMARK    2  A    between atoms: N_9  and  C_10
REMARK    3  A    between atoms: C_10  and  C_11
REMARK    4  A    between atoms: C_13  and  C_14
REMARK    5  A    between atoms: C_14  and  C_15
REMARK    6  A    between atoms: N_20  and  C_23
REMARK                            x       y       z     vdW  Elec       q    Type
REMARK                         _______ _______ _______ _____ _____    ______ ____
ROOT
ATOM     11  C   UNL     1      -1.469  -1.475  24.517  0.00  0.00    +0.170 C 
ATOM     12  O   UNL     1      -2.082  -0.924  24.515  0.00  0.00    -0.351 OA
ATOM     13  C   UNL     1      -2.782  -1.319  24.703  0.00  0.00    +0.157 C 
ATOM     29  C   UNL     1      -2.601  -2.115  24.821  0.00  0.00    +0.212 C 
ATOM     30  O   UNL     1      -3.137  -2.710  25.019  0.00  0.00    -0.218 OA
ATOM     31  C   UNL     1      -1.790  -2.212  24.706  0.00  0.00    +0.213 C 
ATOM     32  O   UNL     1      -1.372  -2.920  24.769  0.00  0.00    -0.218 OA
ENDROOT
BRANCH  11  10
ATOM     10  C   UNL     1      -0.675  -1.319  24.358  0.00  0.00    +0.149 C 
BRANCH  10   9
ATOM      6  N   UNL     1       0.528   0.042  23.147  0.00  0.00    -0.161 NA
ATOM      7  C   UNL     1       0.324  -0.555  23.680  0.00  0.00    +0.344 C 
ATOM      8  O   UNL     1       0.914  -0.981  24.067  0.00  0.00    -0.249 OA
ATOM      9  N   UNL     1      -0.470  -0.723  23.825  0.00  0.00    -0.184 NA
BRANCH   6   5
ATOM      1  C   UNL     1       3.706   0.717  22.566  0.00  0.00    +0.031 C 
ATOM      2  C   UNL     1       2.911   0.548  22.711  0.00  0.00    -0.022 A 
ATOM      3  C   UNL     1       2.531  -0.046  22.283  0.00  0.00    -0.003 A 
ATOM      4  C   UNL     1       1.736  -0.215  22.428  0.00  0.00    +0.016 A 
ATOM      5  C   UNL     1       1.323   0.210  23.002  0.00  0.00    +0.075 A 
ATOM     33  C   UNL     1       1.703   0.805  23.430  0.00  0.00    +0.016 A 
ATOM     34  C   UNL     1       2.498   0.974  23.284  0.00  0.00    -0.003 A 
ENDBRANCH   6   5
ENDBRANCH  10   9
ENDBRANCH  11  10
BRANCH  13  14
ATOM     14  C   UNL     1      -3.530  -0.977  24.762  0.00  0.00    +0.117 C 
BRANCH  14  15
ATOM     15  C   UNL     1      -3.777  -0.422  24.203  0.00  0.00    +0.228 C 
ATOM     16  O   UNL     1      -3.746  -0.607  23.399  0.00  0.00    -0.275 OA
ATOM     17  N   UNL     1      -4.053   0.315  24.447  0.00  0.00    -0.276 N 
ATOM     18  C   UNL     1      -4.299   0.869  23.888  0.00  0.00    +0.115 C 
ATOM     19  C   UNL     1      -4.575   1.607  24.132  0.00  0.00    +0.112 C 
ATOM     20  N   UNL     1      -4.605   1.791  24.936  0.00  0.00    -0.304 N 
ATOM     21  C   UNL     1      -4.359   1.237  25.495  0.00  0.00    +0.112 C 
ATOM     22  C   UNL     1      -4.083   0.499  25.251  0.00  0.00    +0.115 C 
BRANCH  20  23
ATOM     23  C   UNL     1      -4.881   2.529  25.180  0.00  0.00    +0.048 A 
ATOM     24  C   UNL     1      -4.381   3.185  25.159  0.00  0.00    +0.015 A 
ATOM     25  C   UNL     1      -4.658   3.923  25.403  0.00  0.00    +0.001 A 
ATOM     26  C   UNL     1      -5.435   4.004  25.668  0.00  0.00    +0.000 A 
ATOM     27  C   UNL     1      -5.936   3.350  25.690  0.00  0.00    +0.001 A 
ATOM     28  C   UNL     1      -5.659   2.611  25.445  0.00  0.00    +0.015 A 
ENDBRANCH  20  23
ENDBRANCH  14  15
ENDBRANCH  13  14
TORSDOF 6
ENDMDL
MODEL 4
REMARK VINA RESULT:      -9.9      2.236      6.201
REMARK  Name = 
REMARK  6 active torsions:
REMARK  status: ('A' for Active; 'I' for Inactive)
REMARK    1  A    between atoms: C_5  and  N_6
REMARK    2  A    between atoms: N_9  and  C_10
REMARK    3  A    between atoms: C_10  and  C_11
REMARK    4  A    between atoms: C_13  and  C_14
REMARK    5  A    between atoms: C_14  and  C_15
REMARK    6  A    between atoms: N_20  and  C_23
REMARK                            x       y       z     vdW  Elec       q    Type
REMARK                         _______ _______ _______ _____ _____    ______ ____
ROOT
ATOM     11  C   UNL     1      -0.207   0.873  24.427  0.00  0.00    +0.170 C 
ATOM     12  O   UNL     1      -0.723   1.476  24.649  0.00  0.00    -0.351 OA
ATOM     13  C   UNL     1      -0.361   2.198  24.481  0.00  0.00    +0.157 C 
ATOM     29  C   UNL     1       0.381   2.041  24.154  0.00  0.00    +0.212 C 
ATOM     30  O   UNL     1       0.930   2.603  23.905  0.00  0.00    -0.218 OA
ATOM     31  C   UNL     1       0.476   1.222  24.121  0.00  0.00    +0.213 C 
ATOM     32  O   UNL     1       1.137   0.822  23.833  0.00  0.00    -0.218 OA
ENDROOT
BRANCH  11  10
ATOM     10  C   UNL     1      -0.347   0.063  24.498  0.00  0.00    +0.149 C 
BRANCH  10   9
ATOM      6  N   UNL     1      -2.134  -1.012  25.142  0.00  0.00    -0.161 NA
ATOM      7  C   UNL     1      -1.516  -0.740  24.667  0.00  0.00    +0.344 C 
ATOM      8  O   UNL     1      -1.451  -1.001  23.887  0.00  0.00    -0.249 OA
ATOM      9  N   UNL     1      -0.965  -0.209  24.972  0.00  0.00    -0.184 NA
BRANCH   6   5
ATOM      1  C   UNL     1      -4.341  -3.140  23.921  0.00  0.00    +0.031 C 
ATOM      2  C   UNL     1      -3.789  -2.608  24.226  0.00  0.00    -0.022 A 
ATOM      3  C   UNL     1      -3.944  -1.798  24.207  0.00  0.00    -0.003 A 
ATOM      4  C   UNL     1      -3.392  -1.265  24.512  0.00  0.00    +0.016 A 
ATOM      5  C   UNL     1      -2.686  -1.544  24.837  0.00  0.00    +0.075 A 
ATOM     33  C   UNL     1      -2.531  -2.355  24.856  0.00  0.00    +0.016 A 
ATOM     34  C   UNL     1      -3.084  -2.887  24.551  0.00  0.00    -0.003 A 
ENDBRANCH   6   5
ENDBRANCH  10   9
ENDBRANCH  11  10
BRANCH  13  14
ATOM     14  C   UNL     1      -0.683   2.945  24.615  0.00  0.00    +0.117 C 
BRANCH  14  15
ATOM     15  C   UNL     1      -1.052   3.113  25.334  0.00  0.00    +0.228 C 
ATOM     16  O   UNL     1      -0.602   3.182  26.022  0.00  0.00    -0.275 OA
ATOM     17  N   UNL     1      -1.870   3.211  25.365  0.00  0.00    -0.276 N 
ATOM     18  C   UNL     1      -2.239   3.378  26.083  0.00  0.00    +0.115 C 
ATOM     19  C   UNL     1      -3.058   3.476  26.114  0.00  0.00    +0.112 C 
ATOM     20  N   UNL     1      -3.508   3.407  25.426  0.00  0.00    -0.304 N 
ATOM     21  C   UNL     1      -3.138   3.239  24.707  0.00  0.00    +0.112 C 
ATOM     22  C   UNL     1      -2.320   3.141  24.676  0.00  0.00    +0.115 C 
BRANCH  20  23
ATOM     23  C   UNL     1      -4.326   3.505  25.456  0.00  0.00    +0.048 A 
ATOM     24  C   UNL     1      -4.652   4.261  25.430  0.00  0.00    +0.015 A 
ATOM     25  C   UNL     1      -5.472   4.359  25.461  0.00  0.00    +0.001 A 
ATOM     26  C   UNL     1      -5.963   3.699  25.518  0.00  0.00    +0.000 A 
ATOM     27  C   UNL     1      -5.638   2.942  25.545  0.00  0.00    +0.001 A 
ATOM     28  C   UNL     1      -4.818   2.845  25.514  0.00  0.00    +0.015 A 
ENDBRANCH  20  23
ENDBRANCH  14  15
ENDBRANCH  13  14
TORSDOF 6
ENDMDL
MODEL 5
REMARK VINA RESULT:      -9.7      2.100      5.468
REMARK  Name = 
REMARK  6 active torsions:
REMARK  status: ('A' for Active; 'I' for Inactive)
REMARK    1  A    between atoms: C_5  and  N_6
REMARK    2  A    between atoms: N_9  and  C_10
REMARK    3  A    between atoms: C_10  and  C_11
REMARK    4  A    between atoms: C_13  and  C_14
REMARK    5  A    between atoms: C_14  and  C_15
REMARK    6  A    between atoms: N_20  and  C_23
REMARK                            x       y       z     vdW  Elec       q    Type
REMARK                         _______ _______ _______ _____ _____    ______ ____
ROOT
ATOM     11  C   UNL     1      -2.264  -1.070  24.879  0.00  0.00    +0.170 C 
ATOM     12  O   UNL     1      -1.836  -0.366  24.843  0.00  0.00    -0.351 OA
ATOM     13  C   UNL     1      -1.034  -0.550  24.904  0.00  0.00    +0.157 C 
ATOM     29  C   UNL     1      -0.966  -1.369  24.978  0.00  0.00    +0.212 C 
ATOM     30  O   UNL     1      -0.262  -1.792  25.053  0.00  0.00    -0.218 OA
ATOM     31  C   UNL     1      -1.726  -1.691  24.962  0.00  0.00    +0.213 C 
ATOM     32  O   UNL     1      -1.914  -2.491  25.019  0.00  0.00    -0.218 OA
ENDROOT
BRANCH  11  10
ATOM     10  C   UNL     1      -3.084  -1.142  24.838  0.00  0.00    +0.149 C 
BRANCH  10   9
ATOM      6  N   UNL     1      -4.399   0.506  24.274  0.00  0.00    -0.161 NA
ATOM      7  C   UNL     1      -3.960  -0.019  24.736  0.00  0.00    +0.344 C 
ATOM      8  O   UNL     1      -3.960   0.058  25.557  0.00  0.00    -0.249 OA
ATOM      9  N   UNL     1      -3.523  -0.618  24.377  0.00  0.00    -0.184 NA
BRANCH   6   5
ATOM      1  C   UNL     1      -6.149   2.906  25.711  0.00  0.00    +0.031 C 
ATOM      2  C   UNL     1      -5.712   2.306  25.352  0.00  0.00    -0.022 A 
ATOM      3  C   UNL     1      -4.983   2.479  25.006  0.00  0.00    -0.003 A 
ATOM      4  C   UNL     1      -4.545   1.878  24.646  0.00  0.00    +0.016 A 
ATOM      5  C   UNL     1      -4.836   1.106  24.633  0.00  0.00    +0.075 A 
ATOM     33  C   UNL     1      -5.565   0.934  24.979  0.00  0.00    +0.016 A 
ATOM     34  C   UNL     1      -6.004   1.534  25.339  0.00  0.00    -0.003 A 
ENDBRANCH   6   5
ENDBRANCH  10   9
ENDBRANCH  11  10
BRANCH  13  14
ATOM     14  C   UNL     1      -0.411  -0.011  24.894  0.00  0.00    +0.117 C 
BRANCH  14  15
ATOM     15  C   UNL     1      -0.355   0.545  24.286  0.00  0.00    +0.228 C 
ATOM     16  O   UNL     1      -0.137   0.305  23.527  0.00  0.00    -0.275 OA
ATOM     17  N   UNL     1      -0.517   1.340  24.436  0.00  0.00    -0.276 N 
ATOM     18  C   UNL     1      -0.462   1.894  23.829  0.00  0.00    +0.115 C 
ATOM     19  C   UNL     1      -0.624   2.689  23.980  0.00  0.00    +0.112 C 
ATOM     20  N   UNL     1      -0.842   2.929  24.738  0.00  0.00    -0.304 N 
ATOM     21  C   UNL     1      -0.897   2.373  25.346  0.00  0.00    +0.112 C 
ATOM     22  C   UNL     1      -0.735   1.579  25.196  0.00  0.00    +0.115 C 
BRANCH  20  23
ATOM     23  C   UNL     1      -1.004   3.723  24.889  0.00  0.00    +0.048 A 
ATOM     24  C   UNL     1      -0.466   4.305  24.661  0.00  0.00    +0.015 A 
ATOM     25  C   UNL     1      -0.629   5.100  24.812  0.00  0.00    +0.001 A 
ATOM     26  C   UNL     1      -1.330   5.312  25.191  0.00  0.00    +0.000 A 
ATOM     27  C   UNL     1      -1.869   4.731  25.419  0.00  0.00    +0.001 A 
ATOM     28  C   UNL     1      -1.706   3.936  25.268  0.00  0.00    +0.015 A 
ENDBRANCH  20  23
ENDBRANCH  14  15
ENDBRANCH  13  14
TORSDOF 6
ENDMDL
MODEL 6
REMARK VINA RESULT:      -9.5      3.025      5.011
REMARK  Name = 
REMARK  6 active torsions:
REMARK  status: ('A' for Active; 'I' for Inactive)
REMARK    1  A    between atoms: C_5  and  N_6
REMARK    2  A    between atoms: N_9  and  C_10
REMARK    3  A    between atoms: C_10  and  C_11
REMARK    4  A    between atoms: C_13  and  C_14
REMARK    5  A    between atoms: C_14  and  C_15
REMARK    6  A    between atoms: N_20  and  C_23
REMARK                            x       y       z     vdW  Elec       q    Type
REMARK                         _______ _______ _______ _____ _____    ______ ____
ROOT
ATOM     11  C   UNL     1      -3.128  -1.101  24.833  0.00  0.00    +0.170 C 
ATOM     12  O   UNL     1      -2.420  -0.723  24.645  0.00  0.00    -0.351 OA
ATOM     13  C   UNL     1      -1.837  -1.301  24.558  0.00  0.00    +0.157 C 
ATOM     29  C   UNL     1      -2.186  -2.037  24.693  0.00  0.00    +0.212 C 
ATOM     30  O   UNL     1      -1.804  -2.767  24.663  0.00  0.00    -0.218 OA
ATOM     31  C   UNL     1      -2.984  -1.914  24.863  0.00  0.00    +0.213 C 
ATOM     32  O   UNL     1      -3.539  -2.499  25.033  0.00  0.00    -0.218 OA
ENDROOT
BRANCH  11  10
ATOM     10  C   UNL     1      -3.854  -0.733  24.969  0.00  0.00    +0.149 C 
BRANCH  10   9
ATOM      6  N   UNL     1      -4.619   1.225  24.381  0.00  0.00    -0.161 NA
ATOM      7  C   UNL     1      -4.386   0.588  24.851  0.00  0.00    +0.344 C 
ATOM      8  O   UNL     1      -4.451   0.635  25.671  0.00  0.00    -0.249 OA
ATOM      9  N   UNL     1      -4.088  -0.096  24.500  0.00  0.00    -0.184 NA
BRANCH   6   5
ATOM      1  C   UNL     1      -5.813   3.962  25.787  0.00  0.00    +0.031 C 
ATOM      2  C   UNL     1      -5.514   3.278  25.435  0.00  0.00    -0.022 A 
ATOM      3  C   UNL     1      -4.730   3.254  25.180  0.00  0.00    -0.003 A 
ATOM      4  C   UNL     1      -4.431   2.569  24.829  0.00  0.00    +0.016 A 
ATOM      5  C   UNL     1      -4.917   1.909  24.732  0.00  0.00    +0.075 A 
ATOM     33  C   UNL     1      -5.702   1.933  24.987  0.00  0.00    +0.016 A 
ATOM     34  C   UNL     1      -6.001   2.618  25.339  0.00  0.00    -0.003 A 
ENDBRANCH   6   5
ENDBRANCH  10   9
ENDBRANCH  11  10
BRANCH  13  14
ATOM     14  C   UNL     1      -1.046  -1.167  24.369  0.00  0.00    +0.117 C 
BRANCH  14  15
ATOM     15  C   UNL     1      -0.746  -0.398  24.371  0.00  0.00    +0.228 C 
ATOM     16  O   UNL     1      -1.158   0.204  24.756  0.00  0.00    -0.275 OA
ATOM     17  N   UNL     1      -0.034  -0.232  23.989  0.00  0.00    -0.276 N 
ATOM     18  C   UNL     1       0.266   0.536  23.991  0.00  0.00    +0.115 C 
ATOM     19  C   UNL     1       0.978   0.702  23.610  0.00  0.00    +0.112 C 
ATOM     20  N   UNL     1       1.391   0.100  23.225  0.00  0.00    -0.304 N 
ATOM     21  C   UNL     1       1.090  -0.669  23.223  0.00  0.00    +0.112 C 
ATOM     22  C   UNL     1       0.378  -0.835  23.605  0.00  0.00    +0.115 C 
BRANCH  20  23
ATOM     23  C   UNL     1       2.103   0.266  22.843  0.00  0.00    +0.048 A 
ATOM     24  C   UNL     1       2.662   0.752  23.206  0.00  0.00    +0.015 A 
ATOM     25  C   UNL     1       3.374   0.918  22.823  0.00  0.00    +0.001 A 
ATOM     26  C   UNL     1       3.526   0.598  22.079  0.00  0.00    +0.000 A 
ATOM     27  C   UNL     1       2.968   0.112  21.715  0.00  0.00    +0.001 A 
ATOM     28  C   UNL     1       2.255  -0.054  22.098  0.00  0.00    +0.015 A 
ENDBRANCH  20  23
ENDBRANCH  14  15
ENDBRANCH  13  14
TORSDOF 6
ENDMDL
MODEL 7
REMARK VINA RESULT:      -8.9     14.772     16.643
REMARK  Name = 
REMARK  6 active torsions:
REMARK  status: ('A' for Active; 'I' for Inactive)
REMARK    1  A    between atoms: C_5  and  N_6
REMARK    2  A    between atoms: N_9  and  C_10
REMARK    3  A    between atoms: C_10  and  C_11
REMARK    4  A    between atoms: C_13  and  C_14
REMARK    5  A    between atoms: C_14  and  C_15
REMARK    6  A    between atoms: N_20  and  C_23
REMARK                            x       y       z     vdW  Elec       q    Type
REMARK                         _______ _______ _______ _____ _____    ______ ____
ROOT
ATOM     11  C   UNL     1      -4.208 -10.618  14.618  0.00  0.00    +0.170 C 
ATOM     12  O   UNL     1      -4.971 -10.583  14.927  0.00  0.00    -0.351 OA
ATOM     13  C   UNL     1      -4.917 -10.640  15.749  0.00  0.00    +0.157 C 
ATOM     29  C   UNL     1      -4.120 -10.710  15.947  0.00  0.00    +0.212 C 
ATOM     30  O   UNL     1      -3.814 -10.781  16.710  0.00  0.00    -0.218 OA
ATOM     31  C   UNL     1      -3.681 -10.696  15.248  0.00  0.00    +0.213 C 
ATOM     32  O   UNL     1      -2.860 -10.751  15.190  0.00  0.00    -0.218 OA
ENDROOT
BRANCH  11  10
ATOM     10  C   UNL     1      -4.006 -10.580  13.819  0.00  0.00    +0.149 C 
BRANCH  10   9
ATOM      6  N   UNL     1      -4.921  -9.955  11.938  0.00  0.00    -0.161 NA
ATOM      7  C   UNL     1      -4.348 -10.151  12.500  0.00  0.00    +0.344 C 
ATOM      8  O   UNL     1      -3.548 -10.113  12.304  0.00  0.00    -0.249 OA
ATOM      9  N   UNL     1      -4.577 -10.384  13.257  0.00  0.00    -0.184 NA
BRANCH   6   5
ATOM      1  C   UNL     1      -4.006  -9.020   8.909  0.00  0.00    +0.031 C 
ATOM      2  C   UNL     1      -4.234  -9.254   9.666  0.00  0.00    -0.022 A 
ATOM      3  C   UNL     1      -4.493  -8.690  10.211  0.00  0.00    -0.003 A 
ATOM      4  C   UNL     1      -4.722  -8.924  10.969  0.00  0.00    +0.016 A 
ATOM      5  C   UNL     1      -4.692  -9.721  11.181  0.00  0.00    +0.075 A 
ATOM     33  C   UNL     1      -4.433 -10.285  10.636  0.00  0.00    +0.016 A 
ATOM     34  C   UNL     1      -4.204 -10.051   9.878  0.00  0.00    -0.003 A 
ENDBRANCH   6   5
ENDBRANCH  10   9
ENDBRANCH  11  10
BRANCH  13  14
ATOM     14  C   UNL     1      -5.550 -10.629  16.278  0.00  0.00    +0.117 C 
BRANCH  14  15
ATOM     15  C   UNL     1      -6.028  -9.959  16.336  0.00  0.00    +0.228 C 
ATOM     16  O   UNL     1      -5.767  -9.238  16.030  0.00  0.00    -0.275 OA
ATOM     17  N   UNL     1      -6.767 -10.009  16.699  0.00  0.00    -0.276 N 
ATOM     18  C   UNL     1      -7.245  -9.340  16.757  0.00  0.00    +0.115 C 
ATOM     19  C   UNL     1      -7.984  -9.391  17.120  0.00  0.00    +0.112 C 
ATOM     20  N   UNL     1      -8.245 -10.111  17.426  0.00  0.00    -0.304 N 
ATOM     21  C   UNL     1      -7.766 -10.781  17.368  0.00  0.00    +0.112 C 
ATOM     22  C   UNL     1      -7.028 -10.731  17.005  0.00  0.00    +0.115 C 
BRANCH  20  23
ATOM     23  C   UNL     1      -8.984 -10.162  17.789  0.00  0.00    +0.048 A 
ATOM     24  C   UNL     1      -9.671 -10.105  17.336  0.00  0.00    +0.015 A 
ATOM     25  C   UNL     1     -10.410 -10.156  17.700  0.00  0.00    +0.001 A 
ATOM     26  C   UNL     1     -10.461 -10.263  18.516  0.00  0.00    +0.000 A 
ATOM     27  C   UNL     1      -9.774 -10.320  18.970  0.00  0.00    +0.001 A 
ATOM     28  C   UNL     1      -9.035 -10.269  18.606  0.00  0.00    +0.015 A 
ENDBRANCH  20  23
ENDBRANCH  14  15
ENDBRANCH  13  14
TORSDOF 6
ENDMDL
MODEL 8
REMARK VINA RESULT:      -6.7     16.372     19.200
REMARK  Name = 
REMARK  6 active torsions:
REMARK  status: ('A' for Active; 'I' for Inactive)
REMARK    1  A    between atoms: C_5  and  N_6
REMARK    2  A    between atoms: N_9  and  C_10
REMARK    3  A    between atoms: C_10  and  C_11
REMARK    4  A    between atoms: C_13  and  C_14
REMARK    5  A    between atoms: C_14  and  C_15
REMARK    6  A    between atoms: N_20  and  C_23
REMARK                            x       y       z     vdW  Elec       q    Type
REMARK                         _______ _______ _______ _____ _____    ______ ____
ROOT
ATOM     11  C   UNL     1      14.827   7.088  20.811  0.00  0.00    +0.170 C 
ATOM     12  O   UNL     1      14.583   7.408  20.091  0.00  0.00    -0.351 OA
ATOM     13  C   UNL     1      15.028   7.057  19.492  0.00  0.00    +0.157 C 
ATOM     29  C   UNL     1      15.547   6.519  19.841  0.00  0.00    +0.212 C 
ATOM     30  O   UNL     1      16.094   6.046  19.446  0.00  0.00    -0.218 OA
ATOM     31  C   UNL     1      15.423   6.539  20.657  0.00  0.00    +0.213 C 
ATOM     32  O   UNL     1      15.824   6.088  21.219  0.00  0.00    -0.218 OA
ENDROOT
BRANCH  11  10
ATOM     10  C   UNL     1      14.527   7.283  21.555  0.00  0.00    +0.149 C 
BRANCH  10   9
ATOM      6  N   UNL     1      13.041   8.828  21.966  0.00  0.00    -0.161 NA
ATOM      7  C   UNL     1      13.381   8.086  21.839  0.00  0.00    +0.344 C 
ATOM      8  O   UNL     1      12.912   7.408  21.868  0.00  0.00    -0.249 OA
ATOM      9  N   UNL     1      14.187   8.024  21.682  0.00  0.00    -0.184 NA
BRANCH   6   5
ATOM      1  C   UNL     1       9.811   9.077  22.593  0.00  0.00    +0.031 C 
ATOM      2  C   UNL     1      10.618   9.015  22.436  0.00  0.00    -0.022 A 
ATOM      3  C   UNL     1      10.888   9.012  21.656  0.00  0.00    -0.003 A 
ATOM      4  C   UNL     1      11.696   8.950  21.499  0.00  0.00    +0.016 A 
ATOM      5  C   UNL     1      12.233   8.890  22.123  0.00  0.00    +0.075 A 
ATOM     33  C   UNL     1      11.964   8.893  22.903  0.00  0.00    +0.016 A 
ATOM     34  C   UNL     1      11.155   8.955  23.059  0.00  0.00    -0.003 A 
ENDBRANCH   6   5
ENDBRANCH  10   9
ENDBRANCH  11  10
BRANCH  13  14
ATOM     14  C   UNL     1      14.965   7.215  18.685  0.00  0.00    +0.117 C 
BRANCH  14  15
ATOM     15  C   UNL     1      14.818   7.985  18.425  0.00  0.00    +0.228 C 
ATOM     16  O   UNL     1      15.363   8.584  18.583  0.00  0.00    -0.275 OA
ATOM     17  N   UNL     1      14.127   8.155  18.008  0.00  0.00    -0.276 N 
ATOM     18  C   UNL     1      13.980   8.923  17.749  0.00  0.00    +0.115 C 
ATOM     19  C   UNL     1      13.289   9.093  17.332  0.00  0.00    +0.112 C 
ATOM     20  N   UNL     1      12.744   8.494  17.174  0.00  0.00    -0.304 N 
ATOM     21  C   UNL     1      12.891   7.724  17.434  0.00  0.00    +0.112 C 
ATOM     22  C   UNL     1      13.582   7.554  17.851  0.00  0.00    +0.115 C 
BRANCH  20  23
ATOM     23  C   UNL     1      12.053   8.664  16.758  0.00  0.00    +0.048 A 
ATOM     24  C   UNL     1      12.095   8.924  15.976  0.00  0.00    +0.015 A 
ATOM     25  C   UNL     1      11.403   9.094  15.560  0.00  0.00    +0.001 A 
ATOM     26  C   UNL     1      10.670   9.003  15.925  0.00  0.00    +0.000 A 
ATOM     27  C   UNL     1      10.626   8.743  16.706  0.00  0.00    +0.001 A 
ATOM     28  C   UNL     1      11.318   8.573  17.123  0.00  0.00    +0.015 A 
ENDBRANCH  20  23
ENDBRANCH  14  15
ENDBRANCH  13  14
TORSDOF 6
ENDMDL
