MODEL 1
REMARK VINA RESULT:      -8.9      0.000      0.000
REMARK  Name = 
REMARK  5 active torsions:
REMARK  status: ('A' for Active; 'I' for Inactive)
REMARK    1  A    between atoms: C_2  and  C_3
REMARK    2  A    between atoms: C_3  and  N_4
REMARK    3  A    between atoms: N_7  and  C_8
REMARK    4  A    between atoms: C_12  and  N_16
REMARK    5  A    between atoms: C_19  and  C_23
REMARK                            x       y       z     vdW  Elec       q    Type
REMARK                         _______ _______ _______ _____ _____    ______ ____
ROOT
ATOM      8  C   UNL     1       0.606   1.264  23.937  0.00  0.00    +0.156 C 
ATOM      9  C   UNL     1       0.168   0.674  23.563  0.00  0.00    +0.166 C 
ATOM     10  O   UNL     1      -0.603   0.705  23.854  0.00  0.00    -0.350 OA
ATOM     11  C   UNL     1      -0.642   1.315  24.409  0.00  0.00    +0.166 C 
ATOM     12  C   UNL     1      -1.143   1.711  24.932  0.00  0.00    +0.154 C 
ATOM     13  C   UNL     1      -0.704   2.301  25.306  0.00  0.00    +0.166 C 
ATOM     14  O   UNL     1       0.067   2.270  25.014  0.00  0.00    -0.350 OA
ATOM     15  C   UNL     1       0.105   1.660  24.460  0.00  0.00    +0.166 C 
ENDROOT
BRANCH  12  16
ATOM     16  N   UNL     1      -1.941   1.546  25.058  0.00  0.00    -0.200 NA
ATOM     17  C   UNL     1      -2.503   2.144  24.979  0.00  0.00    +0.237 A 
ATOM     18  N   UNL     1      -3.302   1.979  25.106  0.00  0.00    -0.209 NA
ATOM     19  C   UNL     1      -3.864   2.577  25.027  0.00  0.00    +0.120 A 
ATOM     20  C   UNL     1      -3.628   3.340  24.822  0.00  0.00    +0.043 A 
ATOM     21  C   UNL     1      -2.830   3.506  24.695  0.00  0.00    +0.104 A 
ATOM     22  N   UNL     1      -2.267   2.907  24.774  0.00  0.00    -0.211 NA
BRANCH  19  23
ATOM     23  C   UNL     1      -4.663   2.412  25.154  0.00  0.00    +0.163 A 
ATOM     24  C   UNL     1      -5.156   1.986  24.647  0.00  0.00    +0.042 A 
ATOM     25  C   UNL     1      -5.906   1.955  24.988  0.00  0.00    +0.044 A 
ATOM     26  C   UNL     1      -5.877   2.361  25.706  0.00  0.00    +0.180 A 
ATOM     27  O   UNL     1      -5.109   2.644  25.808  0.00  0.00    -0.449 OA
ENDBRANCH  19  23
ENDBRANCH  12  16
BRANCH   8   7
ATOM      4  N   UNL     1       2.664   1.079  23.235  0.00  0.00    -0.182 NA
ATOM      5  C   UNL     1       1.866   0.914  23.361  0.00  0.00    +0.340 C 
ATOM      6  O   UNL     1       1.529   0.233  23.038  0.00  0.00    -0.249 OA
ATOM      7  N   UNL     1       1.404   1.429  23.811  0.00  0.00    -0.184 NA
BRANCH   4   3
ATOM      3  C   UNL     1       3.126   0.564  22.786  0.00  0.00    +0.143 C 
BRANCH   3   2
ATOM      1  C   UNL     1       4.540   0.442  22.954  0.00  0.00    -0.003 C 
ATOM      2  C   UNL     1       3.892   0.780  22.569  0.00  0.00    -0.003 C 
ENDBRANCH   3   2
ENDBRANCH   4   3
ENDBRANCH   8   7
TORSDOF 5
ENDMDL
MODEL 2
REMARK VINA RESULT:      -7.9      1.203      6.502
REMARK  Name = 
REMARK  5 active torsions:
REMARK  status: ('A' for Active; 'I' for Inactive)
REMARK    1  A    between atoms: C_2  and  C_3
REMARK    2  A    between atoms: C_3  and  N_4
REMARK    3  A    between atoms: N_7  and  C_8
REMARK    4  A    between atoms: C_12  and  N_16
REMARK    5  A    between atoms: C_19  and  C_23
REMARK                            x       y       z     vdW  Elec       q    Type
REMARK                         _______ _______ _______ _____ _____    ______ ____
ROOT
ATOM      8  C   UNL     1      -2.167   1.505  23.928  0.00  0.00    +0.156 C 
ATOM      9  C   UNL     1      -1.824   2.251  23.850  0.00  0.00    +0.166 C 
ATOM     10  O   UNL     1      -1.004   2.157  23.855  0.00  0.00    -0.350 OA
ATOM     11  C   UNL     1      -0.840   1.352  23.936  0.00  0.00    +0.166 C 
ATOM     12  C   UNL     1      -0.232   0.797  23.989  0.00  0.00    +0.154 C 
ATOM     13  C   UNL     1      -0.576   0.051  24.067  0.00  0.00    +0.166 C 
ATOM     14  O   UNL     1      -1.395   0.145  24.062  0.00  0.00    -0.350 OA
ATOM     15  C   UNL     1      -1.559   0.949  23.981  0.00  0.00    +0.166 C 
ENDROOT
BRANCH  12  16
ATOM     16  N   UNL     1       0.576   0.959  23.967  0.00  0.00    -0.200 NA
ATOM     17  C   UNL     1       1.061   0.569  23.428  0.00  0.00    +0.237 A 
ATOM     18  N   UNL     1       1.870   0.730  23.406  0.00  0.00    -0.209 NA
ATOM     19  C   UNL     1       2.355   0.340  22.866  0.00  0.00    +0.120 A 
ATOM     20  C   UNL     1       2.032  -0.214  22.347  0.00  0.00    +0.043 A 
ATOM     21  C   UNL     1       1.224  -0.377  22.368  0.00  0.00    +0.104 A 
ATOM     22  N   UNL     1       0.738   0.015  22.908  0.00  0.00    -0.211 NA
BRANCH  19  23
ATOM     23  C   UNL     1       3.164   0.502  22.845  0.00  0.00    +0.163 A 
ATOM     24  C   UNL     1       3.767  -0.014  23.073  0.00  0.00    +0.042 A 
ATOM     25  C   UNL     1       4.487   0.373  22.961  0.00  0.00    +0.044 A 
ATOM     26  C   UNL     1       4.330   1.126  22.664  0.00  0.00    +0.180 A 
ATOM     27  O   UNL     1       3.512   1.206  22.592  0.00  0.00    -0.449 OA
ENDBRANCH  19  23
ENDBRANCH  12  16
BRANCH   8   7
ATOM      4  N   UNL     1      -4.279   1.618  24.463  0.00  0.00    -0.182 NA
ATOM      5  C   UNL     1      -3.471   1.781  24.442  0.00  0.00    +0.340 C 
ATOM      6  O   UNL     1      -3.158   2.382  24.913  0.00  0.00    -0.249 OA
ATOM      7  N   UNL     1      -2.975   1.342  23.949  0.00  0.00    -0.184 NA
BRANCH   4   3
ATOM      3  C   UNL     1      -4.775   2.057  24.956  0.00  0.00    +0.143 C 
BRANCH   3   2
ATOM      1  C   UNL     1      -6.043   2.193  25.601  0.00  0.00    -0.003 C 
ATOM      2  C   UNL     1      -5.580   1.879  24.994  0.00  0.00    -0.003 C 
ENDBRANCH   3   2
ENDBRANCH   4   3
ENDBRANCH   8   7
TORSDOF 5
ENDMDL
MODEL 3
REMARK VINA RESULT:      -7.9      2.252      2.654
REMARK  Name = 
REMARK  5 active torsions:
REMARK  status: ('A' for Active; 'I' for Inactive)
REMARK    1  A    between atoms: C_2  and  C_3
REMARK    2  A    between atoms: C_3  and  N_4
REMARK    3  A    between atoms: N_7  and  C_8
REMARK    4  A    between atoms: C_12  and  N_16
REMARK    5  A    between atoms: C_19  and  C_23
REMARK                            x       y       z     vdW  Elec       q    Type
REMARK                         _______ _______ _______ _____ _____    ______ ____
ROOT
ATOM      8  C   UNL     1       1.996   0.709  23.091  0.00  0.00    +0.156 C 
ATOM      9  C   UNL     1       1.745   0.115  22.577  0.00  0.00    +0.166 C 
ATOM     10  O   UNL     1       0.933   0.013  22.679  0.00  0.00    -0.350 OA
ATOM     11  C   UNL     1       0.681   0.546  23.258  0.00  0.00    +0.166 C 
ATOM     12  C   UNL     1       0.023   0.812  23.679  0.00  0.00    +0.154 C 
ATOM     13  C   UNL     1       0.275   1.407  24.193  0.00  0.00    +0.166 C 
ATOM     14  O   UNL     1       1.087   1.508  24.090  0.00  0.00    -0.350 OA
ATOM     15  C   UNL     1       1.338   0.976  23.512  0.00  0.00    +0.166 C 
ENDROOT
BRANCH  12  16
ATOM     16  N   UNL     1      -0.749   0.534  23.600  0.00  0.00    -0.200 NA
ATOM     17  C   UNL     1      -1.134   0.196  24.245  0.00  0.00    +0.237 A 
ATOM     18  N   UNL     1      -1.906  -0.083  24.167  0.00  0.00    -0.209 NA
ATOM     19  C   UNL     1      -2.291  -0.421  24.813  0.00  0.00    +0.120 A 
ATOM     20  C   UNL     1      -1.904  -0.480  25.539  0.00  0.00    +0.043 A 
ATOM     21  C   UNL     1      -1.131  -0.202  25.619  0.00  0.00    +0.104 A 
ATOM     22  N   UNL     1      -0.746   0.137  24.971  0.00  0.00    -0.211 NA
BRANCH  19  23
ATOM     23  C   UNL     1      -3.064  -0.699  24.734  0.00  0.00    +0.163 A 
ATOM     24  C   UNL     1      -3.288  -1.490  24.657  0.00  0.00    +0.042 A 
ATOM     25  C   UNL     1      -4.110  -1.516  24.594  0.00  0.00    +0.044 A 
ATOM     26  C   UNL     1      -4.394  -0.743  24.632  0.00  0.00    +0.180 A 
ATOM     27  O   UNL     1      -3.748  -0.238  24.719  0.00  0.00    -0.449 OA
ENDBRANCH  19  23
ENDBRANCH  12  16
BRANCH   8   7
ATOM      4  N   UNL     1       4.176   0.745  23.181  0.00  0.00    -0.182 NA
ATOM      5  C   UNL     1       3.404   0.466  23.101  0.00  0.00    +0.340 C 
ATOM      6  O   UNL     1       3.267  -0.334  22.952  0.00  0.00    -0.249 OA
ATOM      7  N   UNL     1       2.768   0.988  23.170  0.00  0.00    -0.184 NA
BRANCH   4   3
ATOM      3  C   UNL     1       4.812   0.223  23.112  0.00  0.00    +0.143 C 
BRANCH   3   2
ATOM      1  C   UNL     1       6.143  -0.157  23.465  0.00  0.00    -0.003 C 
ATOM      2  C   UNL     1       5.496   0.347  23.556  0.00  0.00    -0.003 C 
ENDBRANCH   3   2
ENDBRANCH   4   3
ENDBRANCH   8   7
TORSDOF 5
ENDMDL
