MODEL 1
REMARK VINA RESULT:     -11.2      0.000      0.000
REMARK  Name = 
REMARK  4 active torsions:
REMARK  status: ('A' for Active; 'I' for Inactive)
REMARK    1  A    between atoms: O_2  and  C_3
REMARK    2  A    between atoms: C_3  and  C_4
REMARK    3  A    between atoms: C_4  and  C_5
REMARK    4  A    between atoms: C_14  and  C_21
REMARK                            x       y       z     vdW  Elec       q    Type
REMARK                         _______ _______ _______ _____ _____    ______ ____
ROOT
ATOM      5  C   UNL     1      -3.055   2.521  24.418  0.00  0.00    +0.228 C 
ATOM      6  O   UNL     1      -2.462   1.995  24.186  0.00  0.00    -0.275 OA
ATOM      7  N   UNL     1      -3.782   2.232  24.682  0.00  0.00    -0.279 N 
ATOM      8  C   UNL     1      -4.565   2.242  24.973  0.00  0.00    +0.095 C 
ATOM      9  C   UNL     1      -4.738   1.270  25.017  0.00  0.00    +0.043 C 
ATOM     10  C   UNL     1      -5.033   0.517  25.112  0.00  0.00    +0.011 C 
ATOM     11  C   UNL     1      -4.436   0.817  24.896  0.00  0.00    +0.058 C 
ATOM     12  C   UNL     1      -4.284   1.760  24.859  0.00  0.00    +0.099 C 
ATOM     13  C   UNL     1      -3.598   0.611  24.580  0.00  0.00    +0.042 A 
ATOM     14  C   UNL     1      -3.127  -0.040  24.392  0.00  0.00    +0.018 A 
ATOM     15  C   UNL     1      -2.361   0.074  24.109  0.00  0.00    +0.006 A 
ATOM     16  C   UNL     1      -2.065   0.839  24.015  0.00  0.00    +0.061 A 
ATOM     17  C   UNL     1      -2.536   1.489  24.203  0.00  0.00    +0.261 A 
ATOM     18  O   UNL     1      -2.034   2.121  24.030  0.00  0.00    -0.267 OA
ATOM     19  N   UNL     1      -3.302   1.375  24.486  0.00  0.00    -0.299 N 
ATOM     20  C   UNL     1      -3.860   1.064  24.687  0.00  0.00    +0.110 C 
ENDROOT
BRANCH  14  21
ATOM     21  C   UNL     1      -3.423  -0.804  24.486  0.00  0.00    +0.031 A 
ATOM     22  C   UNL     1      -3.884  -1.216  23.940  0.00  0.00    +0.007 A 
ATOM     23  C   UNL     1      -4.055  -1.957  24.259  0.00  0.00    +0.007 A 
ATOM     24  C   UNL     1      -3.700  -2.003  25.002  0.00  0.00    +0.035 A 
ATOM     25  S   UNL     1      -3.310  -1.291  25.142  0.00  0.00    -0.086 S 
ENDBRANCH  14  21
BRANCH   5   4
ATOM      4  C   UNL     1      -2.922   3.334  24.385  0.00  0.00    +0.117 C 
BRANCH   4   3
ATOM      3  C   UNL     1      -2.457   3.699  24.961  0.00  0.00    +0.152 C 
BRANCH   3   2
ATOM      1  C   UNL     1      -1.752   4.880  25.350  0.00  0.00    +0.174 C 
ATOM      2  O   UNL     1      -2.399   4.522  24.983  0.00  0.00    -0.351 OA
ENDBRANCH   3   2
ENDBRANCH   4   3
ENDBRANCH   5   4
TORSDOF 4
ENDMDL
MODEL 2
REMARK VINA RESULT:     -10.9      1.434      2.005
REMARK  Name = 
REMARK  4 active torsions:
REMARK  status: ('A' for Active; 'I' for Inactive)
REMARK    1  A    between atoms: O_2  and  C_3
REMARK    2  A    between atoms: C_3  and  C_4
REMARK    3  A    between atoms: C_4  and  C_5
REMARK    4  A    between atoms: C_14  and  C_21
REMARK                            x       y       z     vdW  Elec       q    Type
REMARK                         _______ _______ _______ _____ _____    ______ ____
ROOT
ATOM      5  C   UNL     1      -3.974   1.545  24.564  0.00  0.00    +0.228 C 
ATOM      6  O   UNL     1      -3.193   1.702  24.349  0.00  0.00    -0.275 OA
ATOM      7  N   UNL     1      -4.178   0.804  24.866  0.00  0.00    -0.279 N 
ATOM      8  C   UNL     1      -4.656   0.194  25.178  0.00  0.00    +0.095 C 
ATOM      9  C   UNL     1      -3.975  -0.513  25.287  0.00  0.00    +0.043 C 
ATOM     10  C   UNL     1      -3.543  -1.187  25.435  0.00  0.00    +0.011 C 
ATOM     11  C   UNL     1      -3.427  -0.542  25.185  0.00  0.00    +0.058 C 
ATOM     12  C   UNL     1      -4.097   0.131  25.086  0.00  0.00    +0.099 C 
ATOM     13  C   UNL     1      -2.756  -0.005  24.859  0.00  0.00    +0.042 A 
ATOM     14  C   UNL     1      -1.948  -0.017  24.697  0.00  0.00    +0.018 A 
ATOM     15  C   UNL     1      -1.579   0.653  24.387  0.00  0.00    +0.006 A 
ATOM     16  C   UNL     1      -2.020   1.334  24.237  0.00  0.00    +0.061 A 
ATOM     17  C   UNL     1      -2.828   1.346  24.399  0.00  0.00    +0.261 A 
ATOM     18  O   UNL     1      -3.037   2.112  24.173  0.00  0.00    -0.267 OA
ATOM     19  N   UNL     1      -3.197   0.677  24.710  0.00  0.00    -0.299 N 
ATOM     20  C   UNL     1      -3.280   0.056  24.945  0.00  0.00    +0.110 C 
ENDROOT
BRANCH  14  21
ATOM     21  C   UNL     1      -1.507  -0.699  24.846  0.00  0.00    +0.031 A 
ATOM     22  C   UNL     1      -1.445  -1.354  24.350  0.00  0.00    +0.007 A 
ATOM     23  C   UNL     1      -0.951  -1.905  24.715  0.00  0.00    +0.007 A 
ATOM     24  C   UNL     1      -0.708  -1.590  25.437  0.00  0.00    +0.035 A 
ATOM     25  S   UNL     1      -1.052  -0.845  25.519  0.00  0.00    -0.086 S 
ENDBRANCH  14  21
BRANCH   5   4
ATOM      4  C   UNL     1      -4.551   2.127  24.478  0.00  0.00    +0.117 C 
BRANCH   4   3
ATOM      3  C   UNL     1      -4.679   2.674  25.083  0.00  0.00    +0.152 C 
BRANCH   3   2
ATOM      1  C   UNL     1      -5.427   3.762  25.629  0.00  0.00    +0.174 C 
ATOM      2  O   UNL     1      -5.314   3.200  25.036  0.00  0.00    -0.351 OA
ENDBRANCH   3   2
ENDBRANCH   4   3
ENDBRANCH   5   4
TORSDOF 4
ENDMDL
MODEL 3
REMARK VINA RESULT:     -10.9      1.574      3.730
REMARK  Name = 
REMARK  4 active torsions:
REMARK  status: ('A' for Active; 'I' for Inactive)
REMARK    1  A    between atoms: O_2  and  C_3
REMARK    2  A    between atoms: C_3  and  C_4
REMARK    3  A    between atoms: C_4  and  C_5
REMARK    4  A    between atoms: C_14  and  C_21
REMARK                            x       y       z     vdW  Elec       q    Type
REMARK                         _______ _______ _______ _____ _____    ______ ____
ROOT
ATOM      5  C   UNL     1      -3.662   0.152  24.223  0.00  0.00    +0.228 C 
ATOM      6  O   UNL     1      -2.867   0.373  24.178  0.00  0.00    -0.275 OA
ATOM      7  N   UNL     1      -4.223   0.686  24.507  0.00  0.00    -0.279 N 
ATOM      8  C   UNL     1      -4.969   0.984  24.734  0.00  0.00    +0.095 C 
ATOM      9  C   UNL     1      -4.704   1.891  25.024  0.00  0.00    +0.043 C 
ATOM     10  C   UNL     1      -4.651   2.657  25.295  0.00  0.00    +0.011 C 
ATOM     11  C   UNL     1      -4.218   2.164  25.046  0.00  0.00    +0.058 C 
ATOM     12  C   UNL     1      -4.490   1.291  24.771  0.00  0.00    +0.099 C 
ATOM     13  C   UNL     1      -3.333   2.014  24.851  0.00  0.00    +0.042 A 
ATOM     14  C   UNL     1      -2.600   2.391  24.872  0.00  0.00    +0.018 A 
ATOM     15  C   UNL     1      -1.924   1.991  24.619  0.00  0.00    +0.006 A 
ATOM     16  C   UNL     1      -1.981   1.215  24.345  0.00  0.00    +0.061 A 
ATOM     17  C   UNL     1      -2.714   0.838  24.323  0.00  0.00    +0.261 A 
ATOM     18  O   UNL     1      -2.518   0.097  24.021  0.00  0.00    -0.267 OA
ATOM     19  N   UNL     1      -3.390   1.238  24.577  0.00  0.00    -0.299 N 
ATOM     20  C   UNL     1      -3.781   1.725  24.817  0.00  0.00    +0.110 C 
ENDROOT
BRANCH  14  21
ATOM     21  C   UNL     1      -2.542   3.167  25.147  0.00  0.00    +0.031 A 
ATOM     22  C   UNL     1      -2.452   3.397  25.933  0.00  0.00    +0.007 A 
ATOM     23  C   UNL     1      -2.419   4.221  25.956  0.00  0.00    +0.007 A 
ATOM     24  C   UNL     1      -2.489   4.500  25.182  0.00  0.00    +0.035 A 
ATOM     25  S   UNL     1      -2.565   3.848  24.683  0.00  0.00    -0.086 S 
ENDBRANCH  14  21
BRANCH   5   4
ATOM      4  C   UNL     1      -3.894  -0.603  23.984  0.00  0.00    +0.117 C 
BRANCH   4   3
ATOM      3  C   UNL     1      -3.748  -1.253  24.471  0.00  0.00    +0.152 C 
BRANCH   3   2
ATOM      1  C   UNL     1      -3.688  -2.674  24.604  0.00  0.00    +0.174 C 
ATOM      2  O   UNL     1      -4.008  -2.003  24.246  0.00  0.00    -0.351 OA
ENDBRANCH   3   2
ENDBRANCH   4   3
ENDBRANCH   5   4
TORSDOF 4
ENDMDL
MODEL 4
REMARK VINA RESULT:     -10.6      1.506      2.785
REMARK  Name = 
REMARK  4 active torsions:
REMARK  status: ('A' for Active; 'I' for Inactive)
REMARK    1  A    between atoms: O_2  and  C_3
REMARK    2  A    between atoms: C_3  and  C_4
REMARK    3  A    between atoms: C_4  and  C_5
REMARK    4  A    between atoms: C_14  and  C_21
REMARK                            x       y       z     vdW  Elec       q    Type
REMARK                         _______ _______ _______ _____ _____    ______ ____
ROOT
ATOM      5  C   UNL     1      -2.102   1.289  23.818  0.00  0.00    +0.228 C 
ATOM      6  O   UNL     1      -2.442   2.034  23.714  0.00  0.00    -0.275 OA
ATOM      7  N   UNL     1      -2.517   0.698  24.218  0.00  0.00    -0.279 N 
ATOM      8  C   UNL     1      -2.678  -0.049  24.555  0.00  0.00    +0.095 C 
ATOM      9  C   UNL     1      -3.583   0.123  24.914  0.00  0.00    +0.043 C 
ATOM     10  C   UNL     1      -4.319   0.103  25.262  0.00  0.00    +0.011 C 
ATOM     11  C   UNL     1      -3.922   0.566  24.915  0.00  0.00    +0.058 C 
ATOM     12  C   UNL     1      -3.048   0.384  24.574  0.00  0.00    +0.099 C 
ATOM     13  C   UNL     1      -3.924   1.433  24.611  0.00  0.00    +0.042 A 
ATOM     14  C   UNL     1      -4.402   2.105  24.597  0.00  0.00    +0.018 A 
ATOM     15  C   UNL     1      -4.134   2.794  24.230  0.00  0.00    +0.006 A 
ATOM     16  C   UNL     1      -3.388   2.810  23.879  0.00  0.00    +0.061 A 
ATOM     17  C   UNL     1      -2.910   2.138  23.894  0.00  0.00    +0.261 A 
ATOM     18  O   UNL     1      -2.237   2.397  23.492  0.00  0.00    -0.267 OA
ATOM     19  N   UNL     1      -3.178   1.450  24.260  0.00  0.00    -0.299 N 
ATOM     20  C   UNL     1      -3.576   1.027  24.593  0.00  0.00    +0.110 C 
ENDROOT
BRANCH  14  21
ATOM     21  C   UNL     1      -5.149   2.088  24.948  0.00  0.00    +0.031 A 
ATOM     22  C   UNL     1      -5.833   1.767  24.618  0.00  0.00    +0.007 A 
ATOM     23  C   UNL     1      -6.449   1.870  25.157  0.00  0.00    +0.007 A 
ATOM     24  C   UNL     1      -6.145   2.255  25.821  0.00  0.00    +0.035 A 
ATOM     25  S   UNL     1      -5.342   2.389  25.692  0.00  0.00    -0.086 S 
ENDBRANCH  14  21
BRANCH   5   4
ATOM      4  C   UNL     1      -1.348   1.135  23.523  0.00  0.00    +0.117 C 
BRANCH   4   3
ATOM      3  C   UNL     1      -0.682   1.322  23.974  0.00  0.00    +0.152 C 
BRANCH   3   2
ATOM      1  C   UNL     1       0.740   1.363  24.108  0.00  0.00    +0.174 C 
ATOM      2  O   UNL     1       0.067   1.079  23.726  0.00  0.00    -0.351 OA
ENDBRANCH   3   2
ENDBRANCH   4   3
ENDBRANCH   5   4
TORSDOF 4
ENDMDL
