MODEL 1
REMARK VINA RESULT:     -10.3      0.000      0.000
REMARK  Name = 
REMARK  7 active torsions:
REMARK  status: ('A' for Active; 'I' for Inactive)
REMARK    1  A    between atoms: O_2  and  C_3
REMARK    2  A    between atoms: C_6  and  C_9
REMARK    3  A    between atoms: N_11  and  C_12
REMARK    4  A    between atoms: C_19  and  C_20
REMARK    5  A    between atoms: C_20  and  C_22
REMARK    6  A    between atoms: N_24  and  C_25
REMARK    7  A    between atoms: C_25  and  C_26
REMARK                            x       y       z     vdW  Elec       q    Type
REMARK                         _______ _______ _______ _____ _____    ______ ____
ROOT
ATOM     12  C   UNL     1      -4.644   0.489  24.774  0.00  0.00    +0.096 C 
ATOM     13  C   UNL     1      -5.295   0.506  25.282  0.00  0.00    +0.022 C 
ATOM     14  C   UNL     1      -5.575   1.226  25.570  0.00  0.00    +0.002 C 
ATOM     15  C   UNL     1      -5.205   1.929  25.351  0.00  0.00    +0.002 C 
ATOM     16  C   UNL     1      -5.855   1.946  25.858  0.00  0.00    +0.000 C 
ATOM     17  C   UNL     1      -5.485   2.650  25.639  0.00  0.00    +0.000 C 
ATOM     18  C   UNL     1      -5.115   3.354  25.420  0.00  0.00    +0.003 C 
ATOM     19  C   UNL     1      -4.464   3.337  24.912  0.00  0.00    +0.039 C 
ATOM     31  C   UNL     1      -4.184   2.617  24.624  0.00  0.00    +0.152 C 
ATOM     32  O   UNL     1      -3.534   2.600  24.116  0.00  0.00    -0.223 OA
ATOM     33  C   UNL     1      -4.554   1.912  24.843  0.00  0.00    +0.032 C 
ATOM     34  C   UNL     1      -4.275   1.192  24.555  0.00  0.00    +0.022 C 
ATOM     35  C   UNL     1      -3.624   1.176  24.047  0.00  0.00    +0.002 C 
ENDROOT
BRANCH  12  11
ATOM      9  C   UNL     1      -4.115  -0.818  25.010  0.00  0.00    +0.265 C 
ATOM     10  O   UNL     1      -4.145  -0.683  25.825  0.00  0.00    -0.268 OA
ATOM     11  N   UNL     1      -4.365  -0.232  24.486  0.00  0.00    -0.203 NA
BRANCH   9   6
ATOM      3  C   UNL     1      -3.278  -2.980  24.145  0.00  0.00    +0.139 A 
ATOM      4  C   UNL     1      -2.868  -2.590  24.746  0.00  0.00    +0.037 A 
ATOM      5  C   UNL     1      -3.148  -1.869  25.034  0.00  0.00    +0.008 A 
ATOM      6  C   UNL     1      -3.836  -1.538  24.722  0.00  0.00    +0.055 A 
ATOM      7  C   UNL     1      -4.245  -1.929  24.122  0.00  0.00    +0.008 A 
ATOM      8  C   UNL     1      -3.967  -2.649  23.833  0.00  0.00    +0.037 A 
BRANCH   3   2
ATOM      1  C   UNL     1      -2.244  -3.750  23.531  0.00  0.00    +0.252 C 
ATOM      2  O   UNL     1      -2.999  -3.701  23.856  0.00  0.00    -0.471 OA
ENDBRANCH   3   2
ENDBRANCH   9   6
ENDBRANCH  12  11
BRANCH  19  20
ATOM     20  C   UNL     1      -4.094   4.041  24.693  0.00  0.00    +0.081 C 
ATOM     21  C   UNL     1      -4.316   4.424  23.997  0.00  0.00    +0.010 C 
BRANCH  20  22
ATOM     22  C   UNL     1      -3.503   4.363  25.169  0.00  0.00    +0.241 C 
ATOM     23  O   UNL     1      -3.692   4.669  25.912  0.00  0.00    -0.273 OA
ATOM     24  N   UNL     1      -2.721   4.378  24.904  0.00  0.00    -0.200 NA
BRANCH  24  25
ATOM     25  C   UNL     1      -2.130   4.699  25.380  0.00  0.00    +0.148 C 
BRANCH  25  26
ATOM     26  C   UNL     1      -1.339   4.649  25.148  0.00  0.00    +0.029 A 
ATOM     27  C   UNL     1      -0.911   5.233  24.755  0.00  0.00    +0.004 A 
ATOM     28  C   UNL     1      -0.146   4.949  24.633  0.00  0.00    +0.007 A 
ATOM     29  C   UNL     1      -0.102   4.189  24.952  0.00  0.00    +0.035 A 
ATOM     30  S   UNL     1      -0.840   4.004  25.270  0.00  0.00    -0.089 S 
ENDBRANCH  25  26
ENDBRANCH  24  25
ENDBRANCH  20  22
ENDBRANCH  19  20
TORSDOF 7
ENDMDL
MODEL 2
REMARK VINA RESULT:     -10.1      3.257      4.809
REMARK  Name = 
REMARK  7 active torsions:
REMARK  status: ('A' for Active; 'I' for Inactive)
REMARK    1  A    between atoms: O_2  and  C_3
REMARK    2  A    between atoms: C_6  and  C_9
REMARK    3  A    between atoms: N_11  and  C_12
REMARK    4  A    between atoms: C_19  and  C_20
REMARK    5  A    between atoms: C_20  and  C_22
REMARK    6  A    between atoms: N_24  and  C_25
REMARK    7  A    between atoms: C_25  and  C_26
REMARK                            x       y       z     vdW  Elec       q    Type
REMARK                         _______ _______ _______ _____ _____    ______ ____
ROOT
ATOM     12  C   UNL     1      -0.700  -0.048  24.386  0.00  0.00    +0.096 C 
ATOM     13  C   UNL     1      -0.620  -0.606  24.990  0.00  0.00    +0.022 C 
ATOM     14  C   UNL     1      -1.287  -0.872  25.395  0.00  0.00    +0.002 C 
ATOM     15  C   UNL     1      -2.033  -0.583  25.198  0.00  0.00    +0.002 C 
ATOM     16  C   UNL     1      -1.954  -1.139  25.800  0.00  0.00    +0.000 C 
ATOM     17  C   UNL     1      -2.701  -0.849  25.603  0.00  0.00    +0.000 C 
ATOM     18  C   UNL     1      -3.447  -0.559  25.405  0.00  0.00    +0.003 C 
ATOM     19  C   UNL     1      -3.526  -0.001  24.801  0.00  0.00    +0.039 C 
ATOM     31  C   UNL     1      -2.859   0.265  24.396  0.00  0.00    +0.152 C 
ATOM     32  O   UNL     1      -2.939   0.822  23.793  0.00  0.00    -0.223 OA
ATOM     33  C   UNL     1      -2.112  -0.025  24.594  0.00  0.00    +0.032 C 
ATOM     34  C   UNL     1      -1.446   0.242  24.189  0.00  0.00    +0.022 C 
ATOM     35  C   UNL     1      -1.525   0.799  23.585  0.00  0.00    +0.002 C 
ENDROOT
BRANCH  12  11
ATOM      9  C   UNL     1       0.528  -0.322  23.706  0.00  0.00    +0.265 C 
ATOM     10  O   UNL     1       0.420  -1.131  23.836  0.00  0.00    -0.268 OA
ATOM     11  N   UNL     1      -0.032   0.218  23.981  0.00  0.00    -0.203 NA
BRANCH   9   6
ATOM      3  C   UNL     1       2.529   0.478  22.491  0.00  0.00    +0.139 A 
ATOM      4  C   UNL     1       2.366   0.761  23.248  0.00  0.00    +0.037 A 
ATOM      5  C   UNL     1       1.698   0.494  23.653  0.00  0.00    +0.008 A 
ATOM      6  C   UNL     1       1.195  -0.055  23.301  0.00  0.00    +0.055 A 
ATOM      7  C   UNL     1       1.358  -0.339  22.544  0.00  0.00    +0.008 A 
ATOM      8  C   UNL     1       2.025  -0.072  22.138  0.00  0.00    +0.037 A 
BRANCH   3   2
ATOM      1  C   UNL     1       3.934   0.732  22.451  0.00  0.00    +0.252 C 
ATOM      2  O   UNL     1       3.196   0.744  22.085  0.00  0.00    -0.471 OA
ENDBRANCH   3   2
ENDBRANCH   9   6
ENDBRANCH  12  11
BRANCH  19  20
ATOM     20  C   UNL     1      -4.273   0.289  24.604  0.00  0.00    +0.081 C 
ATOM     21  C   UNL     1      -4.602   0.112  23.868  0.00  0.00    +0.010 C 
BRANCH  20  22
ATOM     22  C   UNL     1      -4.690   0.754  25.141  0.00  0.00    +0.241 C 
ATOM     23  O   UNL     1      -5.105   0.399  25.761  0.00  0.00    -0.273 OA
ATOM     24  N   UNL     1      -4.694   1.576  25.060  0.00  0.00    -0.200 NA
BRANCH  24  25
ATOM     25  C   UNL     1      -5.112   2.041  25.598  0.00  0.00    +0.148 C 
BRANCH  25  26
ATOM     26  C   UNL     1      -5.050   2.864  25.567  0.00  0.00    +0.029 A 
ATOM     27  C   UNL     1      -4.357   3.301  25.657  0.00  0.00    +0.004 A 
ATOM     28  C   UNL     1      -4.550   4.100  25.586  0.00  0.00    +0.007 A 
ATOM     29  C   UNL     1      -5.362   4.156  25.453  0.00  0.00    +0.035 A 
ATOM     30  S   UNL     1      -5.671   3.391  25.442  0.00  0.00    -0.089 S 
ENDBRANCH  25  26
ENDBRANCH  24  25
ENDBRANCH  20  22
ENDBRANCH  19  20
TORSDOF 7
ENDMDL
MODEL 3
REMARK VINA RESULT:      -9.7      3.633      5.588
REMARK  Name = 
REMARK  7 active torsions:
REMARK  status: ('A' for Active; 'I' for Inactive)
REMARK    1  A    between atoms: O_2  and  C_3
REMARK    2  A    between atoms: C_6  and  C_9
REMARK    3  A    between atoms: N_11  and  C_12
REMARK    4  A    between atoms: C_19  and  C_20
REMARK    5  A    between atoms: C_20  and  C_22
REMARK    6  A    between atoms: N_24  and  C_25
REMARK    7  A    between atoms: C_25  and  C_26
REMARK                            x       y       z     vdW  Elec       q    Type
REMARK                         _______ _______ _______ _____ _____    ______ ____
ROOT
ATOM     12  C   UNL     1      -2.054   1.925  24.788  0.00  0.00    +0.096 C 
ATOM     13  C   UNL     1      -1.653   2.646  24.835  0.00  0.00    +0.022 C 
ATOM     14  C   UNL     1      -0.859   2.690  24.616  0.00  0.00    +0.002 C 
ATOM     15  C   UNL     1      -0.466   2.016  24.351  0.00  0.00    +0.002 C 
ATOM     16  C   UNL     1      -0.066   2.734  24.398  0.00  0.00    +0.000 C 
ATOM     17  C   UNL     1       0.328   2.060  24.132  0.00  0.00    +0.000 C 
ATOM     18  C   UNL     1       0.721   1.385  23.866  0.00  0.00    +0.003 C 
ATOM     19  C   UNL     1       0.320   0.665  23.819  0.00  0.00    +0.039 C 
ATOM     31  C   UNL     1      -0.474   0.621  24.038  0.00  0.00    +0.152 C 
ATOM     32  O   UNL     1      -0.875  -0.099  23.990  0.00  0.00    -0.223 OA
ATOM     33  C   UNL     1      -0.868   1.295  24.304  0.00  0.00    +0.032 C 
ATOM     34  C   UNL     1      -1.661   1.251  24.522  0.00  0.00    +0.022 C 
ATOM     35  C   UNL     1      -2.062   0.532  24.475  0.00  0.00    +0.002 C 
ENDROOT
BRANCH  12  11
ATOM      9  C   UNL     1      -3.375   2.474  24.777  0.00  0.00    +0.265 C 
ATOM     10  O   UNL     1      -3.106   3.112  24.327  0.00  0.00    -0.268 OA
ATOM     11  N   UNL     1      -2.849   1.881  25.007  0.00  0.00    -0.203 NA
BRANCH   9   6
ATOM      3  C   UNL     1      -5.757   2.341  25.434  0.00  0.00    +0.139 A 
ATOM      4  C   UNL     1      -5.269   2.918  25.764  0.00  0.00    +0.037 A 
ATOM      5  C   UNL     1      -4.475   2.962  25.545  0.00  0.00    +0.008 A 
ATOM      6  C   UNL     1      -4.168   2.430  24.996  0.00  0.00    +0.055 A 
ATOM      7  C   UNL     1      -4.656   1.852  24.665  0.00  0.00    +0.008 A 
ATOM      8  C   UNL     1      -5.450   1.807  24.883  0.00  0.00    +0.037 A 
BRANCH   3   2
ATOM      1  C   UNL     1      -6.764   1.927  26.357  0.00  0.00    +0.252 C 
ATOM      2  O   UNL     1      -6.551   2.296  25.652  0.00  0.00    -0.471 OA
ENDBRANCH   3   2
ENDBRANCH   9   6
ENDBRANCH  12  11
BRANCH  19  20
ATOM     20  C   UNL     1       0.714  -0.009  23.553  0.00  0.00    +0.081 C 
ATOM     21  C   UNL     1       0.542  -0.745  23.885  0.00  0.00    +0.010 C 
BRANCH  20  22
ATOM     22  C   UNL     1       1.278   0.051  22.955  0.00  0.00    +0.241 C 
ATOM     23  O   UNL     1       1.042   0.074  22.164  0.00  0.00    -0.273 OA
ATOM     24  N   UNL     1       2.080   0.088  23.147  0.00  0.00    -0.200 NA
BRANCH  24  25
ATOM     25  C   UNL     1       2.645   0.148  22.550  0.00  0.00    +0.148 C 
BRANCH  25  26
ATOM     26  C   UNL     1       3.437   0.280  22.741  0.00  0.00    +0.029 A 
ATOM     27  C   UNL     1       3.843   0.993  22.661  0.00  0.00    +0.004 A 
ATOM     28  C   UNL     1       4.618   0.874  22.917  0.00  0.00    +0.007 A 
ATOM     29  C   UNL     1       4.691   0.087  23.155  0.00  0.00    +0.035 A 
ATOM     30  S   UNL     1       3.960  -0.280  23.046  0.00  0.00    -0.089 S 
ENDBRANCH  25  26
ENDBRANCH  24  25
ENDBRANCH  20  22
ENDBRANCH  19  20
TORSDOF 7
ENDMDL
MODEL 4
REMARK VINA RESULT:      -9.7      3.954      5.540
REMARK  Name = 
REMARK  7 active torsions:
REMARK  status: ('A' for Active; 'I' for Inactive)
REMARK    1  A    between atoms: O_2  and  C_3
REMARK    2  A    between atoms: C_6  and  C_9
REMARK    3  A    between atoms: N_11  and  C_12
REMARK    4  A    between atoms: C_19  and  C_20
REMARK    5  A    between atoms: C_20  and  C_22
REMARK    6  A    between atoms: N_24  and  C_25
REMARK    7  A    between atoms: C_25  and  C_26
REMARK                            x       y       z     vdW  Elec       q    Type
REMARK                         _______ _______ _______ _____ _____    ______ ____
ROOT
ATOM     12  C   UNL     1       0.595   0.666  23.897  0.00  0.00    +0.096 C 
ATOM     13  C   UNL     1       0.186  -0.038  23.760  0.00  0.00    +0.022 C 
ATOM     14  C   UNL     1      -0.629  -0.071  23.881  0.00  0.00    +0.002 C 
ATOM     15  C   UNL     1      -1.035   0.598  24.138  0.00  0.00    +0.002 C 
ATOM     16  C   UNL     1      -1.444  -0.104  24.002  0.00  0.00    +0.000 C 
ATOM     17  C   UNL     1      -1.851   0.566  24.259  0.00  0.00    +0.000 C 
ATOM     18  C   UNL     1      -2.257   1.235  24.517  0.00  0.00    +0.003 C 
ATOM     19  C   UNL     1      -1.848   1.939  24.653  0.00  0.00    +0.039 C 
ATOM     31  C   UNL     1      -1.033   1.972  24.532  0.00  0.00    +0.152 C 
ATOM     32  O   UNL     1      -0.624   2.676  24.668  0.00  0.00    -0.223 OA
ATOM     33  C   UNL     1      -0.626   1.302  24.275  0.00  0.00    +0.032 C 
ATOM     34  C   UNL     1       0.189   1.335  24.154  0.00  0.00    +0.022 C 
ATOM     35  C   UNL     1       0.598   2.039  24.290  0.00  0.00    +0.002 C 
ENDROOT
BRANCH  12  11
ATOM      9  C   UNL     1       1.754   0.275  23.156  0.00  0.00    +0.265 C 
ATOM     10  O   UNL     1       1.281  -0.182  22.657  0.00  0.00    -0.268 OA
ATOM     11  N   UNL     1       1.411   0.698  23.775  0.00  0.00    -0.203 NA
BRANCH   9   6
ATOM      3  C   UNL     1       4.200   0.373  22.794  0.00  0.00    +0.139 A 
ATOM      4  C   UNL     1       3.731   1.029  22.619  0.00  0.00    +0.037 A 
ATOM      5  C   UNL     1       2.915   0.995  22.740  0.00  0.00    +0.008 A 
ATOM      6  C   UNL     1       2.569   0.308  23.035  0.00  0.00    +0.055 A 
ATOM      7  C   UNL     1       3.038  -0.348  23.210  0.00  0.00    +0.008 A 
ATOM      8  C   UNL     1       3.854  -0.316  23.089  0.00  0.00    +0.037 A 
BRANCH   3   2
ATOM      1  C   UNL     1       5.528   0.093  23.238  0.00  0.00    +0.252 C 
ATOM      2  O   UNL     1       5.015   0.405  22.673  0.00  0.00    -0.471 OA
ENDBRANCH   3   2
ENDBRANCH   9   6
ENDBRANCH  12  11
BRANCH  19  20
ATOM     20  C   UNL     1      -2.255   2.609  24.910  0.00  0.00    +0.081 C 
ATOM     21  C   UNL     1      -1.931   3.088  25.499  0.00  0.00    +0.010 C 
BRANCH  20  22
ATOM     22  C   UNL     1      -2.985   2.801  24.580  0.00  0.00    +0.241 C 
ATOM     23  O   UNL     1      -3.022   3.132  23.824  0.00  0.00    -0.273 OA
ATOM     24  N   UNL     1      -3.680   2.663  25.003  0.00  0.00    -0.200 NA
BRANCH  24  25
ATOM     25  C   UNL     1      -4.410   2.855  24.673  0.00  0.00    +0.148 C 
BRANCH  25  26
ATOM     26  C   UNL     1      -5.108   2.610  25.040  0.00  0.00    +0.029 A 
ATOM     27  C   UNL     1      -5.567   1.961  24.823  0.00  0.00    +0.004 A 
ATOM     28  C   UNL     1      -6.211   1.922  25.338  0.00  0.00    +0.007 A 
ATOM     29  C   UNL     1      -6.149   2.547  25.873  0.00  0.00    +0.035 A 
ATOM     30  S   UNL     1      -5.466   2.972  25.688  0.00  0.00    -0.089 S 
ENDBRANCH  25  26
ENDBRANCH  24  25
ENDBRANCH  20  22
ENDBRANCH  19  20
TORSDOF 7
ENDMDL
MODEL 5
REMARK VINA RESULT:      -9.7      2.612      5.289
REMARK  Name = 
REMARK  7 active torsions:
REMARK  status: ('A' for Active; 'I' for Inactive)
REMARK    1  A    between atoms: O_2  and  C_3
REMARK    2  A    between atoms: C_6  and  C_9
REMARK    3  A    between atoms: N_11  and  C_12
REMARK    4  A    between atoms: C_19  and  C_20
REMARK    5  A    between atoms: C_20  and  C_22
REMARK    6  A    between atoms: N_24  and  C_25
REMARK    7  A    between atoms: C_25  and  C_26
REMARK                            x       y       z     vdW  Elec       q    Type
REMARK                         _______ _______ _______ _____ _____    ______ ____
ROOT
ATOM     12  C   UNL     1      -3.833   0.350  25.170  0.00  0.00    +0.096 C 
ATOM     13  C   UNL     1      -4.321  -0.289  24.982  0.00  0.00    +0.022 C 
ATOM     14  C   UNL     1      -3.989  -1.010  24.760  0.00  0.00    +0.002 C 
ATOM     15  C   UNL     1      -3.170  -1.094  24.725  0.00  0.00    +0.002 C 
ATOM     16  C   UNL     1      -3.657  -1.731  24.538  0.00  0.00    +0.000 C 
ATOM     17  C   UNL     1      -2.837  -1.815  24.502  0.00  0.00    +0.000 C 
ATOM     18  C   UNL     1      -2.018  -1.898  24.467  0.00  0.00    +0.003 C 
ATOM     19  C   UNL     1      -1.529  -1.259  24.655  0.00  0.00    +0.039 C 
ATOM     31  C   UNL     1      -1.861  -0.538  24.877  0.00  0.00    +0.152 C 
ATOM     32  O   UNL     1      -1.373   0.100  25.065  0.00  0.00    -0.223 OA
ATOM     33  C   UNL     1      -2.681  -0.454  24.912  0.00  0.00    +0.032 C 
ATOM     34  C   UNL     1      -3.014   0.267  25.135  0.00  0.00    +0.022 C 
ATOM     35  C   UNL     1      -2.526   0.905  25.322  0.00  0.00    +0.002 C 
ENDROOT
BRANCH  12  11
ATOM      9  C   UNL     1      -4.799   1.384  24.965  0.00  0.00    +0.265 C 
ATOM     10  O   UNL     1      -5.100   0.975  24.314  0.00  0.00    -0.268 OA
ATOM     11  N   UNL     1      -4.166   1.072  25.392  0.00  0.00    -0.203 NA
BRANCH   9   6
ATOM      3  C   UNL     1      -5.796   3.548  25.633  0.00  0.00    +0.139 A 
ATOM      4  C   UNL     1      -6.143   2.841  25.878  0.00  0.00    +0.037 A 
ATOM      5  C   UNL     1      -5.810   2.120  25.655  0.00  0.00    +0.008 A 
ATOM      6  C   UNL     1      -5.131   2.105  25.188  0.00  0.00    +0.055 A 
ATOM      7  C   UNL     1      -4.784   2.812  24.944  0.00  0.00    +0.008 A 
ATOM      8  C   UNL     1      -5.115   3.534  25.166  0.00  0.00    +0.037 A 
BRANCH   3   2
ATOM      1  C   UNL     1      -5.929   4.958  25.448  0.00  0.00    +0.252 C 
ATOM      2  O   UNL     1      -6.128   4.270  25.856  0.00  0.00    -0.471 OA
ENDBRANCH   3   2
ENDBRANCH   9   6
ENDBRANCH  12  11
BRANCH  19  20
ATOM     20  C   UNL     1      -0.709  -1.343  24.620  0.00  0.00    +0.081 C 
ATOM     21  C   UNL     1      -0.283  -1.516  25.305  0.00  0.00    +0.010 C 
BRANCH  20  22
ATOM     22  C   UNL     1      -0.315  -1.255  23.901  0.00  0.00    +0.241 C 
ATOM     23  O   UNL     1      -0.509  -1.742  23.262  0.00  0.00    -0.273 OA
ATOM     24  N   UNL     1       0.272  -0.681  23.819  0.00  0.00    -0.200 NA
BRANCH  24  25
ATOM     25  C   UNL     1       0.665  -0.593  23.100  0.00  0.00    +0.148 C 
BRANCH  25  26
ATOM     26  C   UNL     1       1.314  -0.087  23.043  0.00  0.00    +0.029 A 
ATOM     27  C   UNL     1       1.363   0.676  23.353  0.00  0.00    +0.004 A 
ATOM     28  C   UNL     1       2.107   0.979  23.168  0.00  0.00    +0.007 A 
ATOM     29  C   UNL     1       2.519   0.403  22.744  0.00  0.00    +0.035 A 
ATOM     30  S   UNL     1       2.028  -0.255  22.667  0.00  0.00    -0.089 S 
ENDBRANCH  25  26
ENDBRANCH  24  25
ENDBRANCH  20  22
ENDBRANCH  19  20
TORSDOF 7
ENDMDL
MODEL 6
REMARK VINA RESULT:      -9.0      3.012      4.663
REMARK  Name = 
REMARK  7 active torsions:
REMARK  status: ('A' for Active; 'I' for Inactive)
REMARK    1  A    between atoms: O_2  and  C_3
REMARK    2  A    between atoms: C_6  and  C_9
REMARK    3  A    between atoms: N_11  and  C_12
REMARK    4  A    between atoms: C_19  and  C_20
REMARK    5  A    between atoms: C_20  and  C_22
REMARK    6  A    between atoms: N_24  and  C_25
REMARK    7  A    between atoms: C_25  and  C_26
REMARK                            x       y       z     vdW  Elec       q    Type
REMARK                         _______ _______ _______ _____ _____    ______ ____
ROOT
ATOM     12  C   UNL     1      -0.382   2.411  24.628  0.00  0.00    +0.096 C 
ATOM     13  C   UNL     1      -0.117   2.524  25.402  0.00  0.00    +0.022 C 
ATOM     14  C   UNL     1      -0.592   2.920  25.946  0.00  0.00    +0.002 C 
ATOM     15  C   UNL     1      -1.332   3.203  25.719  0.00  0.00    +0.002 C 
ATOM     16  C   UNL     1      -1.068   3.316  26.491  0.00  0.00    +0.000 C 
ATOM     17  C   UNL     1      -1.808   3.600  26.263  0.00  0.00    +0.000 C 
ATOM     18  C   UNL     1      -2.548   3.883  26.036  0.00  0.00    +0.003 C 
ATOM     19  C   UNL     1      -2.814   3.770  25.262  0.00  0.00    +0.039 C 
ATOM     31  C   UNL     1      -2.338   3.374  24.717  0.00  0.00    +0.152 C 
ATOM     32  O   UNL     1      -2.603   3.260  23.944  0.00  0.00    -0.223 OA
ATOM     33  C   UNL     1      -1.597   3.090  24.945  0.00  0.00    +0.032 C 
ATOM     34  C   UNL     1      -1.122   2.694  24.400  0.00  0.00    +0.022 C 
ATOM     35  C   UNL     1      -1.387   2.581  23.627  0.00  0.00    +0.002 C 
ENDROOT
BRANCH  12  11
ATOM      9  C   UNL     1       0.368   1.253  24.249  0.00  0.00    +0.265 C 
ATOM     10  O   UNL     1       0.164   0.888  24.961  0.00  0.00    -0.268 OA
ATOM     11  N   UNL     1       0.094   2.014  24.083  0.00  0.00    -0.203 NA
BRANCH   9   6
ATOM      3  C   UNL     1       1.796   0.065  22.615  0.00  0.00    +0.139 A 
ATOM      4  C   UNL     1       1.021  -0.186  22.744  0.00  0.00    +0.037 A 
ATOM      5  C   UNL     1       0.545   0.211  23.290  0.00  0.00    +0.008 A 
ATOM      6  C   UNL     1       0.844   0.857  23.704  0.00  0.00    +0.055 A 
ATOM      7  C   UNL     1       1.619   1.109  23.575  0.00  0.00    +0.008 A 
ATOM      8  C   UNL     1       2.095   0.713  23.030  0.00  0.00    +0.037 A 
BRANCH   3   2
ATOM      1  C   UNL     1       3.024  -0.042  21.893  0.00  0.00    +0.252 C 
ATOM      2  O   UNL     1       2.273  -0.330  22.070  0.00  0.00    -0.471 OA
ENDBRANCH   3   2
ENDBRANCH   9   6
ENDBRANCH  12  11
BRANCH  19  20
ATOM     20  C   UNL     1      -3.554   4.054  25.034  0.00  0.00    +0.081 C 
ATOM     21  C   UNL     1      -3.615   4.605  24.424  0.00  0.00    +0.010 C 
BRANCH  20  22
ATOM     22  C   UNL     1      -4.234   3.786  25.417  0.00  0.00    +0.241 C 
ATOM     23  O   UNL     1      -4.519   4.187  26.080  0.00  0.00    -0.273 OA
ATOM     24  N   UNL     1      -4.630   3.119  25.137  0.00  0.00    -0.200 NA
BRANCH  24  25
ATOM     25  C   UNL     1      -5.310   2.851  25.520  0.00  0.00    +0.148 C 
BRANCH  25  26
ATOM     26  C   UNL     1      -5.653   2.134  25.300  0.00  0.00    +0.029 A 
ATOM     27  C   UNL     1      -5.301   1.390  25.360  0.00  0.00    +0.004 A 
ATOM     28  C   UNL     1      -5.839   0.831  25.079  0.00  0.00    +0.007 A 
ATOM     29  C   UNL     1      -6.523   1.229  24.845  0.00  0.00    +0.035 A 
ATOM     30  S   UNL     1      -6.407   2.035  24.982  0.00  0.00    -0.089 S 
ENDBRANCH  25  26
ENDBRANCH  24  25
ENDBRANCH  20  22
ENDBRANCH  19  20
TORSDOF 7
ENDMDL
MODEL 7
REMARK VINA RESULT:      -8.7      1.744      5.579
REMARK  Name = 
REMARK  7 active torsions:
REMARK  status: ('A' for Active; 'I' for Inactive)
REMARK    1  A    between atoms: O_2  and  C_3
REMARK    2  A    between atoms: C_6  and  C_9
REMARK    3  A    between atoms: N_11  and  C_12
REMARK    4  A    between atoms: C_19  and  C_20
REMARK    5  A    between atoms: C_20  and  C_22
REMARK    6  A    between atoms: N_24  and  C_25
REMARK    7  A    between atoms: C_25  and  C_26
REMARK                            x       y       z     vdW  Elec       q    Type
REMARK                         _______ _______ _______ _____ _____    ______ ____
ROOT
ATOM     12  C   UNL     1      -3.603   2.346  24.770  0.00  0.00    +0.096 C 
ATOM     13  C   UNL     1      -4.297   2.426  25.211  0.00  0.00    +0.022 C 
ATOM     14  C   UNL     1      -4.796   1.778  25.316  0.00  0.00    +0.002 C 
ATOM     15  C   UNL     1      -4.602   1.050  24.982  0.00  0.00    +0.002 C 
ATOM     16  C   UNL     1      -5.295   1.130  25.421  0.00  0.00    +0.000 C 
ATOM     17  C   UNL     1      -5.101   0.401  25.087  0.00  0.00    +0.000 C 
ATOM     18  C   UNL     1      -4.907  -0.327  24.753  0.00  0.00    +0.003 C 
ATOM     19  C   UNL     1      -4.213  -0.408  24.313  0.00  0.00    +0.039 C 
ATOM     31  C   UNL     1      -3.714   0.240  24.207  0.00  0.00    +0.152 C 
ATOM     32  O   UNL     1      -3.020   0.160  23.768  0.00  0.00    -0.223 OA
ATOM     33  C   UNL     1      -3.908   0.970  24.542  0.00  0.00    +0.032 C 
ATOM     34  C   UNL     1      -3.409   1.618  24.436  0.00  0.00    +0.022 C 
ATOM     35  C   UNL     1      -2.716   1.537  23.997  0.00  0.00    +0.002 C 
ENDROOT
BRANCH  12  11
ATOM      9  C   UNL     1      -2.789   3.385  25.321  0.00  0.00    +0.265 C 
ATOM     10  O   UNL     1      -2.973   3.125  26.083  0.00  0.00    -0.268 OA
ATOM     11  N   UNL     1      -3.104   2.995  24.665  0.00  0.00    -0.203 NA
BRANCH   9   6
ATOM      3  C   UNL     1      -1.293   5.330  25.004  0.00  0.00    +0.139 A 
ATOM      4  C   UNL     1      -2.104   5.445  25.102  0.00  0.00    +0.037 A 
ATOM      5  C   UNL     1      -2.603   4.796  25.208  0.00  0.00    +0.008 A 
ATOM      6  C   UNL     1      -2.291   4.033  25.215  0.00  0.00    +0.055 A 
ATOM      7  C   UNL     1      -1.480   3.918  25.118  0.00  0.00    +0.008 A 
ATOM      8  C   UNL     1      -0.980   4.566  25.012  0.00  0.00    +0.037 A 
BRANCH   3   2
ATOM      1  C   UNL     1      -0.099   5.897  24.463  0.00  0.00    +0.252 C 
ATOM      2  O   UNL     1      -0.794   5.978  24.899  0.00  0.00    -0.471 OA
ENDBRANCH   3   2
ENDBRANCH   9   6
ENDBRANCH  12  11
BRANCH  19  20
ATOM     20  C   UNL     1      -4.019  -1.137  23.978  0.00  0.00    +0.081 C 
ATOM     21  C   UNL     1      -4.239  -1.306  23.202  0.00  0.00    +0.010 C 
BRANCH  20  22
ATOM     22  C   UNL     1      -3.605  -1.697  24.420  0.00  0.00    +0.241 C 
ATOM     23  O   UNL     1      -4.017  -2.246  24.880  0.00  0.00    -0.273 OA
ATOM     24  N   UNL     1      -2.780  -1.709  24.404  0.00  0.00    -0.200 NA
BRANCH  24  25
ATOM     25  C   UNL     1      -2.367  -2.269  24.845  0.00  0.00    +0.148 C 
BRANCH  25  26
ATOM     26  C   UNL     1      -1.562  -2.164  24.995  0.00  0.00    +0.029 A 
ATOM     27  C   UNL     1      -1.236  -1.687  25.584  0.00  0.00    +0.004 A 
ATOM     28  C   UNL     1      -0.415  -1.747  25.535  0.00  0.00    +0.007 A 
ATOM     29  C   UNL     1      -0.233  -2.262  24.916  0.00  0.00    +0.035 A 
ATOM     30  S   UNL     1      -0.943  -2.520  24.583  0.00  0.00    -0.089 S 
ENDBRANCH  25  26
ENDBRANCH  24  25
ENDBRANCH  20  22
ENDBRANCH  19  20
TORSDOF 7
ENDMDL
MODEL 8
REMARK VINA RESULT:      -8.7      2.697      6.736
REMARK  Name = 
REMARK  7 active torsions:
REMARK  status: ('A' for Active; 'I' for Inactive)
REMARK    1  A    between atoms: O_2  and  C_3
REMARK    2  A    between atoms: C_6  and  C_9
REMARK    3  A    between atoms: N_11  and  C_12
REMARK    4  A    between atoms: C_19  and  C_20
REMARK    5  A    between atoms: C_20  and  C_22
REMARK    6  A    between atoms: N_24  and  C_25
REMARK    7  A    between atoms: C_25  and  C_26
REMARK                            x       y       z     vdW  Elec       q    Type
REMARK                         _______ _______ _______ _____ _____    ______ ____
ROOT
ATOM     12  C   UNL     1      -0.317   1.660  24.523  0.00  0.00    +0.096 C 
ATOM     13  C   UNL     1       0.135   1.557  23.839  0.00  0.00    +0.022 C 
ATOM     14  C   UNL     1       0.302   0.797  23.566  0.00  0.00    +0.002 C 
ATOM     15  C   UNL     1       0.019   0.140  23.976  0.00  0.00    +0.002 C 
ATOM     16  C   UNL     1       0.470   0.038  23.294  0.00  0.00    +0.000 C 
ATOM     17  C   UNL     1       0.187  -0.621  23.703  0.00  0.00    +0.000 C 
ATOM     18  C   UNL     1      -0.096  -1.278  24.112  0.00  0.00    +0.003 C 
ATOM     19  C   UNL     1      -0.548  -1.175  24.796  0.00  0.00    +0.039 C 
ATOM     31  C   UNL     1      -0.716  -0.415  25.069  0.00  0.00    +0.152 C 
ATOM     32  O   UNL     1      -1.167  -0.313  25.752  0.00  0.00    -0.223 OA
ATOM     33  C   UNL     1      -0.432   0.243  24.660  0.00  0.00    +0.032 C 
ATOM     34  C   UNL     1      -0.600   1.003  24.933  0.00  0.00    +0.022 C 
ATOM     35  C   UNL     1      -1.051   1.105  25.616  0.00  0.00    +0.002 C 
ENDROOT
BRANCH  12  11
ATOM      9  C   UNL     1      -0.891   2.953  24.314  0.00  0.00    +0.265 C 
ATOM     10  O   UNL     1      -1.131   2.724  23.558  0.00  0.00    -0.268 OA
ATOM     11  N   UNL     1      -0.484   2.420  24.796  0.00  0.00    -0.203 NA
BRANCH   9   6
ATOM      3  C   UNL     1      -1.391   5.233  25.133  0.00  0.00    +0.139 A 
ATOM      4  C   UNL     1      -1.952   4.633  25.215  0.00  0.00    +0.037 A 
ATOM      5  C   UNL     1      -1.784   3.873  24.942  0.00  0.00    +0.008 A 
ATOM      6  C   UNL     1      -1.058   3.712  24.587  0.00  0.00    +0.055 A 
ATOM      7  C   UNL     1      -0.497   4.312  24.505  0.00  0.00    +0.008 A 
ATOM      8  C   UNL     1      -0.664   5.073  24.778  0.00  0.00    +0.037 A 
BRANCH   3   2
ATOM      1  C   UNL     1      -2.180   6.422  25.079  0.00  0.00    +0.252 C 
ATOM      2  O   UNL     1      -1.558   5.994  25.406  0.00  0.00    -0.471 OA
ENDBRANCH   3   2
ENDBRANCH   9   6
ENDBRANCH  12  11
BRANCH  19  20
ATOM     20  C   UNL     1      -0.831  -1.833  25.206  0.00  0.00    +0.081 C 
ATOM     21  C   UNL     1      -0.543  -2.005  25.959  0.00  0.00    +0.010 C 
BRANCH  20  22
ATOM     22  C   UNL     1      -1.402  -2.319  24.862  0.00  0.00    +0.241 C 
ATOM     23  O   UNL     1      -1.176  -3.017  24.484  0.00  0.00    -0.273 OA
ATOM     24  N   UNL     1      -2.199  -2.108  24.896  0.00  0.00    -0.200 NA
BRANCH  24  25
ATOM     25  C   UNL     1      -2.770  -2.594  24.553  0.00  0.00    +0.148 C 
BRANCH  25  26
ATOM     26  C   UNL     1      -3.493  -2.277  24.313  0.00  0.00    +0.029 A 
ATOM     27  C   UNL     1      -3.845  -1.594  24.612  0.00  0.00    +0.004 A 
ATOM     28  C   UNL     1      -4.560  -1.483  24.215  0.00  0.00    +0.007 A 
ATOM     29  C   UNL     1      -4.649  -2.097  23.671  0.00  0.00    +0.035 A 
ATOM     30  S   UNL     1      -3.988  -2.587  23.732  0.00  0.00    -0.089 S 
ENDBRANCH  25  26
ENDBRANCH  24  25
ENDBRANCH  20  22
ENDBRANCH  19  20
TORSDOF 7
ENDMDL
MODEL 9
REMARK VINA RESULT:      -8.5      1.805      3.157
REMARK  Name = 
REMARK  7 active torsions:
REMARK  status: ('A' for Active; 'I' for Inactive)
REMARK    1  A    between atoms: O_2  and  C_3
REMARK    2  A    between atoms: C_6  and  C_9
REMARK    3  A    between atoms: N_11  and  C_12
REMARK    4  A    between atoms: C_19  and  C_20
REMARK    5  A    between atoms: C_20  and  C_22
REMARK    6  A    between atoms: N_24  and  C_25
REMARK    7  A    between atoms: C_25  and  C_26
REMARK                            x       y       z     vdW  Elec       q    Type
REMARK                         _______ _______ _______ _____ _____    ______ ____
ROOT
ATOM     12  C   UNL     1      -1.367   0.402  25.095  0.00  0.00    +0.096 C 
ATOM     13  C   UNL     1      -0.827   0.346  25.718  0.00  0.00    +0.022 C 
ATOM     14  C   UNL     1      -0.478   1.028  26.022  0.00  0.00    +0.002 C 
ATOM     15  C   UNL     1      -0.667   1.765  25.706  0.00  0.00    +0.002 C 
ATOM     16  C   UNL     1      -0.128   1.709  26.327  0.00  0.00    +0.000 C 
ATOM     17  C   UNL     1      -0.317   2.448  26.011  0.00  0.00    +0.000 C 
ATOM     18  C   UNL     1      -0.506   3.185  25.694  0.00  0.00    +0.003 C 
ATOM     19  C   UNL     1      -1.046   3.241  25.072  0.00  0.00    +0.039 C 
ATOM     31  C   UNL     1      -1.395   2.560  24.767  0.00  0.00    +0.152 C 
ATOM     32  O   UNL     1      -1.935   2.616  24.145  0.00  0.00    -0.223 OA
ATOM     33  C   UNL     1      -1.207   1.821  25.083  0.00  0.00    +0.032 C 
ATOM     34  C   UNL     1      -1.556   1.140  24.779  0.00  0.00    +0.022 C 
ATOM     35  C   UNL     1      -2.095   1.196  24.157  0.00  0.00    +0.002 C 
ENDROOT
BRANCH  12  11
ATOM      9  C   UNL     1      -2.084  -0.819  25.297  0.00  0.00    +0.265 C 
ATOM     10  O   UNL     1      -2.101  -0.675  26.110  0.00  0.00    -0.268 OA
ATOM     11  N   UNL     1      -1.717  -0.280  24.790  0.00  0.00    -0.203 NA
BRANCH   9   6
ATOM      3  C   UNL     1      -3.132  -2.865  24.381  0.00  0.00    +0.139 A 
ATOM      4  C   UNL     1      -2.312  -2.775  24.357  0.00  0.00    +0.037 A 
ATOM      5  C   UNL     1      -1.963  -2.093  24.663  0.00  0.00    +0.008 A 
ATOM      6  C   UNL     1      -2.433  -1.500  24.992  0.00  0.00    +0.055 A 
ATOM      7  C   UNL     1      -3.253  -1.590  25.015  0.00  0.00    +0.008 A 
ATOM      8  C   UNL     1      -3.603  -2.272  24.711  0.00  0.00    +0.037 A 
BRANCH   3   2
ATOM      1  C   UNL     1      -4.191  -3.495  23.658  0.00  0.00    +0.252 C 
ATOM      2  O   UNL     1      -3.482  -3.546  24.076  0.00  0.00    -0.471 OA
ENDBRANCH   3   2
ENDBRANCH   9   6
ENDBRANCH  12  11
BRANCH  19  20
ATOM     20  C   UNL     1      -1.235   3.979  24.755  0.00  0.00    +0.081 C 
ATOM     21  C   UNL     1      -0.820   4.266  24.103  0.00  0.00    +0.010 C 
BRANCH  20  22
ATOM     22  C   UNL     1      -1.838   4.430  25.091  0.00  0.00    +0.241 C 
ATOM     23  O   UNL     1      -1.663   5.157  25.444  0.00  0.00    -0.273 OA
ATOM     24  N   UNL     1      -2.616   4.157  25.075  0.00  0.00    -0.200 NA
BRANCH  24  25
ATOM     25  C   UNL     1      -3.219   4.608  25.410  0.00  0.00    +0.148 C 
BRANCH  25  26
ATOM     26  C   UNL     1      -3.969   4.281  25.518  0.00  0.00    +0.029 A 
ATOM     27  C   UNL     1      -4.220   3.852  26.176  0.00  0.00    +0.004 A 
ATOM     28  C   UNL     1      -5.005   3.631  26.051  0.00  0.00    +0.007 A 
ATOM     29  C   UNL     1      -5.239   3.925  25.316  0.00  0.00    +0.035 A 
ATOM     30  S   UNL     1      -4.598   4.327  24.987  0.00  0.00    -0.089 S 
ENDBRANCH  25  26
ENDBRANCH  24  25
ENDBRANCH  20  22
ENDBRANCH  19  20
TORSDOF 7
ENDMDL
MODEL 10
REMARK VINA RESULT:      -7.0     16.788     18.772
REMARK  Name = 
REMARK  7 active torsions:
REMARK  status: ('A' for Active; 'I' for Inactive)
REMARK    1  A    between atoms: O_2  and  C_3
REMARK    2  A    between atoms: C_6  and  C_9
REMARK    3  A    between atoms: N_11  and  C_12
REMARK    4  A    between atoms: C_19  and  C_20
REMARK    5  A    between atoms: C_20  and  C_22
REMARK    6  A    between atoms: N_24  and  C_25
REMARK    7  A    between atoms: C_25  and  C_26
REMARK                            x       y       z     vdW  Elec       q    Type
REMARK                         _______ _______ _______ _____ _____    ______ ____
ROOT
ATOM     12  C   UNL     1      -5.018  -9.846  10.153  0.00  0.00    +0.096 C 
ATOM     13  C   UNL     1      -4.738  -9.881   9.377  0.00  0.00    +0.022 C 
ATOM     14  C   UNL     1      -5.232  -9.672   8.751  0.00  0.00    +0.002 C 
ATOM     15  C   UNL     1      -6.005  -9.428   8.899  0.00  0.00    +0.002 C 
ATOM     16  C   UNL     1      -5.726  -9.463   8.125  0.00  0.00    +0.000 C 
ATOM     17  C   UNL     1      -6.500  -9.218   8.273  0.00  0.00    +0.000 C 
ATOM     18  C   UNL     1      -7.273  -8.974   8.421  0.00  0.00    +0.003 C 
ATOM     19  C   UNL     1      -7.553  -8.939   9.198  0.00  0.00    +0.039 C 
ATOM     31  C   UNL     1      -7.059  -9.148   9.824  0.00  0.00    +0.152 C 
ATOM     32  O   UNL     1      -7.339  -9.113  10.599  0.00  0.00    -0.223 OA
ATOM     33  C   UNL     1      -6.285  -9.392   9.676  0.00  0.00    +0.032 C 
ATOM     34  C   UNL     1      -5.791  -9.602  10.302  0.00  0.00    +0.022 C 
ATOM     35  C   UNL     1      -6.071  -9.566  11.077  0.00  0.00    +0.002 C 
ENDROOT
BRANCH  12  11
ATOM      9  C   UNL     1      -3.739  -9.801  10.790  0.00  0.00    +0.265 C 
ATOM     10  O   UNL     1      -3.447  -9.336  10.172  0.00  0.00    -0.268 OA
ATOM     11  N   UNL     1      -4.524 -10.055  10.780  0.00  0.00    -0.203 NA
BRANCH   9   6
ATOM      3  C   UNL     1      -2.256 -10.430  12.669  0.00  0.00    +0.139 A 
ATOM      4  C   UNL     1      -3.075 -10.465  12.760  0.00  0.00    +0.037 A 
ATOM      5  C   UNL     1      -3.569 -10.256  12.133  0.00  0.00    +0.008 A 
ATOM      6  C   UNL     1      -3.245 -10.011  11.416  0.00  0.00    +0.055 A 
ATOM      7  C   UNL     1      -2.426  -9.976  11.325  0.00  0.00    +0.008 A 
ATOM      8  C   UNL     1      -1.931 -10.185  11.950  0.00  0.00    +0.037 A 
BRANCH   3   2
ATOM      1  C   UNL     1      -1.351 -10.057  13.709  0.00  0.00    +0.252 C 
ATOM      2  O   UNL     1      -1.761 -10.640  13.295  0.00  0.00    -0.471 OA
ENDBRANCH   3   2
ENDBRANCH   9   6
ENDBRANCH  12  11
BRANCH  19  20
ATOM     20  C   UNL     1      -8.327  -8.694   9.346  0.00  0.00    +0.081 C 
ATOM     21  C   UNL     1      -8.695  -8.899  10.055  0.00  0.00    +0.010 C 
BRANCH  20  22
ATOM     22  C   UNL     1      -8.733  -8.245   8.785  0.00  0.00    +0.241 C 
ATOM     23  O   UNL     1      -9.065  -8.613   8.124  0.00  0.00    -0.273 OA
ATOM     24  N   UNL     1      -8.808  -7.430   8.884  0.00  0.00    -0.200 NA
BRANCH  24  25
ATOM     25  C   UNL     1      -9.213  -6.981   8.324  0.00  0.00    +0.148 C 
BRANCH  25  26
ATOM     26  C   UNL     1      -9.320  -6.171   8.442  0.00  0.00    +0.029 A 
ATOM     27  C   UNL     1      -8.741  -5.589   8.365  0.00  0.00    +0.004 A 
ATOM     28  C   UNL     1      -9.089  -4.861   8.533  0.00  0.00    +0.007 A 
ATOM     29  C   UNL     1      -9.884  -4.992   8.714  0.00  0.00    +0.035 A 
ATOM     30  S   UNL     1     -10.026  -5.803   8.657  0.00  0.00    -0.089 S 
ENDBRANCH  25  26
ENDBRANCH  24  25
ENDBRANCH  20  22
ENDBRANCH  19  20
TORSDOF 7
ENDMDL
