MODEL 1
REMARK VINA RESULT:     -11.3      0.000      0.000
REMARK  Name = 
REMARK  6 active torsions:
REMARK  status: ('A' for Active; 'I' for Inactive)
REMARK    1  A    between atoms: C_4  and  N_21
REMARK    2  A    between atoms: C_6  and  C_7
REMARK    3  A    between atoms: C_9  and  C_12
REMARK    4  A    between atoms: N_21  and  S_22
REMARK    5  A    between atoms: S_22  and  C_25
REMARK    6  A    between atoms: C_28  and  C_31
REMARK                            x       y       z     vdW  Elec       q    Type
REMARK                         _______ _______ _______ _____ _____    ______ ____
ROOT
ATOM      1  C   UNL     1       0.548   1.185  23.849  0.00  0.00    +0.090 C 
ATOM      2  N   UNL     1      -0.014   1.558  24.325  0.00  0.00    -0.264 NA
ATOM      3  C   UNL     1      -0.078   2.371  24.452  0.00  0.00    +0.092 C 
ATOM      4  C   UNL     1      -0.714   2.498  24.962  0.00  0.00    +0.115 C 
ATOM      5  C   UNL     1      -1.043   1.765  25.149  0.00  0.00    +0.046 C 
ATOM      6  C   UNL     1      -0.610   1.184  24.755  0.00  0.00    +0.139 C 
ENDROOT
BRANCH   6   7
ATOM      7  C   UNL     1      -0.748   0.371  24.786  0.00  0.00    +0.251 A 
ATOM      8  N   UNL     1      -1.459  -0.007  24.605  0.00  0.00    -0.190 NA
ATOM      9  C   UNL     1      -1.351  -0.818  24.710  0.00  0.00    +0.203 A 
ATOM     10  N   UNL     1      -0.573  -0.941  24.956  0.00  0.00    -0.056 NA
ATOM     11  O   UNL     1      -0.201  -0.206  25.003  0.00  0.00    -0.336 OA
BRANCH   9  12
ATOM     12  C   UNL     1      -1.920  -1.402  24.590  0.00  0.00    +0.042 A 
ATOM     13  C   UNL     1      -2.690  -1.192  24.383  0.00  0.00    +0.043 A 
ATOM     14  C   UNL     1      -3.260  -1.776  24.263  0.00  0.00    +0.177 A 
ATOM     15  C   UNL     1      -3.059  -2.572  24.351  0.00  0.00    +0.176 A 
ATOM     16  O   UNL     1      -3.732  -3.023  24.198  0.00  0.00    -0.435 OA
ATOM     17  C   UNL     1      -4.349  -2.507  24.016  0.00  0.00    +0.429 C 
ATOM     18  O   UNL     1      -4.057  -1.737  24.056  0.00  0.00    -0.435 OA
ATOM     19  C   UNL     1      -2.289  -2.782  24.559  0.00  0.00    +0.040 A 
ATOM     20  C   UNL     1      -1.720  -2.197  24.679  0.00  0.00    +0.006 A 
ENDBRANCH   9  12
ENDBRANCH   6   7
BRANCH   4  21
ATOM     21  N   UNL     1      -0.976   3.231  25.237  0.00  0.00    -0.078 NA
BRANCH  21  22
ATOM     22  S   UNL     1      -1.784   3.382  25.305  0.00  0.00    +0.077 S 
ATOM     23  O   UNL     1      -1.810   3.600  24.510  0.00  0.00    -0.152 OA
ATOM     24  O   UNL     1      -1.757   3.163  26.101  0.00  0.00    -0.152 OA
BRANCH  22  25
ATOM     25  C   UNL     1      -2.592   3.532  25.373  0.00  0.00    +0.124 A 
ATOM     26  C   UNL     1      -3.093   3.397  24.731  0.00  0.00    +0.021 A 
ATOM     27  C   UNL     1      -3.901   3.548  24.799  0.00  0.00    +0.012 A 
ATOM     28  C   UNL     1      -4.209   3.834  25.509  0.00  0.00    +0.069 A 
ATOM     29  C   UNL     1      -3.709   3.969  26.151  0.00  0.00    +0.012 A 
ATOM     30  C   UNL     1      -2.900   3.818  26.083  0.00  0.00    +0.021 A 
BRANCH  28  31
ATOM     31  C   UNL     1      -5.017   3.985  25.577  0.00  0.00    +0.100 C 
ATOM     32  N   UNL     1      -5.825   4.135  25.645  0.00  0.00    -0.191 NA
ENDBRANCH  28  31
ENDBRANCH  22  25
ENDBRANCH  21  22
ENDBRANCH   4  21
TORSDOF 6
ENDMDL
MODEL 2
REMARK VINA RESULT:     -10.9      1.992      3.469
REMARK  Name = 
REMARK  6 active torsions:
REMARK  status: ('A' for Active; 'I' for Inactive)
REMARK    1  A    between atoms: C_4  and  N_21
REMARK    2  A    between atoms: C_6  and  C_7
REMARK    3  A    between atoms: C_9  and  C_12
REMARK    4  A    between atoms: N_21  and  S_22
REMARK    5  A    between atoms: S_22  and  C_25
REMARK    6  A    between atoms: C_28  and  C_31
REMARK                            x       y       z     vdW  Elec       q    Type
REMARK                         _______ _______ _______ _____ _____    ______ ____
ROOT
ATOM      1  C   UNL     1      -6.019   1.008  26.089  0.00  0.00    +0.090 C 
ATOM      2  N   UNL     1      -5.550   1.562  25.696  0.00  0.00    -0.264 NA
ATOM      3  C   UNL     1      -5.574   2.380  25.803  0.00  0.00    +0.092 C 
ATOM      4  C   UNL     1      -5.014   2.718  25.300  0.00  0.00    +0.115 C 
ATOM      5  C   UNL     1      -4.644   2.110  24.884  0.00  0.00    +0.046 C 
ATOM      6  C   UNL     1      -4.975   1.396  25.128  0.00  0.00    +0.139 C 
ENDROOT
BRANCH   6   7
ATOM      7  C   UNL     1      -4.769   0.645  24.854  0.00  0.00    +0.251 A 
ATOM      8  N   UNL     1      -4.075   0.237  25.036  0.00  0.00    -0.190 NA
ATOM      9  C   UNL     1      -4.096  -0.489  24.644  0.00  0.00    +0.203 A 
ATOM     10  N   UNL     1      -4.803  -0.529  24.220  0.00  0.00    -0.056 NA
ATOM     11  O   UNL     1      -5.218   0.172  24.350  0.00  0.00    -0.336 OA
BRANCH   9  12
ATOM     12  C   UNL     1      -3.513  -1.072  24.672  0.00  0.00    +0.042 A 
ATOM     13  C   UNL     1      -2.718  -0.859  24.711  0.00  0.00    +0.043 A 
ATOM     14  C   UNL     1      -2.135  -1.441  24.739  0.00  0.00    +0.177 A 
ATOM     15  C   UNL     1      -2.348  -2.238  24.728  0.00  0.00    +0.176 A 
ATOM     16  O   UNL     1      -1.657  -2.688  24.761  0.00  0.00    -0.435 OA
ATOM     17  C   UNL     1      -1.017  -2.169  24.793  0.00  0.00    +0.429 C 
ATOM     18  O   UNL     1      -1.313  -1.399  24.779  0.00  0.00    -0.435 OA
ATOM     19  C   UNL     1      -3.144  -2.452  24.688  0.00  0.00    +0.040 A 
ATOM     20  C   UNL     1      -3.727  -1.869  24.661  0.00  0.00    +0.006 A 
ENDBRANCH   9  12
ENDBRANCH   6   7
BRANCH   4  21
ATOM     21  N   UNL     1      -4.852   3.524  25.227  0.00  0.00    -0.078 NA
BRANCH  21  22
ATOM     22  S   UNL     1      -4.071   3.786  25.184  0.00  0.00    +0.077 S 
ATOM     23  O   UNL     1      -4.023   3.778  26.007  0.00  0.00    -0.152 OA
ATOM     24  O   UNL     1      -4.119   3.794  24.360  0.00  0.00    -0.152 OA
BRANCH  22  25
ATOM     25  C   UNL     1      -3.290   4.048  25.141  0.00  0.00    +0.124 A 
ATOM     26  C   UNL     1      -2.850   4.150  25.832  0.00  0.00    +0.021 A 
ATOM     27  C   UNL     1      -2.069   4.412  25.790  0.00  0.00    +0.012 A 
ATOM     28  C   UNL     1      -1.728   4.572  25.056  0.00  0.00    +0.069 A 
ATOM     29  C   UNL     1      -2.166   4.470  24.365  0.00  0.00    +0.012 A 
ATOM     30  C   UNL     1      -2.948   4.208  24.408  0.00  0.00    +0.021 A 
BRANCH  28  31
ATOM     31  C   UNL     1      -0.946   4.834  25.013  0.00  0.00    +0.100 C 
ATOM     32  N   UNL     1      -0.166   5.096  24.971  0.00  0.00    -0.191 NA
ENDBRANCH  28  31
ENDBRANCH  22  25
ENDBRANCH  21  22
ENDBRANCH   4  21
TORSDOF 6
ENDMDL
MODEL 3
REMARK VINA RESULT:     -10.5      1.878      5.319
REMARK  Name = 
REMARK  6 active torsions:
REMARK  status: ('A' for Active; 'I' for Inactive)
REMARK    1  A    between atoms: C_4  and  N_21
REMARK    2  A    between atoms: C_6  and  C_7
REMARK    3  A    between atoms: C_9  and  C_12
REMARK    4  A    between atoms: N_21  and  S_22
REMARK    5  A    between atoms: S_22  and  C_25
REMARK    6  A    between atoms: C_28  and  C_31
REMARK                            x       y       z     vdW  Elec       q    Type
REMARK                         _______ _______ _______ _____ _____    ______ ____
ROOT
ATOM      1  C   UNL     1       0.544   0.538  23.469  0.00  0.00    +0.090 C 
ATOM      2  N   UNL     1       0.097   0.217  24.084  0.00  0.00    -0.264 NA
ATOM      3  C   UNL     1      -0.120  -0.575  24.163  0.00  0.00    +0.092 C 
ATOM      4  C   UNL     1      -0.562  -0.649  24.856  0.00  0.00    +0.115 C 
ATOM      5  C   UNL     1      -0.618   0.097  25.203  0.00  0.00    +0.046 C 
ATOM      6  C   UNL     1      -0.211   0.632  24.727  0.00  0.00    +0.139 C 
ENDROOT
BRANCH   6   7
ATOM      7  C   UNL     1      -0.126   1.441  24.867  0.00  0.00    +0.251 A 
ATOM      8  N   UNL     1      -0.736   1.995  24.891  0.00  0.00    -0.190 NA
ATOM      9  C   UNL     1      -0.405   2.734  25.046  0.00  0.00    +0.203 A 
ATOM     10  N   UNL     1       0.412   2.637  25.118  0.00  0.00    -0.056 NA
ATOM     11  O   UNL     1       0.583   1.837  25.007  0.00  0.00    -0.336 OA
BRANCH   9  12
ATOM     12  C   UNL     1      -0.816   3.445  25.117  0.00  0.00    +0.042 A 
ATOM     13  C   UNL     1      -1.542   3.465  25.507  0.00  0.00    +0.043 A 
ATOM     14  C   UNL     1      -1.954   4.176  25.578  0.00  0.00    +0.177 A 
ATOM     15  C   UNL     1      -1.638   4.868  25.259  0.00  0.00    +0.176 A 
ATOM     16  O   UNL     1      -2.165   5.483  25.413  0.00  0.00    -0.435 OA
ATOM     17  C   UNL     1      -2.807   5.172  25.828  0.00  0.00    +0.429 C 
ATOM     18  O   UNL     1      -2.675   4.364  25.929  0.00  0.00    -0.435 OA
ATOM     19  C   UNL     1      -0.911   4.849  24.869  0.00  0.00    +0.040 A 
ATOM     20  C   UNL     1      -0.500   4.137  24.798  0.00  0.00    +0.006 A 
ENDBRANCH   9  12
ENDBRANCH   6   7
BRANCH   4  21
ATOM     21  N   UNL     1      -0.891  -1.346  25.149  0.00  0.00    -0.078 NA
BRANCH  21  22
ATOM     22  S   UNL     1      -1.628  -1.600  24.880  0.00  0.00    +0.077 S 
ATOM     23  O   UNL     1      -1.263  -1.999  24.258  0.00  0.00    -0.152 OA
ATOM     24  O   UNL     1      -1.993  -1.201  25.504  0.00  0.00    -0.152 OA
BRANCH  22  25
ATOM     25  C   UNL     1      -2.365  -1.855  24.611  0.00  0.00    +0.124 A 
ATOM     26  C   UNL     1      -2.477  -2.644  24.398  0.00  0.00    +0.021 A 
ATOM     27  C   UNL     1      -3.214  -2.898  24.129  0.00  0.00    +0.012 A 
ATOM     28  C   UNL     1      -3.840  -2.364  24.073  0.00  0.00    +0.069 A 
ATOM     29  C   UNL     1      -3.729  -1.575  24.286  0.00  0.00    +0.012 A 
ATOM     30  C   UNL     1      -2.991  -1.320  24.556  0.00  0.00    +0.021 A 
BRANCH  28  31
ATOM     31  C   UNL     1      -4.577  -2.618  23.804  0.00  0.00    +0.100 C 
ATOM     32  N   UNL     1      -5.314  -2.872  23.535  0.00  0.00    -0.191 NA
ENDBRANCH  28  31
ENDBRANCH  22  25
ENDBRANCH  21  22
ENDBRANCH   4  21
TORSDOF 6
ENDMDL
MODEL 4
REMARK VINA RESULT:     -10.5      1.622      5.043
REMARK  Name = 
REMARK  6 active torsions:
REMARK  status: ('A' for Active; 'I' for Inactive)
REMARK    1  A    between atoms: C_4  and  N_21
REMARK    2  A    between atoms: C_6  and  C_7
REMARK    3  A    between atoms: C_9  and  C_12
REMARK    4  A    between atoms: N_21  and  S_22
REMARK    5  A    between atoms: S_22  and  C_25
REMARK    6  A    between atoms: C_28  and  C_31
REMARK                            x       y       z     vdW  Elec       q    Type
REMARK                         _______ _______ _______ _____ _____    ______ ____
ROOT
ATOM      1  C   UNL     1       0.048   2.284  24.265  0.00  0.00    +0.090 C 
ATOM      2  N   UNL     1      -0.284   1.626  24.634  0.00  0.00    -0.264 NA
ATOM      3  C   UNL     1       0.010   0.855  24.606  0.00  0.00    +0.092 C 
ATOM      4  C   UNL     1      -0.493   0.375  25.051  0.00  0.00    +0.115 C 
ATOM      5  C   UNL     1      -1.097   0.849  25.353  0.00  0.00    +0.046 C 
ATOM      6  C   UNL     1      -0.967   1.621  25.096  0.00  0.00    +0.139 C 
ENDROOT
BRANCH   6   7
ATOM      7  C   UNL     1      -1.438   2.276  25.269  0.00  0.00    +0.251 A 
ATOM      8  N   UNL     1      -2.248   2.343  25.125  0.00  0.00    -0.190 NA
ATOM      9  C   UNL     1      -2.494   3.086  25.384  0.00  0.00    +0.203 A 
ATOM     10  N   UNL     1      -1.836   3.481  25.688  0.00  0.00    -0.056 NA
ATOM     11  O   UNL     1      -1.184   2.979  25.617  0.00  0.00    -0.336 OA
BRANCH   9  12
ATOM     12  C   UNL     1      -3.262   3.384  25.345  0.00  0.00    +0.042 A 
ATOM     13  C   UNL     1      -3.881   2.976  25.705  0.00  0.00    +0.043 A 
ATOM     14  C   UNL     1      -4.650   3.273  25.666  0.00  0.00    +0.177 A 
ATOM     15  C   UNL     1      -4.798   3.980  25.267  0.00  0.00    +0.176 A 
ATOM     16  O   UNL     1      -5.606   4.138  25.320  0.00  0.00    -0.435 OA
ATOM     17  C   UNL     1      -5.957   3.529  25.752  0.00  0.00    +0.429 C 
ATOM     18  O   UNL     1      -5.365   2.995  25.965  0.00  0.00    -0.435 OA
ATOM     19  C   UNL     1      -4.178   4.389  24.907  0.00  0.00    +0.040 A 
ATOM     20  C   UNL     1      -3.410   4.091  24.946  0.00  0.00    +0.006 A 
ENDBRANCH   9  12
ENDBRANCH   6   7
BRANCH   4  21
ATOM     21  N   UNL     1      -0.407  -0.437  25.172  0.00  0.00    -0.078 NA
BRANCH  21  22
ATOM     22  S   UNL     1      -1.035  -0.946  25.012  0.00  0.00    +0.077 S 
ATOM     23  O   UNL     1      -0.838  -0.939  24.212  0.00  0.00    -0.152 OA
ATOM     24  O   UNL     1      -1.233  -0.954  25.813  0.00  0.00    -0.152 OA
BRANCH  22  25
ATOM     25  C   UNL     1      -1.664  -1.457  24.852  0.00  0.00    +0.124 A 
ATOM     26  C   UNL     1      -2.421  -1.278  25.126  0.00  0.00    +0.021 A 
ATOM     27  C   UNL     1      -3.049  -1.787  24.966  0.00  0.00    +0.012 A 
ATOM     28  C   UNL     1      -2.921  -2.477  24.532  0.00  0.00    +0.069 A 
ATOM     29  C   UNL     1      -2.164  -2.656  24.257  0.00  0.00    +0.012 A 
ATOM     30  C   UNL     1      -1.535  -2.146  24.418  0.00  0.00    +0.021 A 
BRANCH  28  31
ATOM     31  C   UNL     1      -3.549  -2.987  24.372  0.00  0.00    +0.100 C 
ATOM     32  N   UNL     1      -4.177  -3.497  24.212  0.00  0.00    -0.191 NA
ENDBRANCH  28  31
ENDBRANCH  22  25
ENDBRANCH  21  22
ENDBRANCH   4  21
TORSDOF 6
ENDMDL
MODEL 5
REMARK VINA RESULT:     -10.4      2.076      5.946
REMARK  Name = 
REMARK  6 active torsions:
REMARK  status: ('A' for Active; 'I' for Inactive)
REMARK    1  A    between atoms: C_4  and  N_21
REMARK    2  A    between atoms: C_6  and  C_7
REMARK    3  A    between atoms: C_9  and  C_12
REMARK    4  A    between atoms: N_21  and  S_22
REMARK    5  A    between atoms: S_22  and  C_25
REMARK    6  A    between atoms: C_28  and  C_31
REMARK                            x       y       z     vdW  Elec       q    Type
REMARK                         _______ _______ _______ _____ _____    ______ ____
ROOT
ATOM      1  C   UNL     1      -5.675   1.851  25.591  0.00  0.00    +0.090 C 
ATOM      2  N   UNL     1      -5.145   1.323  25.242  0.00  0.00    -0.264 NA
ATOM      3  C   UNL     1      -5.212   0.501  25.240  0.00  0.00    +0.092 C 
ATOM      4  C   UNL     1      -4.563   0.195  24.831  0.00  0.00    +0.115 C 
ATOM      5  C   UNL     1      -4.097   0.828  24.582  0.00  0.00    +0.046 C 
ATOM      6  C   UNL     1      -4.456   1.525  24.836  0.00  0.00    +0.139 C 
ENDROOT
BRANCH   6   7
ATOM      7  C   UNL     1      -4.177   2.290  24.706  0.00  0.00    +0.251 A 
ATOM      8  N   UNL     1      -3.457   2.595  24.972  0.00  0.00    -0.190 NA
ATOM      9  C   UNL     1      -3.402   3.378  24.719  0.00  0.00    +0.203 A 
ATOM     10  N   UNL     1      -4.088   3.558  24.297  0.00  0.00    -0.056 NA
ATOM     11  O   UNL     1      -4.566   2.885  24.290  0.00  0.00    -0.336 OA
BRANCH   9  12
ATOM     12  C   UNL     1      -2.773   3.891  24.862  0.00  0.00    +0.042 A 
ATOM     13  C   UNL     1      -2.030   3.733  24.541  0.00  0.00    +0.043 A 
ATOM     14  C   UNL     1      -1.400   4.246  24.684  0.00  0.00    +0.177 A 
ATOM     15  C   UNL     1      -1.513   4.917  25.150  0.00  0.00    +0.176 A 
ATOM     16  O   UNL     1      -0.795   5.320  25.196  0.00  0.00    -0.435 OA
ATOM     17  C   UNL     1      -0.238   4.897  24.759  0.00  0.00    +0.429 C 
ATOM     18  O   UNL     1      -0.612   4.234  24.443  0.00  0.00    -0.435 OA
ATOM     19  C   UNL     1      -2.257   5.076  25.472  0.00  0.00    +0.040 A 
ATOM     20  C   UNL     1      -2.886   4.562  25.328  0.00  0.00    +0.006 A 
ENDBRANCH   9  12
ENDBRANCH   6   7
BRANCH   4  21
ATOM     21  N   UNL     1      -4.408  -0.604  24.696  0.00  0.00    -0.078 NA
BRANCH  21  22
ATOM     22  S   UNL     1      -3.648  -0.902  24.806  0.00  0.00    +0.077 S 
ATOM     23  O   UNL     1      -3.812  -1.027  25.604  0.00  0.00    -0.152 OA
ATOM     24  O   UNL     1      -3.483  -0.777  24.007  0.00  0.00    -0.152 OA
BRANCH  22  25
ATOM     25  C   UNL     1      -2.886  -1.200  24.917  0.00  0.00    +0.124 A 
ATOM     26  C   UNL     1      -2.637  -1.864  24.496  0.00  0.00    +0.021 A 
ATOM     27  C   UNL     1      -1.876  -2.162  24.606  0.00  0.00    +0.012 A 
ATOM     28  C   UNL     1      -1.363  -1.795  25.138  0.00  0.00    +0.069 A 
ATOM     29  C   UNL     1      -1.611  -1.131  25.560  0.00  0.00    +0.012 A 
ATOM     30  C   UNL     1      -2.373  -0.833  25.449  0.00  0.00    +0.021 A 
BRANCH  28  31
ATOM     31  C   UNL     1      -0.602  -2.093  25.249  0.00  0.00    +0.100 C 
ATOM     32  N   UNL     1       0.159  -2.391  25.359  0.00  0.00    -0.191 NA
ENDBRANCH  28  31
ENDBRANCH  22  25
ENDBRANCH  21  22
ENDBRANCH   4  21
TORSDOF 6
ENDMDL
MODEL 6
REMARK VINA RESULT:     -10.2      2.065      4.056
REMARK  Name = 
REMARK  6 active torsions:
REMARK  status: ('A' for Active; 'I' for Inactive)
REMARK    1  A    between atoms: C_4  and  N_21
REMARK    2  A    between atoms: C_6  and  C_7
REMARK    3  A    between atoms: C_9  and  C_12
REMARK    4  A    between atoms: N_21  and  S_22
REMARK    5  A    between atoms: S_22  and  C_25
REMARK    6  A    between atoms: C_28  and  C_31
REMARK                            x       y       z     vdW  Elec       q    Type
REMARK                         _______ _______ _______ _____ _____    ______ ____
ROOT
ATOM      1  C   UNL     1      -1.201  -0.730  25.546  0.00  0.00    +0.090 C 
ATOM      2  N   UNL     1      -1.728  -0.316  25.065  0.00  0.00    -0.264 NA
ATOM      3  C   UNL     1      -2.548  -0.409  25.052  0.00  0.00    +0.092 C 
ATOM      4  C   UNL     1      -2.853   0.114  24.491  0.00  0.00    +0.115 C 
ATOM      5  C   UNL     1      -2.222   0.529  24.158  0.00  0.00    +0.046 C 
ATOM      6  C   UNL     1      -1.527   0.263  24.513  0.00  0.00    +0.139 C 
ENDROOT
BRANCH   6   7
ATOM      7  C   UNL     1      -0.764   0.529  24.345  0.00  0.00    +0.251 A 
ATOM      8  N   UNL     1      -0.239   0.189  23.807  0.00  0.00    -0.190 NA
ATOM      9  C   UNL     1       0.457   0.631  23.815  0.00  0.00    +0.203 A 
ATOM     10  N   UNL     1       0.363   1.245  24.359  0.00  0.00    -0.056 NA
ATOM     11  O   UNL     1      -0.392   1.181  24.686  0.00  0.00    -0.336 OA
BRANCH   9  12
ATOM     12  C   UNL     1       1.129   0.485  23.360  0.00  0.00    +0.042 A 
ATOM     13  C   UNL     1       1.824   0.903  23.506  0.00  0.00    +0.043 A 
ATOM     14  C   UNL     1       2.497   0.758  23.051  0.00  0.00    +0.177 A 
ATOM     15  C   UNL     1       2.474   0.193  22.450  0.00  0.00    +0.176 A 
ATOM     16  O   UNL     1       3.217   0.168  22.094  0.00  0.00    -0.435 OA
ATOM     17  C   UNL     1       3.700   0.717  22.475  0.00  0.00    +0.429 C 
ATOM     18  O   UNL     1       3.255   1.081  23.066  0.00  0.00    -0.435 OA
ATOM     19  C   UNL     1       1.777  -0.226  22.304  0.00  0.00    +0.040 A 
ATOM     20  C   UNL     1       1.105  -0.079  22.759  0.00  0.00    +0.006 A 
ENDBRANCH   9  12
ENDBRANCH   6   7
BRANCH   4  21
ATOM     21  N   UNL     1      -3.650   0.205  24.296  0.00  0.00    -0.078 NA
BRANCH  21  22
ATOM     22  S   UNL     1      -4.062   0.874  24.548  0.00  0.00    +0.077 S 
ATOM     23  O   UNL     1      -4.247   0.493  25.255  0.00  0.00    -0.152 OA
ATOM     24  O   UNL     1      -3.876   1.255  23.840  0.00  0.00    -0.152 OA
BRANCH  22  25
ATOM     25  C   UNL     1      -4.474   1.543  24.800  0.00  0.00    +0.124 A 
ATOM     26  C   UNL     1      -5.131   1.461  25.293  0.00  0.00    +0.021 A 
ATOM     27  C   UNL     1      -5.543   2.129  25.545  0.00  0.00    +0.012 A 
ATOM     28  C   UNL     1      -5.299   2.880  25.304  0.00  0.00    +0.069 A 
ATOM     29  C   UNL     1      -4.643   2.962  24.811  0.00  0.00    +0.012 A 
ATOM     30  C   UNL     1      -4.230   2.293  24.559  0.00  0.00    +0.021 A 
BRANCH  28  31
ATOM     31  C   UNL     1      -5.712   3.549  25.556  0.00  0.00    +0.100 C 
ATOM     32  N   UNL     1      -6.124   4.217  25.808  0.00  0.00    -0.191 NA
ENDBRANCH  28  31
ENDBRANCH  22  25
ENDBRANCH  21  22
ENDBRANCH   4  21
TORSDOF 6
ENDMDL
MODEL 7
REMARK VINA RESULT:     -10.2      1.808      2.716
REMARK  Name = 
REMARK  6 active torsions:
REMARK  status: ('A' for Active; 'I' for Inactive)
REMARK    1  A    between atoms: C_4  and  N_21
REMARK    2  A    between atoms: C_6  and  C_7
REMARK    3  A    between atoms: C_9  and  C_12
REMARK    4  A    between atoms: N_21  and  S_22
REMARK    5  A    between atoms: S_22  and  C_25
REMARK    6  A    between atoms: C_28  and  C_31
REMARK                            x       y       z     vdW  Elec       q    Type
REMARK                         _______ _______ _______ _____ _____    ______ ____
ROOT
ATOM      1  C   UNL     1      -0.267   4.418  24.745  0.00  0.00    +0.090 C 
ATOM      2  N   UNL     1      -1.003   4.171  25.026  0.00  0.00    -0.264 NA
ATOM      3  C   UNL     1      -1.654   4.658  25.171  0.00  0.00    +0.092 C 
ATOM      4  C   UNL     1      -2.270   4.183  25.445  0.00  0.00    +0.115 C 
ATOM      5  C   UNL     1      -2.000   3.403  25.469  0.00  0.00    +0.046 C 
ATOM      6  C   UNL     1      -1.217   3.397  25.210  0.00  0.00    +0.139 C 
ENDROOT
BRANCH   6   7
ATOM      7  C   UNL     1      -0.733   2.732  25.146  0.00  0.00    +0.251 A 
ATOM      8  N   UNL     1      -0.966   1.985  24.884  0.00  0.00    -0.190 NA
ATOM      9  C   UNL     1      -0.309   1.488  24.909  0.00  0.00    +0.203 A 
ATOM     10  N   UNL     1       0.333   1.928  25.186  0.00  0.00    -0.056 NA
ATOM     11  O   UNL     1       0.069   2.697  25.333  0.00  0.00    -0.336 OA
BRANCH   9  12
ATOM     12  C   UNL     1      -0.294   0.692  24.694  0.00  0.00    +0.042 A 
ATOM     13  C   UNL     1      -0.672   0.131  25.165  0.00  0.00    +0.043 A 
ATOM     14  C   UNL     1      -0.657  -0.666  24.950  0.00  0.00    +0.177 A 
ATOM     15  C   UNL     1      -0.264  -0.900  24.264  0.00  0.00    +0.176 A 
ATOM     16  O   UNL     1      -0.342  -1.718  24.192  0.00  0.00    -0.435 OA
ATOM     17  C   UNL     1      -0.783  -1.989  24.834  0.00  0.00    +0.429 C 
ATOM     18  O   UNL     1      -0.978  -1.339  25.302  0.00  0.00    -0.435 OA
ATOM     19  C   UNL     1       0.115  -0.338  23.792  0.00  0.00    +0.040 A 
ATOM     20  C   UNL     1       0.099   0.458  24.008  0.00  0.00    +0.006 A 
ENDBRANCH   9  12
ENDBRANCH   6   7
BRANCH   4  21
ATOM     21  N   UNL     1      -3.024   4.441  25.658  0.00  0.00    -0.078 NA
BRANCH  21  22
ATOM     22  S   UNL     1      -3.678   3.954  25.534  0.00  0.00    +0.077 S 
ATOM     23  O   UNL     1      -3.630   3.692  26.314  0.00  0.00    -0.152 OA
ATOM     24  O   UNL     1      -3.725   4.217  24.753  0.00  0.00    -0.152 OA
BRANCH  22  25
ATOM     25  C   UNL     1      -4.332   3.467  25.410  0.00  0.00    +0.124 A 
ATOM     26  C   UNL     1      -4.898   3.376  26.003  0.00  0.00    +0.021 A 
ATOM     27  C   UNL     1      -5.552   2.889  25.880  0.00  0.00    +0.012 A 
ATOM     28  C   UNL     1      -5.640   2.492  25.163  0.00  0.00    +0.069 A 
ATOM     29  C   UNL     1      -5.074   2.581  24.569  0.00  0.00    +0.012 A 
ATOM     30  C   UNL     1      -4.420   3.069  24.692  0.00  0.00    +0.021 A 
BRANCH  28  31
ATOM     31  C   UNL     1      -6.294   2.004  25.039  0.00  0.00    +0.100 C 
ATOM     32  N   UNL     1      -6.948   1.517  24.915  0.00  0.00    -0.191 NA
ENDBRANCH  28  31
ENDBRANCH  22  25
ENDBRANCH  21  22
ENDBRANCH   4  21
TORSDOF 6
ENDMDL
MODEL 8
REMARK VINA RESULT:     -10.1      1.571      3.598
REMARK  Name = 
REMARK  6 active torsions:
REMARK  status: ('A' for Active; 'I' for Inactive)
REMARK    1  A    between atoms: C_4  and  N_21
REMARK    2  A    between atoms: C_6  and  C_7
REMARK    3  A    between atoms: C_9  and  C_12
REMARK    4  A    between atoms: N_21  and  S_22
REMARK    5  A    between atoms: S_22  and  C_25
REMARK    6  A    between atoms: C_28  and  C_31
REMARK                            x       y       z     vdW  Elec       q    Type
REMARK                         _______ _______ _______ _____ _____    ______ ____
ROOT
ATOM      1  C   UNL     1      -5.437   2.948  25.553  0.00  0.00    +0.090 C 
ATOM      2  N   UNL     1      -4.619   2.927  25.444  0.00  0.00    -0.264 NA
ATOM      3  C   UNL     1      -4.101   3.563  25.533  0.00  0.00    +0.092 C 
ATOM      4  C   UNL     1      -3.338   3.294  25.371  0.00  0.00    +0.115 C 
ATOM      5  C   UNL     1      -3.385   2.493  25.181  0.00  0.00    +0.046 C 
ATOM      6  C   UNL     1      -4.176   2.266  25.226  0.00  0.00    +0.139 C 
ENDROOT
BRANCH   6   7
ATOM      7  C   UNL     1      -4.474   1.510  25.080  0.00  0.00    +0.251 A 
ATOM      8  N   UNL     1      -4.026   0.836  24.918  0.00  0.00    -0.190 NA
ATOM      9  C   UNL     1      -4.545   0.205  24.807  0.00  0.00    +0.203 A 
ATOM     10  N   UNL     1      -5.315   0.489  24.900  0.00  0.00    -0.056 NA
ATOM     11  O   UNL     1      -5.270   1.296  25.068  0.00  0.00    -0.336 OA
BRANCH   9  12
ATOM     12  C   UNL     1      -4.334  -0.573  24.635  0.00  0.00    +0.042 A 
ATOM     13  C   UNL     1      -3.952  -1.032  25.203  0.00  0.00    +0.043 A 
ATOM     14  C   UNL     1      -3.740  -1.811  25.030  0.00  0.00    +0.177 A 
ATOM     15  C   UNL     1      -3.910  -2.129  24.288  0.00  0.00    +0.176 A 
ATOM     16  O   UNL     1      -3.637  -2.907  24.276  0.00  0.00    -0.435 OA
ATOM     17  C   UNL     1      -3.298  -3.070  25.010  0.00  0.00    +0.429 C 
ATOM     18  O   UNL     1      -3.362  -2.392  25.475  0.00  0.00    -0.435 OA
ATOM     19  C   UNL     1      -4.292  -1.669  23.719  0.00  0.00    +0.040 A 
ATOM     20  C   UNL     1      -4.504  -0.891  23.893  0.00  0.00    +0.006 A 
ENDBRANCH   9  12
ENDBRANCH   6   7
BRANCH   4  21
ATOM     21  N   UNL     1      -2.649   3.748  25.394  0.00  0.00    -0.078 NA
BRANCH  21  22
ATOM     22  S   UNL     1      -1.931   3.419  25.159  0.00  0.00    +0.077 S 
ATOM     23  O   UNL     1      -2.097   3.615  24.376  0.00  0.00    -0.152 OA
ATOM     24  O   UNL     1      -1.764   3.223  25.943  0.00  0.00    -0.152 OA
BRANCH  22  25
ATOM     25  C   UNL     1      -1.211   3.089  24.924  0.00  0.00    +0.124 A 
ATOM     26  C   UNL     1      -0.740   2.692  25.472  0.00  0.00    +0.021 A 
ATOM     27  C   UNL     1      -0.022   2.363  25.238  0.00  0.00    +0.012 A 
ATOM     28  C   UNL     1       0.227   2.431  24.454  0.00  0.00    +0.069 A 
ATOM     29  C   UNL     1      -0.244   2.828  23.905  0.00  0.00    +0.012 A 
ATOM     30  C   UNL     1      -0.963   3.158  24.140  0.00  0.00    +0.021 A 
BRANCH  28  31
ATOM     31  C   UNL     1       0.946   2.102  24.219  0.00  0.00    +0.100 C 
ATOM     32  N   UNL     1       1.664   1.773  23.984  0.00  0.00    -0.191 NA
ENDBRANCH  28  31
ENDBRANCH  22  25
ENDBRANCH  21  22
ENDBRANCH   4  21
TORSDOF 6
ENDMDL
MODEL 9
REMARK VINA RESULT:     -10.0      1.840      4.731
REMARK  Name = 
REMARK  6 active torsions:
REMARK  status: ('A' for Active; 'I' for Inactive)
REMARK    1  A    between atoms: C_4  and  N_21
REMARK    2  A    between atoms: C_6  and  C_7
REMARK    3  A    between atoms: C_9  and  C_12
REMARK    4  A    between atoms: N_21  and  S_22
REMARK    5  A    between atoms: S_22  and  C_25
REMARK    6  A    between atoms: C_28  and  C_31
REMARK                            x       y       z     vdW  Elec       q    Type
REMARK                         _______ _______ _______ _____ _____    ______ ____
ROOT
ATOM      1  C   UNL     1      -0.935   4.661  24.998  0.00  0.00    +0.090 C 
ATOM      2  N   UNL     1      -0.877   3.848  24.870  0.00  0.00    -0.264 NA
ATOM      3  C   UNL     1      -0.177   3.411  24.838  0.00  0.00    +0.092 C 
ATOM      4  C   UNL     1      -0.376   2.622  24.701  0.00  0.00    +0.115 C 
ATOM      5  C   UNL     1      -1.198   2.572  24.648  0.00  0.00    +0.046 C 
ATOM      6  C   UNL     1      -1.507   3.329  24.753  0.00  0.00    +0.139 C 
ENDROOT
BRANCH   6   7
ATOM      7  C   UNL     1      -2.306   3.533  24.742  0.00  0.00    +0.251 A 
ATOM      8  N   UNL     1      -2.932   3.054  24.988  0.00  0.00    -0.190 NA
ATOM      9  C   UNL     1      -3.633   3.475  24.882  0.00  0.00    +0.203 A 
ATOM     10  N   UNL     1      -3.441   4.215  24.570  0.00  0.00    -0.056 NA
ATOM     11  O   UNL     1      -2.621   4.250  24.483  0.00  0.00    -0.336 OA
BRANCH   9  12
ATOM     12  C   UNL     1      -4.392   3.205  25.056  0.00  0.00    +0.042 A 
ATOM     13  C   UNL     1      -4.671   2.509  24.714  0.00  0.00    +0.043 A 
ATOM     14  C   UNL     1      -5.431   2.239  24.889  0.00  0.00    +0.177 A 
ATOM     15  C   UNL     1      -5.912   2.665  25.406  0.00  0.00    +0.176 A 
ATOM     16  O   UNL     1      -6.630   2.267  25.474  0.00  0.00    -0.435 OA
ATOM     17  C   UNL     1      -6.594   1.594  24.999  0.00  0.00    +0.429 C 
ATOM     18  O   UNL     1      -5.853   1.577  24.637  0.00  0.00    -0.435 OA
ATOM     19  C   UNL     1      -5.633   3.363  25.749  0.00  0.00    +0.040 A 
ATOM     20  C   UNL     1      -4.873   3.632  25.574  0.00  0.00    +0.006 A 
ENDBRANCH   9  12
ENDBRANCH   6   7
BRANCH   4  21
ATOM     21  N   UNL     1       0.153   1.994  24.628  0.00  0.00    -0.078 NA
BRANCH  21  22
ATOM     22  S   UNL     1      -0.124   1.218  24.627  0.00  0.00    +0.077 S 
ATOM     23  O   UNL     1      -0.127   1.218  25.452  0.00  0.00    -0.152 OA
ATOM     24  O   UNL     1      -0.122   1.218  23.802  0.00  0.00    -0.152 OA
BRANCH  22  25
ATOM     25  C   UNL     1      -0.403   0.441  24.626  0.00  0.00    +0.124 A 
ATOM     26  C   UNL     1      -0.806   0.146  25.283  0.00  0.00    +0.021 A 
ATOM     27  C   UNL     1      -1.084  -0.630  25.282  0.00  0.00    +0.012 A 
ATOM     28  C   UNL     1      -0.959  -1.112  24.625  0.00  0.00    +0.069 A 
ATOM     29  C   UNL     1      -0.556  -0.818  23.968  0.00  0.00    +0.012 A 
ATOM     30  C   UNL     1      -0.278  -0.041  23.968  0.00  0.00    +0.021 A 
BRANCH  28  31
ATOM     31  C   UNL     1      -1.237  -1.889  24.624  0.00  0.00    +0.100 C 
ATOM     32  N   UNL     1      -1.515  -2.666  24.623  0.00  0.00    -0.191 NA
ENDBRANCH  28  31
ENDBRANCH  22  25
ENDBRANCH  21  22
ENDBRANCH   4  21
TORSDOF 6
ENDMDL
