MODEL 1
REMARK VINA RESULT:      -9.8      0.000      0.000
REMARK  Name = 
REMARK  4 active torsions:
REMARK  status: ('A' for Active; 'I' for Inactive)
REMARK    1  A    between atoms: C_2  and  C_15
REMARK    2  A    between atoms: N_3  and  C_4
REMARK    3  A    between atoms: C_4  and  C_5
REMARK    4  A    between atoms: C_12  and  C_13
REMARK                            x       y       z     vdW  Elec       q    Type
REMARK                         _______ _______ _______ _____ _____    ______ ____
ROOT
ATOM      5  C   UNL     1      -3.911   0.512  24.794  0.00  0.00    +0.079 C 
ATOM      6  C   UNL     1      -3.719  -0.059  25.287  0.00  0.00    +0.019 C 
ATOM      7  C   UNL     1      -3.711  -0.849  25.113  0.00  0.00    +0.016 C 
ATOM      8  C   UNL     1      -3.462  -1.344  25.818  0.00  0.00    +0.018 C 
ATOM      9  C   UNL     1      -3.600  -0.792  25.498  0.00  0.00    +0.072 C 
ATOM     10  N   UNL     1      -3.900  -0.296  24.625  0.00  0.00    -0.271 NA
ATOM     11  C   UNL     1      -4.093  -0.762  23.864  0.00  0.00    +0.085 C 
ATOM     12  C   UNL     1      -3.898  -1.292  24.379  0.00  0.00    +0.081 C 
ENDROOT
BRANCH  12  13
ATOM     13  C   UNL     1      -3.869  -2.109  24.267  0.00  0.00    -0.078 C 
ATOM     14  C   UNL     1      -3.841  -2.925  24.155  0.00  0.00    -0.014 C 
ENDBRANCH  12  13
BRANCH   5   4
ATOM      4  C   UNL     1      -4.030   1.304  24.596  0.00  0.00    +0.131 C 
BRANCH   4   3
ATOM      1  O   UNL     1      -4.205   2.881  24.145  0.00  0.00    -0.265 OA
ATOM      2  C   UNL     1      -3.726   2.686  24.787  0.00  0.00    +0.300 C 
ATOM      3  N   UNL     1      -3.638   1.897  25.013  0.00  0.00    -0.198 NA
BRANCH   2  15
ATOM     15  C   UNL     1      -3.334   3.280  25.204  0.00  0.00    +0.200 A 
ATOM     16  C   UNL     1      -2.594   3.595  25.020  0.00  0.00    +0.046 A 
ATOM     17  C   UNL     1      -2.415   4.173  25.581  0.00  0.00    +0.044 A 
ATOM     18  C   UNL     1      -3.045   4.216  26.112  0.00  0.00    +0.180 A 
ATOM     19  O   UNL     1      -3.613   3.664  25.879  0.00  0.00    -0.446 OA
ENDBRANCH   2  15
ENDBRANCH   4   3
ENDBRANCH   5   4
TORSDOF 4
ENDMDL
MODEL 2
REMARK VINA RESULT:      -9.2      1.473      4.653
REMARK  Name = 
REMARK  4 active torsions:
REMARK  status: ('A' for Active; 'I' for Inactive)
REMARK    1  A    between atoms: C_2  and  C_15
REMARK    2  A    between atoms: N_3  and  C_4
REMARK    3  A    between atoms: C_4  and  C_5
REMARK    4  A    between atoms: C_12  and  C_13
REMARK                            x       y       z     vdW  Elec       q    Type
REMARK                         _______ _______ _______ _____ _____    ______ ____
ROOT
ATOM      5  C   UNL     1      -2.874   2.107  24.935  0.00  0.00    +0.079 C 
ATOM      6  C   UNL     1      -2.121   2.260  25.058  0.00  0.00    +0.019 C 
ATOM      7  C   UNL     1      -1.791   2.998  25.105  0.00  0.00    +0.016 C 
ATOM      8  C   UNL     1      -0.907   2.960  25.251  0.00  0.00    +0.018 C 
ATOM      9  C   UNL     1      -1.506   2.716  25.155  0.00  0.00    +0.072 C 
ATOM     10  N   UNL     1      -2.531   2.856  24.985  0.00  0.00    -0.271 NA
ATOM     11  C   UNL     1      -2.884   3.695  24.919  0.00  0.00    +0.085 C 
ATOM     12  C   UNL     1      -2.137   3.802  25.041  0.00  0.00    +0.081 C 
ENDROOT
BRANCH  12  13
ATOM     13  C   UNL     1      -1.740   4.523  25.100  0.00  0.00    -0.078 C 
ATOM     14  C   UNL     1      -1.343   5.243  25.158  0.00  0.00    -0.014 C 
ENDBRANCH  12  13
BRANCH   5   4
ATOM      4  C   UNL     1      -3.514   1.597  24.834  0.00  0.00    +0.131 C 
BRANCH   4   3
ATOM      1  O   UNL     1      -4.807   0.574  24.775  0.00  0.00    -0.265 OA
ATOM      2  C   UNL     1      -4.041   0.270  24.792  0.00  0.00    +0.300 C 
ATOM      3  N   UNL     1      -3.394   0.781  24.822  0.00  0.00    -0.198 NA
BRANCH   2  15
ATOM     15  C   UNL     1      -3.921  -0.546  24.779  0.00  0.00    +0.200 A 
ATOM     16  C   UNL     1      -4.036  -1.043  24.130  0.00  0.00    +0.046 A 
ATOM     17  C   UNL     1      -3.850  -1.813  24.363  0.00  0.00    +0.044 A 
ATOM     18  C   UNL     1      -3.621  -1.792  25.155  0.00  0.00    +0.180 A 
ATOM     19  O   UNL     1      -3.664  -1.009  25.412  0.00  0.00    -0.446 OA
ENDBRANCH   2  15
ENDBRANCH   4   3
ENDBRANCH   5   4
TORSDOF 4
ENDMDL
MODEL 3
REMARK VINA RESULT:      -9.1      1.850      4.625
REMARK  Name = 
REMARK  4 active torsions:
REMARK  status: ('A' for Active; 'I' for Inactive)
REMARK    1  A    between atoms: C_2  and  C_15
REMARK    2  A    between atoms: N_3  and  C_4
REMARK    3  A    between atoms: C_4  and  C_5
REMARK    4  A    between atoms: C_12  and  C_13
REMARK                            x       y       z     vdW  Elec       q    Type
REMARK                         _______ _______ _______ _____ _____    ______ ____
ROOT
ATOM      5  C   UNL     1      -4.294   1.100  24.828  0.00  0.00    +0.079 C 
ATOM      6  C   UNL     1      -5.025   1.297  25.007  0.00  0.00    +0.019 C 
ATOM      7  C   UNL     1      -5.285   2.047  25.169  0.00  0.00    +0.016 C 
ATOM      8  C   UNL     1      -6.162   2.063  25.352  0.00  0.00    +0.018 C 
ATOM      9  C   UNL     1      -5.593   1.786  25.195  0.00  0.00    +0.072 C 
ATOM     10  N   UNL     1      -4.566   1.861  24.994  0.00  0.00    -0.271 NA
ATOM     11  C   UNL     1      -4.142   2.669  25.022  0.00  0.00    +0.085 C 
ATOM     12  C   UNL     1      -4.871   2.820  25.195  0.00  0.00    +0.081 C 
ENDROOT
BRANCH  12  13
ATOM     13  C   UNL     1      -5.200   3.557  25.369  0.00  0.00    -0.078 C 
ATOM     14  C   UNL     1      -5.528   4.293  25.542  0.00  0.00    -0.014 C 
ENDBRANCH  12  13
BRANCH   5   4
ATOM      4  C   UNL     1      -3.706   0.557  24.628  0.00  0.00    +0.131 C 
BRANCH   4   3
ATOM      1  O   UNL     1      -2.511  -0.537  24.318  0.00  0.00    -0.265 OA
ATOM      2  C   UNL     1      -3.283  -0.795  24.444  0.00  0.00    +0.300 C 
ATOM      3  N   UNL     1      -3.882  -0.249  24.599  0.00  0.00    -0.198 NA
BRANCH   2  15
ATOM     15  C   UNL     1      -3.459  -1.601  24.414  0.00  0.00    +0.200 A 
ATOM     16  C   UNL     1      -3.215  -2.171  24.958  0.00  0.00    +0.046 A 
ATOM     17  C   UNL     1      -3.514  -2.900  24.715  0.00  0.00    +0.044 A 
ATOM     18  C   UNL     1      -3.944  -2.781  24.021  0.00  0.00    +0.180 A 
ATOM     19  O   UNL     1      -3.910  -1.978  23.835  0.00  0.00    -0.446 OA
ENDBRANCH   2  15
ENDBRANCH   4   3
ENDBRANCH   5   4
TORSDOF 4
ENDMDL
MODEL 4
REMARK VINA RESULT:      -9.0      1.506      1.821
REMARK  Name = 
REMARK  4 active torsions:
REMARK  status: ('A' for Active; 'I' for Inactive)
REMARK    1  A    between atoms: C_2  and  C_15
REMARK    2  A    between atoms: N_3  and  C_4
REMARK    3  A    between atoms: C_4  and  C_5
REMARK    4  A    between atoms: C_12  and  C_13
REMARK                            x       y       z     vdW  Elec       q    Type
REMARK                         _______ _______ _______ _____ _____    ______ ____
ROOT
ATOM      5  C   UNL     1      -2.264   0.521  24.999  0.00  0.00    +0.079 C 
ATOM      6  C   UNL     1      -2.961   0.333  24.708  0.00  0.00    +0.019 C 
ATOM      7  C   UNL     1      -3.252  -0.418  24.628  0.00  0.00    +0.016 C 
ATOM      8  C   UNL     1      -4.075  -0.421  24.272  0.00  0.00    +0.018 C 
ATOM      9  C   UNL     1      -3.524  -0.150  24.494  0.00  0.00    +0.072 C 
ATOM     10  N   UNL     1      -2.568  -0.242  24.914  0.00  0.00    -0.271 NA
ATOM     11  C   UNL     1      -2.222  -1.063  25.115  0.00  0.00    +0.085 C 
ATOM     12  C   UNL     1      -2.914  -1.204  24.824  0.00  0.00    +0.081 C 
ENDROOT
BRANCH  12  13
ATOM     13  C   UNL     1      -3.268  -1.941  24.715  0.00  0.00    -0.078 C 
ATOM     14  C   UNL     1      -3.622  -2.678  24.607  0.00  0.00    -0.014 C 
ENDBRANCH  12  13
BRANCH   5   4
ATOM      4  C   UNL     1      -1.680   1.059  25.220  0.00  0.00    +0.131 C 
BRANCH   4   3
ATOM      1  O   UNL     1      -0.564   2.133  25.788  0.00  0.00    -0.265 OA
ATOM      2  C   UNL     1      -1.267   2.406  25.456  0.00  0.00    +0.300 C 
ATOM      3  N   UNL     1      -1.826   1.869  25.172  0.00  0.00    -0.198 NA
BRANCH   2  15
ATOM     15  C   UNL     1      -1.413   3.217  25.409  0.00  0.00    +0.200 A 
ATOM     16  C   UNL     1      -0.922   3.778  25.056  0.00  0.00    +0.046 A 
ATOM     17  C   UNL     1      -1.282   4.516  25.135  0.00  0.00    +0.044 A 
ATOM     18  C   UNL     1      -1.995   4.412  25.536  0.00  0.00    +0.180 A 
ATOM     19  O   UNL     1      -2.076   3.608  25.705  0.00  0.00    -0.446 OA
ENDBRANCH   2  15
ENDBRANCH   4   3
ENDBRANCH   5   4
TORSDOF 4
ENDMDL
