MODEL 1
REMARK VINA RESULT:     -11.2      0.000      0.000
REMARK  Name = 
REMARK  5 active torsions:
REMARK  status: ('A' for Active; 'I' for Inactive)
REMARK    1  A    between atoms: O_2  and  C_3
REMARK    2  A    between atoms: C_6  and  C_7
REMARK    3  A    between atoms: C_7  and  N_8
REMARK    4  A    between atoms: C_13  and  C_14
REMARK    5  A    between atoms: C_16  and  C_19
REMARK                            x       y       z     vdW  Elec       q    Type
REMARK                         _______ _______ _______ _____ _____    ______ ____
ROOT
ATOM      8  N   UNL     1      -4.607   1.229  24.937  0.00  0.00    -0.260 NA
ATOM      9  C   UNL     1      -5.255   0.795  25.205  0.00  0.00    +0.105 C 
ATOM     10  C   UNL     1      -5.939   1.184  25.449  0.00  0.00    +0.160 C 
ATOM     11  O   UNL     1      -5.976   2.008  25.426  0.00  0.00    -0.350 OA
ATOM     12  C   UNL     1      -5.328   2.442  25.159  0.00  0.00    +0.166 C 
ATOM     13  C   UNL     1      -4.642   2.052  24.914  0.00  0.00    +0.147 C 
ENDROOT
BRANCH  13  14
ATOM     14  C   UNL     1      -3.994   2.487  24.646  0.00  0.00    +0.156 A 
ATOM     15  N   UNL     1      -3.402   2.813  25.118  0.00  0.00    -0.227 NA
ATOM     16  C   UNL     1      -2.865   3.199  24.623  0.00  0.00    +0.108 A 
ATOM     17  C   UNL     1      -3.127   3.110  23.846  0.00  0.00    +0.120 A 
ATOM     18  N   UNL     1      -3.825   2.669  23.861  0.00  0.00    -0.226 NA
BRANCH  16  19
ATOM     19  C   UNL     1      -2.186   3.602  24.864  0.00  0.00    +0.049 A 
ATOM     20  C   UNL     1      -1.533   3.270  25.242  0.00  0.00    +0.009 A 
ATOM     21  C   UNL     1      -0.985   3.870  25.380  0.00  0.00    +0.019 A 
ATOM     22  C   UNL     1      -1.300   4.574  25.087  0.00  0.00    +0.087 A 
ATOM     23 CL   UNL     1      -0.936   5.314  25.109  0.00  0.00    -0.075 Cl
ATOM     24  S   UNL     1      -2.042   4.408  24.768  0.00  0.00    -0.074 S 
ENDBRANCH  16  19
ENDBRANCH  13  14
BRANCH   8   7
ATOM      7  C   UNL     1      -3.921   0.839  24.692  0.00  0.00    +0.100 C 
BRANCH   7   6
ATOM      3  C   UNL     1      -3.734  -1.615  24.959  0.00  0.00    +0.139 A 
ATOM      4  C   UNL     1      -4.018  -1.297  24.253  0.00  0.00    +0.037 A 
ATOM      5  C   UNL     1      -4.081  -0.479  24.163  0.00  0.00    +0.000 A 
ATOM      6  C   UNL     1      -3.859   0.021  24.780  0.00  0.00    -0.006 A 
ATOM     25  C   UNL     1      -3.575  -0.297  25.488  0.00  0.00    +0.000 A 
ATOM     26  C   UNL     1      -3.512  -1.114  25.576  0.00  0.00    +0.037 A 
BRANCH   3   2
ATOM      1  C   UNL     1      -3.603  -2.917  24.385  0.00  0.00    +0.252 C 
ATOM      2  O   UNL     1      -3.671  -2.433  25.048  0.00  0.00    -0.471 OA
ENDBRANCH   3   2
ENDBRANCH   7   6
ENDBRANCH   8   7
TORSDOF 5
ENDMDL
MODEL 2
REMARK VINA RESULT:     -11.0      2.488      4.732
REMARK  Name = 
REMARK  5 active torsions:
REMARK  status: ('A' for Active; 'I' for Inactive)
REMARK    1  A    between atoms: O_2  and  C_3
REMARK    2  A    between atoms: C_6  and  C_7
REMARK    3  A    between atoms: C_7  and  N_8
REMARK    4  A    between atoms: C_13  and  C_14
REMARK    5  A    between atoms: C_16  and  C_19
REMARK                            x       y       z     vdW  Elec       q    Type
REMARK                         _______ _______ _______ _____ _____    ______ ____
ROOT
ATOM      8  N   UNL     1      -4.263   2.454  25.180  0.00  0.00    -0.260 NA
ATOM      9  C   UNL     1      -4.594   3.147  25.481  0.00  0.00    +0.105 C 
ATOM     10  C   UNL     1      -5.404   3.183  25.634  0.00  0.00    +0.160 C 
ATOM     11  O   UNL     1      -5.882   2.528  25.486  0.00  0.00    -0.350 OA
ATOM     12  C   UNL     1      -5.551   1.835  25.184  0.00  0.00    +0.166 C 
ATOM     13  C   UNL     1      -4.740   1.798  25.031  0.00  0.00    +0.147 C 
ENDROOT
BRANCH  13  14
ATOM     14  C   UNL     1      -4.409   1.105  24.729  0.00  0.00    +0.156 A 
ATOM     15  N   UNL     1      -4.323   0.393  25.136  0.00  0.00    -0.227 NA
ATOM     16  C   UNL     1      -3.966  -0.149  24.626  0.00  0.00    +0.108 A 
ATOM     17  C   UNL     1      -3.832   0.229  23.905  0.00  0.00    +0.120 A 
ATOM     18  N   UNL     1      -4.106   1.005  23.970  0.00  0.00    -0.226 NA
BRANCH  16  19
ATOM     19  C   UNL     1      -3.776  -0.932  24.806  0.00  0.00    +0.049 A 
ATOM     20  C   UNL     1      -3.448  -1.201  25.514  0.00  0.00    +0.009 A 
ATOM     21  C   UNL     1      -3.350  -2.018  25.455  0.00  0.00    +0.019 A 
ATOM     22  C   UNL     1      -3.618  -2.254  24.710  0.00  0.00    +0.087 A 
ATOM     23 CL   UNL     1      -3.621  -3.025  24.418  0.00  0.00    -0.075 Cl
ATOM     24  S   UNL     1      -3.881  -1.582  24.310  0.00  0.00    -0.074 S 
ENDBRANCH  16  19
ENDBRANCH  13  14
BRANCH   8   7
ATOM      7  C   UNL     1      -3.452   2.417  25.026  0.00  0.00    +0.100 C 
BRANCH   7   6
ATOM      3  C   UNL     1      -2.047   4.434  25.311  0.00  0.00    +0.139 A 
ATOM      4  C   UNL     1      -2.480   4.328  24.617  0.00  0.00    +0.037 A 
ATOM      5  C   UNL     1      -2.949   3.656  24.522  0.00  0.00    +0.000 A 
ATOM      6  C   UNL     1      -2.984   3.089  25.121  0.00  0.00    -0.006 A 
ATOM     25  C   UNL     1      -2.551   3.196  25.815  0.00  0.00    +0.000 A 
ATOM     26  C   UNL     1      -2.083   3.868  25.910  0.00  0.00    +0.037 A 
BRANCH   3   2
ATOM      1  C   UNL     1      -0.894   5.200  24.957  0.00  0.00    +0.252 C 
ATOM      2  O   UNL     1      -1.579   5.107  25.406  0.00  0.00    -0.471 OA
ENDBRANCH   3   2
ENDBRANCH   7   6
ENDBRANCH   8   7
TORSDOF 5
ENDMDL
MODEL 3
REMARK VINA RESULT:     -10.5      2.108      3.070
REMARK  Name = 
REMARK  5 active torsions:
REMARK  status: ('A' for Active; 'I' for Inactive)
REMARK    1  A    between atoms: O_2  and  C_3
REMARK    2  A    between atoms: C_6  and  C_7
REMARK    3  A    between atoms: C_7  and  N_8
REMARK    4  A    between atoms: C_13  and  C_14
REMARK    5  A    between atoms: C_16  and  C_19
REMARK                            x       y       z     vdW  Elec       q    Type
REMARK                         _______ _______ _______ _____ _____    ______ ____
ROOT
ATOM      8  N   UNL     1      -1.029   0.238  24.673  0.00  0.00    -0.260 NA
ATOM      9  C   UNL     1      -0.892  -0.450  24.240  0.00  0.00    +0.105 C 
ATOM     10  C   UNL     1      -0.198  -0.531  23.803  0.00  0.00    +0.160 C 
ATOM     11  O   UNL     1       0.360   0.077  23.799  0.00  0.00    -0.350 OA
ATOM     12  C   UNL     1       0.223   0.765  24.232  0.00  0.00    +0.166 C 
ATOM     13  C   UNL     1      -0.472   0.846  24.670  0.00  0.00    +0.147 C 
ENDROOT
BRANCH  13  14
ATOM     14  C   UNL     1      -0.609   1.534  25.104  0.00  0.00    +0.156 A 
ATOM     15  N   UNL     1      -0.987   2.213  24.827  0.00  0.00    -0.227 NA
ATOM     16  C   UNL     1      -1.004   2.763  25.443  0.00  0.00    +0.108 A 
ATOM     17  C   UNL     1      -0.637   2.423  26.098  0.00  0.00    +0.120 A 
ATOM     18  N   UNL     1      -0.392   1.663  25.888  0.00  0.00    -0.226 NA
BRANCH  16  19
ATOM     19  C   UNL     1      -1.332   3.520  25.408  0.00  0.00    +0.049 A 
ATOM     20  C   UNL     1      -2.092   3.731  25.648  0.00  0.00    +0.009 A 
ATOM     21  C   UNL     1      -2.187   4.539  25.516  0.00  0.00    +0.019 A 
ATOM     22  C   UNL     1      -1.483   4.829  25.195  0.00  0.00    +0.087 A 
ATOM     23 CL   UNL     1      -1.335   5.611  24.979  0.00  0.00    -0.075 Cl
ATOM     24  S   UNL     1      -0.955   4.199  25.129  0.00  0.00    -0.074 S 
ENDBRANCH  16  19
ENDBRANCH  13  14
BRANCH   8   7
ATOM      7  C   UNL     1      -1.725   0.318  25.111  0.00  0.00    +0.100 C 
BRANCH   7   6
ATOM      3  C   UNL     1      -3.597  -1.262  24.759  0.00  0.00    +0.139 A 
ATOM      4  C   UNL     1      -3.522  -0.597  24.277  0.00  0.00    +0.037 A 
ATOM      5  C   UNL     1      -2.898  -0.070  24.394  0.00  0.00    +0.000 A 
ATOM      6  C   UNL     1      -2.349  -0.208  24.993  0.00  0.00    -0.006 A 
ATOM     25  C   UNL     1      -2.423  -0.874  25.476  0.00  0.00    +0.000 A 
ATOM     26  C   UNL     1      -3.047  -1.400  25.358  0.00  0.00    +0.037 A 
BRANCH   3   2
ATOM      1  C   UNL     1      -4.228  -2.279  23.979  0.00  0.00    +0.252 C 
ATOM      2  O   UNL     1      -4.220  -1.789  24.642  0.00  0.00    -0.471 OA
ENDBRANCH   3   2
ENDBRANCH   7   6
ENDBRANCH   8   7
TORSDOF 5
ENDMDL
MODEL 4
REMARK VINA RESULT:     -10.3      3.223      5.603
REMARK  Name = 
REMARK  5 active torsions:
REMARK  status: ('A' for Active; 'I' for Inactive)
REMARK    1  A    between atoms: O_2  and  C_3
REMARK    2  A    between atoms: C_6  and  C_7
REMARK    3  A    between atoms: C_7  and  N_8
REMARK    4  A    between atoms: C_13  and  C_14
REMARK    5  A    between atoms: C_16  and  C_19
REMARK                            x       y       z     vdW  Elec       q    Type
REMARK                         _______ _______ _______ _____ _____    ______ ____
ROOT
ATOM      8  N   UNL     1      -0.679   1.289  24.688  0.00  0.00    -0.260 NA
ATOM      9  C   UNL     1      -0.125   1.835  24.412  0.00  0.00    +0.105 C 
ATOM     10  C   UNL     1       0.508   1.581  23.950  0.00  0.00    +0.160 C 
ATOM     11  O   UNL     1       0.589   0.781  23.762  0.00  0.00    -0.350 OA
ATOM     12  C   UNL     1       0.035   0.236  24.038  0.00  0.00    +0.166 C 
ATOM     13  C   UNL     1      -0.599   0.490  24.502  0.00  0.00    +0.147 C 
ENDROOT
BRANCH  13  14
ATOM     14  C   UNL     1      -1.153  -0.056  24.778  0.00  0.00    +0.156 A 
ATOM     15  N   UNL     1      -1.788  -0.360  24.348  0.00  0.00    -0.227 NA
ATOM     16  C   UNL     1      -2.197  -0.885  24.837  0.00  0.00    +0.108 A 
ATOM     17  C   UNL     1      -1.814  -0.904  25.567  0.00  0.00    +0.120 A 
ATOM     18  N   UNL     1      -1.169  -0.391  25.530  0.00  0.00    -0.226 NA
BRANCH  16  19
ATOM     19  C   UNL     1      -2.870  -1.316  24.631  0.00  0.00    +0.049 A 
ATOM     20  C   UNL     1      -3.616  -1.002  24.470  0.00  0.00    +0.009 A 
ATOM     21  C   UNL     1      -4.123  -1.627  24.290  0.00  0.00    +0.019 A 
ATOM     22  C   UNL     1      -3.690  -2.328  24.339  0.00  0.00    +0.087 A 
ATOM     23 CL   UNL     1      -3.980  -3.088  24.201  0.00  0.00    -0.075 Cl
ATOM     24  S   UNL     1      -2.916  -2.135  24.550  0.00  0.00    -0.074 S 
ENDBRANCH  16  19
ENDBRANCH  13  14
BRANCH   8   7
ATOM      7  C   UNL     1      -1.313   1.543  25.152  0.00  0.00    +0.100 C 
BRANCH   7   6
ATOM      3  C   UNL     1      -1.772   3.963  25.398  0.00  0.00    +0.139 A 
ATOM      4  C   UNL     1      -1.248   3.588  25.912  0.00  0.00    +0.037 A 
ATOM      5  C   UNL     1      -1.094   2.782  25.831  0.00  0.00    +0.000 A 
ATOM      6  C   UNL     1      -1.466   2.350  25.234  0.00  0.00    -0.006 A 
ATOM     25  C   UNL     1      -1.991   2.725  24.719  0.00  0.00    +0.000 A 
ATOM     26  C   UNL     1      -2.144   3.531  24.802  0.00  0.00    +0.037 A 
BRANCH   3   2
ATOM      1  C   UNL     1      -1.443   5.322  25.104  0.00  0.00    +0.252 C 
ATOM      2  O   UNL     1      -1.925   4.770  25.480  0.00  0.00    -0.471 OA
ENDBRANCH   3   2
ENDBRANCH   7   6
ENDBRANCH   8   7
TORSDOF 5
ENDMDL
MODEL 5
REMARK VINA RESULT:      -9.8      2.567      3.601
REMARK  Name = 
REMARK  5 active torsions:
REMARK  status: ('A' for Active; 'I' for Inactive)
REMARK    1  A    between atoms: O_2  and  C_3
REMARK    2  A    between atoms: C_6  and  C_7
REMARK    3  A    between atoms: C_7  and  N_8
REMARK    4  A    between atoms: C_13  and  C_14
REMARK    5  A    between atoms: C_16  and  C_19
REMARK                            x       y       z     vdW  Elec       q    Type
REMARK                         _______ _______ _______ _____ _____    ______ ____
ROOT
ATOM      8  N   UNL     1      -1.178   1.905  25.232  0.00  0.00    -0.260 NA
ATOM      9  C   UNL     1      -0.418   1.782  25.527  0.00  0.00    +0.105 C 
ATOM     10  C   UNL     1      -0.002   2.406  25.869  0.00  0.00    +0.160 C 
ATOM     11  O   UNL     1      -0.347   3.155  25.918  0.00  0.00    -0.350 OA
ATOM     12  C   UNL     1      -1.107   3.278  25.624  0.00  0.00    +0.166 C 
ATOM     13  C   UNL     1      -1.524   2.653  25.281  0.00  0.00    +0.147 C 
ENDROOT
BRANCH  13  14
ATOM     14  C   UNL     1      -2.285   2.776  24.986  0.00  0.00    +0.156 A 
ATOM     15  N   UNL     1      -2.988   2.665  25.402  0.00  0.00    -0.227 NA
ATOM     16  C   UNL     1      -3.614   2.852  24.898  0.00  0.00    +0.108 A 
ATOM     17  C   UNL     1      -3.296   3.079  24.171  0.00  0.00    +0.120 A 
ATOM     18  N   UNL     1      -2.474   3.032  24.226  0.00  0.00    -0.226 NA
BRANCH  16  19
ATOM     19  C   UNL     1      -4.417   2.819  25.086  0.00  0.00    +0.049 A 
ATOM     20  C   UNL     1      -4.845   3.399  25.487  0.00  0.00    +0.009 A 
ATOM     21  C   UNL     1      -5.624   3.139  25.556  0.00  0.00    +0.019 A 
ATOM     22  C   UNL     1      -5.678   2.397  25.198  0.00  0.00    +0.087 A 
ATOM     23 CL   UNL     1      -6.358   1.934  25.141  0.00  0.00    -0.075 Cl
ATOM     24  S   UNL     1      -4.931   2.200  24.908  0.00  0.00    -0.074 S 
ENDBRANCH  16  19
ENDBRANCH  13  14
BRANCH   8   7
ATOM      7  C   UNL     1      -1.595   1.280  24.889  0.00  0.00    +0.100 C 
BRANCH   7   6
ATOM      3  C   UNL     1      -0.759  -1.037  25.123  0.00  0.00    +0.139 A 
ATOM      4  C   UNL     1      -1.254  -0.717  25.700  0.00  0.00    +0.037 A 
ATOM      5  C   UNL     1      -1.533   0.055  25.622  0.00  0.00    +0.000 A 
ATOM      6  C   UNL     1      -1.316   0.508  24.968  0.00  0.00    -0.006 A 
ATOM     25  C   UNL     1      -0.821   0.188  24.390  0.00  0.00    +0.000 A 
ATOM     26  C   UNL     1      -0.542  -0.585  24.468  0.00  0.00    +0.037 A 
BRANCH   3   2
ATOM      1  C   UNL     1      -0.951  -2.445  24.968  0.00  0.00    +0.252 C 
ATOM      2  O   UNL     1      -0.480  -1.810  25.200  0.00  0.00    -0.471 OA
ENDBRANCH   3   2
ENDBRANCH   7   6
ENDBRANCH   8   7
TORSDOF 5
ENDMDL
MODEL 6
REMARK VINA RESULT:      -9.7      2.101      2.763
REMARK  Name = 
REMARK  5 active torsions:
REMARK  status: ('A' for Active; 'I' for Inactive)
REMARK    1  A    between atoms: O_2  and  C_3
REMARK    2  A    between atoms: C_6  and  C_7
REMARK    3  A    between atoms: C_7  and  N_8
REMARK    4  A    between atoms: C_13  and  C_14
REMARK    5  A    between atoms: C_16  and  C_19
REMARK                            x       y       z     vdW  Elec       q    Type
REMARK                         _______ _______ _______ _____ _____    ______ ____
ROOT
ATOM      8  N   UNL     1      -1.964   0.366  24.456  0.00  0.00    -0.260 NA
ATOM      9  C   UNL     1      -1.388  -0.221  24.518  0.00  0.00    +0.105 C 
ATOM     10  C   UNL     1      -0.594  -0.032  24.402  0.00  0.00    +0.160 C 
ATOM     11  O   UNL     1      -0.375   0.743  24.223  0.00  0.00    -0.350 OA
ATOM     12  C   UNL     1      -0.952   1.330  24.160  0.00  0.00    +0.166 C 
ATOM     13  C   UNL     1      -1.747   1.141  24.277  0.00  0.00    +0.147 C 
ENDROOT
BRANCH  13  14
ATOM     14  C   UNL     1      -2.324   1.728  24.214  0.00  0.00    +0.156 A 
ATOM     15  N   UNL     1      -2.710   2.095  24.844  0.00  0.00    -0.227 NA
ATOM     16  C   UNL     1      -3.241   2.645  24.530  0.00  0.00    +0.108 A 
ATOM     17  C   UNL     1      -3.181   2.615  23.708  0.00  0.00    +0.120 A 
ATOM     18  N   UNL     1      -2.614   2.048  23.513  0.00  0.00    -0.226 NA
BRANCH  16  19
ATOM     19  C   UNL     1      -3.743   3.137  24.963  0.00  0.00    +0.049 A 
ATOM     20  C   UNL     1      -3.507   3.737  25.478  0.00  0.00    +0.009 A 
ATOM     21  C   UNL     1      -4.186   4.086  25.790  0.00  0.00    +0.019 A 
ATOM     22  C   UNL     1      -4.841   3.701  25.468  0.00  0.00    +0.087 A 
ATOM     23 CL   UNL     1      -5.632   3.873  25.629  0.00  0.00    -0.075 Cl
ATOM     24  S   UNL     1      -4.567   3.115  24.957  0.00  0.00    -0.074 S 
ENDBRANCH  16  19
ENDBRANCH  13  14
BRANCH   8   7
ATOM      7  C   UNL     1      -2.760   0.177  24.572  0.00  0.00    +0.100 C 
BRANCH   7   6
ATOM      3  C   UNL     1      -3.425  -2.171  24.983  0.00  0.00    +0.139 A 
ATOM      4  C   UNL     1      -3.405  -1.877  24.213  0.00  0.00    +0.037 A 
ATOM      5  C   UNL     1      -3.183  -1.094  24.075  0.00  0.00    +0.000 A 
ATOM      6  C   UNL     1      -2.981  -0.606  24.708  0.00  0.00    -0.006 A 
ATOM     25  C   UNL     1      -3.001  -0.900  25.480  0.00  0.00    +0.000 A 
ATOM     26  C   UNL     1      -3.223  -1.683  25.616  0.00  0.00    +0.037 A 
BRANCH   3   2
ATOM      1  C   UNL     1      -3.594  -3.511  24.515  0.00  0.00    +0.252 C 
ATOM      2  O   UNL     1      -3.646  -2.954  25.120  0.00  0.00    -0.471 OA
ENDBRANCH   3   2
ENDBRANCH   7   6
ENDBRANCH   8   7
TORSDOF 5
ENDMDL
