MODEL 1
REMARK VINA RESULT:     -13.7      0.000      0.000
REMARK  Name = 
REMARK  6 active torsions:
REMARK  status: ('A' for Active; 'I' for Inactive)
REMARK    1  A    between atoms: O_2  and  C_3
REMARK    2  A    between atoms: C_6  and  C_9
REMARK    3  A    between atoms: C_14  and  C_15
REMARK    4  A    between atoms: C_15  and  C_16
REMARK    5  A    between atoms: C_19  and  C_20
REMARK    6  A    between atoms: C_20  and  C_21
REMARK                            x       y       z     vdW  Elec       q    Type
REMARK                         _______ _______ _______ _____ _____    ______ ____
ROOT
ATOM      9  C   UNL     1      -1.964   1.673  24.657  0.00  0.00    +0.249 C 
ATOM     10  O   UNL     1      -1.478   1.038  24.452  0.00  0.00    -0.270 OA
ATOM     11  N   UNL     1      -2.775   1.556  24.759  0.00  0.00    -0.276 N 
ATOM     12  C   UNL     1      -3.260   2.190  24.964  0.00  0.00    +0.094 C 
ATOM     13  C   UNL     1      -4.070   2.074  25.066  0.00  0.00    +0.022 C 
ATOM     14  C   UNL     1      -4.394   1.322  24.963  0.00  0.00    +0.015 C 
ATOM     19  C   UNL     1      -3.909   0.689  24.759  0.00  0.00    +0.026 C 
ATOM     31  C   UNL     1      -3.099   0.805  24.656  0.00  0.00    +0.094 C 
ENDROOT
BRANCH   9   6
ATOM      3  C   UNL     1      -0.992   3.928  24.964  0.00  0.00    +0.139 A 
ATOM      4  C   UNL     1      -1.080   3.425  25.612  0.00  0.00    +0.037 A 
ATOM      5  C   UNL     1      -1.404   2.673  25.509  0.00  0.00    +0.008 A 
ATOM      6  C   UNL     1      -1.640   2.425  24.760  0.00  0.00    +0.054 A 
ATOM      7  C   UNL     1      -1.553   2.928  24.111  0.00  0.00    +0.008 A 
ATOM      8  C   UNL     1      -1.229   3.680  24.214  0.00  0.00    +0.037 A 
BRANCH   3   2
ATOM      1  C   UNL     1      -1.154   5.346  25.033  0.00  0.00    +0.252 C 
ATOM      2  O   UNL     1      -0.668   4.680  25.066  0.00  0.00    -0.471 OA
ENDBRANCH   3   2
ENDBRANCH   9   6
BRANCH  14  15
ATOM     15  C   UNL     1      -5.205   1.206  25.065  0.00  0.00    +0.114 C 
BRANCH  15  16
ATOM     16  C   UNL     1      -5.697   1.847  25.229  0.00  0.00    +0.365 C 
ATOM     17  O   UNL     1      -5.847   2.063  26.011  0.00  0.00    -0.246 OA
ATOM     18  O   UNL     1      -6.039   2.273  24.610  0.00  0.00    -0.246 OA
ENDBRANCH  15  16
ENDBRANCH  14  15
BRANCH  19  20
ATOM     20  C   UNL     1      -4.234  -0.064  24.656  0.00  0.00    +0.047 C 
BRANCH  20  21
ATOM     21  C   UNL     1      -3.900  -0.713  25.039  0.00  0.00    +0.053 C 
ATOM     22  N   UNL     1      -3.580  -0.626  25.795  0.00  0.00    -0.274 NA
ATOM     23  C   UNL     1      -3.246  -1.276  26.179  0.00  0.00    +0.130 C 
ATOM     24  C   UNL     1      -3.232  -2.013  25.806  0.00  0.00    +0.053 C 
ATOM     25  C   UNL     1      -3.552  -2.100  25.050  0.00  0.00    -0.019 A 
ATOM     26  C   UNL     1      -3.886  -1.449  24.666  0.00  0.00    +0.009 A 
ATOM     27  C   UNL     1      -4.206  -1.536  23.911  0.00  0.00    +0.001 A 
ATOM     28  C   UNL     1      -4.192  -2.272  23.540  0.00  0.00    +0.000 A 
ATOM     29  C   UNL     1      -3.857  -2.922  23.924  0.00  0.00    -0.000 A 
ATOM     30  C   UNL     1      -3.538  -2.835  24.679  0.00  0.00    -0.004 A 
ENDBRANCH  20  21
ENDBRANCH  19  20
TORSDOF 6
ENDMDL
MODEL 2
REMARK VINA RESULT:     -11.5      1.193      4.929
REMARK  Name = 
REMARK  6 active torsions:
REMARK  status: ('A' for Active; 'I' for Inactive)
REMARK    1  A    between atoms: O_2  and  C_3
REMARK    2  A    between atoms: C_6  and  C_9
REMARK    3  A    between atoms: C_14  and  C_15
REMARK    4  A    between atoms: C_15  and  C_16
REMARK    5  A    between atoms: C_19  and  C_20
REMARK    6  A    between atoms: C_20  and  C_21
REMARK                            x       y       z     vdW  Elec       q    Type
REMARK                         _______ _______ _______ _____ _____    ______ ____
ROOT
ATOM      9  C   UNL     1      -2.955   0.418  24.307  0.00  0.00    +0.249 C 
ATOM     10  O   UNL     1      -2.192   0.543  24.020  0.00  0.00    -0.270 OA
ATOM     11  N   UNL     1      -3.383   1.046  24.630  0.00  0.00    -0.276 N 
ATOM     12  C   UNL     1      -4.145   0.922  24.917  0.00  0.00    +0.094 C 
ATOM     13  C   UNL     1      -4.573   1.549  25.239  0.00  0.00    +0.022 C 
ATOM     14  C   UNL     1      -4.237   2.301  25.273  0.00  0.00    +0.015 C 
ATOM     19  C   UNL     1      -3.475   2.426  24.986  0.00  0.00    +0.026 C 
ATOM     31  C   UNL     1      -3.047   1.799  24.664  0.00  0.00    +0.094 C 
ENDROOT
BRANCH   9   6
ATOM      3  C   UNL     1      -3.963  -1.840  24.206  0.00  0.00    +0.139 A 
ATOM      4  C   UNL     1      -4.109  -1.296  23.603  0.00  0.00    +0.037 A 
ATOM      5  C   UNL     1      -3.772  -0.543  23.637  0.00  0.00    +0.008 A 
ATOM      6  C   UNL     1      -3.291  -0.334  24.273  0.00  0.00    +0.054 A 
ATOM      7  C   UNL     1      -3.146  -0.879  24.877  0.00  0.00    +0.008 A 
ATOM      8  C   UNL     1      -3.482  -1.631  24.842  0.00  0.00    +0.037 A 
BRANCH   3   2
ATOM      1  C   UNL     1      -3.818  -3.261  24.220  0.00  0.00    +0.252 C 
ATOM      2  O   UNL     1      -4.299  -2.593  24.172  0.00  0.00    -0.471 OA
ENDBRANCH   3   2
ENDBRANCH   9   6
BRANCH  14  15
ATOM     15  C   UNL     1      -4.665   2.930  25.595  0.00  0.00    +0.114 C 
BRANCH  15  16
ATOM     16  C   UNL     1      -5.467   2.838  25.765  0.00  0.00    +0.365 C 
ATOM     17  O   UNL     1      -6.028   2.930  25.167  0.00  0.00    -0.246 OA
ATOM     18  O   UNL     1      -5.707   2.656  26.534  0.00  0.00    -0.246 OA
ENDBRANCH  15  16
ENDBRANCH  14  15
BRANCH  19  20
ATOM     20  C   UNL     1      -3.139   3.180  25.021  0.00  0.00    +0.047 C 
BRANCH  20  21
ATOM     21  C   UNL     1      -2.367   3.275  25.297  0.00  0.00    +0.053 C 
ATOM     22  N   UNL     1      -2.019   2.686  25.758  0.00  0.00    -0.274 NA
ATOM     23  C   UNL     1      -1.246   2.781  26.034  0.00  0.00    +0.130 C 
ATOM     24  C   UNL     1      -0.824   3.465  25.849  0.00  0.00    +0.053 C 
ATOM     25  C   UNL     1      -1.172   4.054  25.388  0.00  0.00    -0.019 A 
ATOM     26  C   UNL     1      -1.945   3.959  25.111  0.00  0.00    +0.009 A 
ATOM     27  C   UNL     1      -2.293   4.547  24.651  0.00  0.00    +0.001 A 
ATOM     28  C   UNL     1      -1.871   5.231  24.466  0.00  0.00    +0.000 A 
ATOM     29  C   UNL     1      -1.098   5.326  24.742  0.00  0.00    -0.000 A 
ATOM     30  C   UNL     1      -0.750   4.738  25.203  0.00  0.00    -0.004 A 
ENDBRANCH  20  21
ENDBRANCH  19  20
TORSDOF 6
ENDMDL
MODEL 3
REMARK VINA RESULT:     -10.9      1.672      5.374
REMARK  Name = 
REMARK  6 active torsions:
REMARK  status: ('A' for Active; 'I' for Inactive)
REMARK    1  A    between atoms: O_2  and  C_3
REMARK    2  A    between atoms: C_6  and  C_9
REMARK    3  A    between atoms: C_14  and  C_15
REMARK    4  A    between atoms: C_15  and  C_16
REMARK    5  A    between atoms: C_19  and  C_20
REMARK    6  A    between atoms: C_20  and  C_21
REMARK                            x       y       z     vdW  Elec       q    Type
REMARK                         _______ _______ _______ _____ _____    ______ ____
ROOT
ATOM      9  C   UNL     1      -3.533  -0.121  25.015  0.00  0.00    +0.249 C 
ATOM     10  O   UNL     1      -4.158   0.293  25.360  0.00  0.00    -0.270 OA
ATOM     11  N   UNL     1      -2.853   0.282  24.775  0.00  0.00    -0.276 N 
ATOM     12  C   UNL     1      -2.229  -0.132  24.430  0.00  0.00    +0.094 C 
ATOM     13  C   UNL     1      -1.550   0.270  24.190  0.00  0.00    +0.022 C 
ATOM     14  C   UNL     1      -1.497   1.086  24.295  0.00  0.00    +0.015 C 
ATOM     19  C   UNL     1      -2.121   1.500  24.639  0.00  0.00    +0.026 C 
ATOM     31  C   UNL     1      -2.800   1.098  24.879  0.00  0.00    +0.094 C 
ENDROOT
BRANCH   9   6
ATOM      3  C   UNL     1      -3.695  -2.570  24.699  0.00  0.00    +0.139 A 
ATOM      4  C   UNL     1      -3.368  -2.265  25.392  0.00  0.00    +0.037 A 
ATOM      5  C   UNL     1      -3.314  -1.447  25.498  0.00  0.00    +0.008 A 
ATOM      6  C   UNL     1      -3.587  -0.937  24.910  0.00  0.00    +0.054 A 
ATOM      7  C   UNL     1      -3.913  -1.243  24.217  0.00  0.00    +0.008 A 
ATOM      8  C   UNL     1      -3.967  -2.060  24.112  0.00  0.00    +0.037 A 
BRANCH   3   2
ATOM      1  C   UNL     1      -3.638  -3.714  23.845  0.00  0.00    +0.252 C 
ATOM      2  O   UNL     1      -3.748  -3.387  24.594  0.00  0.00    -0.471 OA
ENDBRANCH   3   2
ENDBRANCH   9   6
BRANCH  14  15
ATOM     15  C   UNL     1      -0.817   1.489  24.054  0.00  0.00    +0.114 C 
BRANCH  15  16
ATOM     16  C   UNL     1      -0.095   1.092  24.013  0.00  0.00    +0.365 C 
ATOM     17  O   UNL     1       0.423   1.110  24.655  0.00  0.00    -0.246 OA
ATOM     18  O   UNL     1       0.108   0.676  23.329  0.00  0.00    -0.246 OA
ENDBRANCH  15  16
ENDBRANCH  14  15
BRANCH  19  20
ATOM     20  C   UNL     1      -2.067   2.317  24.743  0.00  0.00    +0.047 C 
BRANCH  20  21
ATOM     21  C   UNL     1      -2.709   2.800  24.557  0.00  0.00    +0.053 C 
ATOM     22  N   UNL     1      -3.120   2.684  23.851  0.00  0.00    -0.274 NA
ATOM     23  C   UNL     1      -3.763   3.168  23.664  0.00  0.00    +0.130 C 
ATOM     24  C   UNL     1      -3.993   3.767  24.184  0.00  0.00    +0.053 C 
ATOM     25  C   UNL     1      -3.581   3.883  24.889  0.00  0.00    -0.019 A 
ATOM     26  C   UNL     1      -2.938   3.399  25.076  0.00  0.00    +0.009 A 
ATOM     27  C   UNL     1      -2.527   3.515  25.781  0.00  0.00    +0.001 A 
ATOM     28  C   UNL     1      -2.756   4.113  26.299  0.00  0.00    +0.000 A 
ATOM     29  C   UNL     1      -3.399   4.597  26.113  0.00  0.00    -0.000 A 
ATOM     30  C   UNL     1      -3.811   4.481  25.408  0.00  0.00    -0.004 A 
ENDBRANCH  20  21
ENDBRANCH  19  20
TORSDOF 6
ENDMDL
MODEL 4
REMARK VINA RESULT:     -10.3      1.793      3.022
REMARK  Name = 
REMARK  6 active torsions:
REMARK  status: ('A' for Active; 'I' for Inactive)
REMARK    1  A    between atoms: O_2  and  C_3
REMARK    2  A    between atoms: C_6  and  C_9
REMARK    3  A    between atoms: C_14  and  C_15
REMARK    4  A    between atoms: C_15  and  C_16
REMARK    5  A    between atoms: C_19  and  C_20
REMARK    6  A    between atoms: C_20  and  C_21
REMARK                            x       y       z     vdW  Elec       q    Type
REMARK                         _______ _______ _______ _____ _____    ______ ____
ROOT
ATOM      9  C   UNL     1      -4.917   1.675  25.263  0.00  0.00    +0.249 C 
ATOM     10  O   UNL     1      -5.260   1.041  25.663  0.00  0.00    -0.270 OA
ATOM     11  N   UNL     1      -4.343   1.537  24.685  0.00  0.00    -0.276 N 
ATOM     12  C   UNL     1      -4.000   2.171  24.285  0.00  0.00    +0.094 C 
ATOM     13  C   UNL     1      -3.428   2.034  23.707  0.00  0.00    +0.022 C 
ATOM     14  C   UNL     1      -3.198   1.261  23.531  0.00  0.00    +0.015 C 
ATOM     19  C   UNL     1      -3.541   0.628  23.931  0.00  0.00    +0.026 C 
ATOM     31  C   UNL     1      -4.114   0.765  24.508  0.00  0.00    +0.094 C 
ENDROOT
BRANCH   9   6
ATOM      3  C   UNL     1      -5.606   3.992  25.791  0.00  0.00    +0.139 A 
ATOM      4  C   UNL     1      -4.871   3.714  26.041  0.00  0.00    +0.037 A 
ATOM      5  C   UNL     1      -4.641   2.941  25.865  0.00  0.00    +0.008 A 
ATOM      6  C   UNL     1      -5.146   2.448  25.439  0.00  0.00    +0.054 A 
ATOM      7  C   UNL     1      -5.882   2.727  25.189  0.00  0.00    +0.008 A 
ATOM      8  C   UNL     1      -6.111   3.499  25.365  0.00  0.00    +0.037 A 
BRANCH   3   2
ATOM      1  C   UNL     1      -6.260   5.205  25.413  0.00  0.00    +0.252 C 
ATOM      2  O   UNL     1      -5.836   4.766  25.967  0.00  0.00    -0.471 OA
ENDBRANCH   3   2
ENDBRANCH   9   6
BRANCH  14  15
ATOM     15  C   UNL     1      -2.625   1.123  22.953  0.00  0.00    +0.114 C 
BRANCH  15  16
ATOM     16  C   UNL     1      -2.263   1.758  22.571  0.00  0.00    +0.365 C 
ATOM     17  O   UNL     1      -2.566   2.035  21.855  0.00  0.00    -0.246 OA
ATOM     18  O   UNL     1      -1.599   2.116  22.905  0.00  0.00    -0.246 OA
ENDBRANCH  15  16
ENDBRANCH  14  15
BRANCH  19  20
ATOM     20  C   UNL     1      -3.312  -0.146  23.754  0.00  0.00    +0.047 C 
BRANCH  20  21
ATOM     21  C   UNL     1      -3.085  -0.658  24.360  0.00  0.00    +0.053 C 
ATOM     22  N   UNL     1      -2.581  -0.393  24.957  0.00  0.00    -0.274 NA
ATOM     23  C   UNL     1      -2.354  -0.905  25.564  0.00  0.00    +0.130 C 
ATOM     24  C   UNL     1      -2.633  -1.682  25.572  0.00  0.00    +0.053 C 
ATOM     25  C   UNL     1      -3.138  -1.947  24.975  0.00  0.00    -0.019 A 
ATOM     26  C   UNL     1      -3.364  -1.434  24.369  0.00  0.00    +0.009 A 
ATOM     27  C   UNL     1      -3.868  -1.699  23.772  0.00  0.00    +0.001 A 
ATOM     28  C   UNL     1      -4.146  -2.475  23.781  0.00  0.00    +0.000 A 
ATOM     29  C   UNL     1      -3.920  -2.988  24.388  0.00  0.00    -0.000 A 
ATOM     30  C   UNL     1      -3.416  -2.723  24.984  0.00  0.00    -0.004 A 
ENDBRANCH  20  21
ENDBRANCH  19  20
TORSDOF 6
ENDMDL
MODEL 5
REMARK VINA RESULT:     -10.2      1.475      2.775
REMARK  Name = 
REMARK  6 active torsions:
REMARK  status: ('A' for Active; 'I' for Inactive)
REMARK    1  A    between atoms: O_2  and  C_3
REMARK    2  A    between atoms: C_6  and  C_9
REMARK    3  A    between atoms: C_14  and  C_15
REMARK    4  A    between atoms: C_15  and  C_16
REMARK    5  A    between atoms: C_19  and  C_20
REMARK    6  A    between atoms: C_20  and  C_21
REMARK                            x       y       z     vdW  Elec       q    Type
REMARK                         _______ _______ _______ _____ _____    ______ ____
ROOT
ATOM      9  C   UNL     1      -2.601   2.159  24.967  0.00  0.00    +0.249 C 
ATOM     10  O   UNL     1      -3.377   1.921  25.115  0.00  0.00    -0.270 OA
ATOM     11  N   UNL     1      -2.039   1.606  24.722  0.00  0.00    -0.276 N 
ATOM     12  C   UNL     1      -1.264   1.843  24.575  0.00  0.00    +0.094 C 
ATOM     13  C   UNL     1      -0.702   1.291  24.330  0.00  0.00    +0.022 C 
ATOM     14  C   UNL     1      -0.918   0.501  24.233  0.00  0.00    +0.015 C 
ATOM     19  C   UNL     1      -1.693   0.263  24.381  0.00  0.00    +0.026 C 
ATOM     31  C   UNL     1      -2.254   0.815  24.626  0.00  0.00    +0.094 C 
ENDROOT
BRANCH   9   6
ATOM      3  C   UNL     1      -1.957   4.531  25.255  0.00  0.00    +0.139 A 
ATOM      4  C   UNL     1      -1.796   3.984  25.852  0.00  0.00    +0.037 A 
ATOM      5  C   UNL     1      -2.011   3.193  25.756  0.00  0.00    +0.008 A 
ATOM      6  C   UNL     1      -2.386   2.949  25.064  0.00  0.00    +0.054 A 
ATOM      7  C   UNL     1      -2.547   3.496  24.467  0.00  0.00    +0.008 A 
ATOM      8  C   UNL     1      -2.332   4.287  24.563  0.00  0.00    +0.037 A 
BRANCH   3   2
ATOM      1  C   UNL     1      -1.084   5.621  24.953  0.00  0.00    +0.252 C 
ATOM      2  O   UNL     1      -1.741   5.322  25.352  0.00  0.00    -0.471 OA
ENDBRANCH   3   2
ENDBRANCH   9   6
BRANCH  14  15
ATOM     15  C   UNL     1      -0.356  -0.052  23.988  0.00  0.00    +0.114 C 
BRANCH  15  16
ATOM     16  C   UNL     1       0.307   0.194  23.563  0.00  0.00    +0.365 C 
ATOM     17  O   UNL     1       0.334   0.090  22.745  0.00  0.00    -0.246 OA
ATOM     18  O   UNL     1       0.943   0.542  23.957  0.00  0.00    -0.246 OA
ENDBRANCH  15  16
ENDBRANCH  14  15
BRANCH  19  20
ATOM     20  C   UNL     1      -1.908  -0.528  24.284  0.00  0.00    +0.047 C 
BRANCH  20  21
ATOM     21  C   UNL     1      -2.291  -0.929  24.894  0.00  0.00    +0.053 C 
ATOM     22  N   UNL     1      -2.090  -0.774  25.680  0.00  0.00    -0.274 NA
ATOM     23  C   UNL     1      -2.474  -1.176  26.291  0.00  0.00    +0.130 C 
ATOM     24  C   UNL     1      -3.058  -1.731  26.115  0.00  0.00    +0.053 C 
ATOM     25  C   UNL     1      -3.260  -1.886  25.330  0.00  0.00    -0.019 A 
ATOM     26  C   UNL     1      -2.876  -1.485  24.719  0.00  0.00    +0.009 A 
ATOM     27  C   UNL     1      -3.076  -1.639  23.934  0.00  0.00    +0.001 A 
ATOM     28  C   UNL     1      -3.660  -2.194  23.760  0.00  0.00    +0.000 A 
ATOM     29  C   UNL     1      -4.044  -2.596  24.371  0.00  0.00    -0.000 A 
ATOM     30  C   UNL     1      -3.844  -2.441  25.155  0.00  0.00    -0.004 A 
ENDBRANCH  20  21
ENDBRANCH  19  20
TORSDOF 6
ENDMDL
MODEL 6
REMARK VINA RESULT:     -10.2      1.844      5.657
REMARK  Name = 
REMARK  6 active torsions:
REMARK  status: ('A' for Active; 'I' for Inactive)
REMARK    1  A    between atoms: O_2  and  C_3
REMARK    2  A    between atoms: C_6  and  C_9
REMARK    3  A    between atoms: C_14  and  C_15
REMARK    4  A    between atoms: C_15  and  C_16
REMARK    5  A    between atoms: C_19  and  C_20
REMARK    6  A    between atoms: C_20  and  C_21
REMARK                            x       y       z     vdW  Elec       q    Type
REMARK                         _______ _______ _______ _____ _____    ______ ____
ROOT
ATOM      9  C   UNL     1      -2.702   0.152  24.727  0.00  0.00    +0.249 C 
ATOM     10  O   UNL     1      -3.130   0.797  25.013  0.00  0.00    -0.270 OA
ATOM     11  N   UNL     1      -1.927   0.256  24.461  0.00  0.00    -0.276 N 
ATOM     12  C   UNL     1      -1.500  -0.388  24.175  0.00  0.00    +0.094 C 
ATOM     13  C   UNL     1      -0.726  -0.284  23.909  0.00  0.00    +0.022 C 
ATOM     14  C   UNL     1      -0.381   0.464  23.929  0.00  0.00    +0.015 C 
ATOM     19  C   UNL     1      -0.808   1.108  24.214  0.00  0.00    +0.026 C 
ATOM     31  C   UNL     1      -1.582   1.005  24.481  0.00  0.00    +0.094 C 
ENDROOT
BRANCH   9   6
ATOM      3  C   UNL     1      -3.737  -2.095  24.669  0.00  0.00    +0.139 A 
ATOM      4  C   UNL     1      -3.849  -1.573  24.040  0.00  0.00    +0.037 A 
ATOM      5  C   UNL     1      -3.504  -0.824  24.060  0.00  0.00    +0.008 A 
ATOM      6  C   UNL     1      -3.047  -0.597  24.707  0.00  0.00    +0.054 A 
ATOM      7  C   UNL     1      -2.935  -1.119  25.337  0.00  0.00    +0.008 A 
ATOM      8  C   UNL     1      -3.280  -1.868  25.317  0.00  0.00    +0.037 A 
BRANCH   3   2
ATOM      1  C   UNL     1      -3.712  -3.458  24.240  0.00  0.00    +0.252 C 
ATOM      2  O   UNL     1      -4.082  -2.845  24.650  0.00  0.00    -0.471 OA
ENDBRANCH   3   2
ENDBRANCH   9   6
BRANCH  14  15
ATOM     15  C   UNL     1       0.394   0.568  23.663  0.00  0.00    +0.114 C 
BRANCH  15  16
ATOM     16  C   UNL     1       0.773  -0.037  23.249  0.00  0.00    +0.365 C 
ATOM     17  O   UNL     1       0.756  -0.045  22.424  0.00  0.00    -0.246 OA
ATOM     18  O   UNL     1       1.168  -0.633  23.661  0.00  0.00    -0.246 OA
ENDBRANCH  15  16
ENDBRANCH  14  15
BRANCH  19  20
ATOM     20  C   UNL     1      -0.462   1.858  24.234  0.00  0.00    +0.047 C 
BRANCH  20  21
ATOM     21  C   UNL     1      -0.475   2.300  24.930  0.00  0.00    +0.053 C 
ATOM     22  N   UNL     1      -0.308   1.937  25.652  0.00  0.00    -0.274 NA
ATOM     23  C   UNL     1      -0.320   2.379  26.349  0.00  0.00    +0.130 C 
ATOM     24  C   UNL     1      -0.500   3.184  26.323  0.00  0.00    +0.053 C 
ATOM     25  C   UNL     1      -0.668   3.548  25.602  0.00  0.00    -0.019 A 
ATOM     26  C   UNL     1      -0.655   3.105  24.904  0.00  0.00    +0.009 A 
ATOM     27  C   UNL     1      -0.822   3.467  24.183  0.00  0.00    +0.001 A 
ATOM     28  C   UNL     1      -1.002   4.272  24.157  0.00  0.00    +0.000 A 
ATOM     29  C   UNL     1      -1.014   4.714  24.855  0.00  0.00    -0.000 A 
ATOM     30  C   UNL     1      -0.847   4.352  25.576  0.00  0.00    -0.004 A 
ENDBRANCH  20  21
ENDBRANCH  19  20
TORSDOF 6
ENDMDL
