MODEL 1
REMARK VINA RESULT:     -10.7      0.000      0.000
REMARK  Name = 
REMARK  8 active torsions:
REMARK  status: ('A' for Active; 'I' for Inactive)
REMARK    1  A    between atoms: O_2  and  C_3
REMARK    2  A    between atoms: C_4  and  C_5
REMARK    3  A    between atoms: C_5  and  N_6
REMARK    4  A    between atoms: C_7  and  C_9
REMARK    5  A    between atoms: C_9  and  C_10
REMARK    6  A    between atoms: C_15  and  C_16
REMARK    7  A    between atoms: C_16  and  C_17
REMARK    8  A    between atoms: C_20  and  C_22
REMARK                            x       y       z     vdW  Elec       q    Type
REMARK                         _______ _______ _______ _____ _____    ______ ____
ROOT
ATOM     10  C   UNL     1      -4.571   2.373  24.964  0.00  0.00    +0.012 C 
ATOM     11  C   UNL     1      -5.296   2.323  25.353  0.00  0.00    +0.019 C 
ATOM     12  C   UNL     1      -5.524   2.917  25.879  0.00  0.00    +0.089 C 
ATOM     13  N   UNL     1      -5.027   3.560  26.015  0.00  0.00    -0.218 NA
ATOM     14  C   UNL     1      -4.302   3.611  25.626  0.00  0.00    +0.089 C 
ATOM     15  C   UNL     1      -4.073   3.018  25.100  0.00  0.00    +0.024 C 
ENDROOT
BRANCH  10   9
ATOM      9  C   UNL     1      -4.343   1.780  24.439  0.00  0.00    +0.087 C 
BRANCH   9   7
ATOM      6  N   UNL     1      -4.078   0.390  24.642  0.00  0.00    -0.200 NA
ATOM      7  C   UNL     1      -4.616   1.009  24.544  0.00  0.00    +0.242 C 
ATOM      8  O   UNL     1      -5.426   0.856  24.553  0.00  0.00    -0.273 OA
BRANCH   6   5
ATOM      5  C   UNL     1      -4.351  -0.382  24.748  0.00  0.00    +0.144 C 
BRANCH   5   4
ATOM      3  C   UNL     1      -3.842  -1.705  24.577  0.00  0.00    +0.136 A 
ATOM      4  C   UNL     1      -3.825  -0.978  24.966  0.00  0.00    +0.033 A 
ATOM     25  C   UNL     1      -3.282  -0.848  25.574  0.00  0.00    +0.000 A 
ATOM     26  C   UNL     1      -2.757  -1.445  25.792  0.00  0.00    -0.000 A 
ATOM     27  C   UNL     1      -2.773  -2.172  25.403  0.00  0.00    +0.003 A 
ATOM     28  C   UNL     1      -3.316  -2.302  24.795  0.00  0.00    +0.037 A 
BRANCH   3   2
ATOM      1  C   UNL     1      -4.424  -2.574  23.603  0.00  0.00    +0.252 C 
ATOM      2  O   UNL     1      -4.384  -1.835  23.970  0.00  0.00    -0.472 OA
ENDBRANCH   3   2
ENDBRANCH   5   4
ENDBRANCH   6   5
ENDBRANCH   9   7
ENDBRANCH  10   9
BRANCH  15  16
ATOM     16  C   UNL     1      -3.348   3.068  24.711  0.00  0.00    +0.051 C 
BRANCH  16  17
ATOM     17  C   UNL     1      -2.734   3.509  25.039  0.00  0.00    +0.101 A 
ATOM     18  N   UNL     1      -2.373   3.372  25.768  0.00  0.00    -0.081 NA
ATOM     19  O   UNL     1      -1.788   3.943  25.876  0.00  0.00    -0.347 OA
ATOM     20  C   UNL     1      -1.786   4.435  25.213  0.00  0.00    +0.256 A 
ATOM     21  C   UNL     1      -2.370   4.166  24.696  0.00  0.00    +0.065 A 
BRANCH  20  22
ATOM     22  C   UNL     1      -1.288   5.080  25.089  0.00  0.00    +0.424 C 
ATOM     23  O   UNL     1      -1.562   5.845  25.232  0.00  0.00    -0.237 OA
ATOM     24  O   UNL     1      -0.516   4.960  24.821  0.00  0.00    -0.237 OA
ENDBRANCH  20  22
ENDBRANCH  16  17
ENDBRANCH  15  16
TORSDOF 8
ENDMDL
MODEL 2
REMARK VINA RESULT:     -10.0      1.220      5.073
REMARK  Name = 
REMARK  8 active torsions:
REMARK  status: ('A' for Active; 'I' for Inactive)
REMARK    1  A    between atoms: O_2  and  C_3
REMARK    2  A    between atoms: C_4  and  C_5
REMARK    3  A    between atoms: C_5  and  N_6
REMARK    4  A    between atoms: C_7  and  C_9
REMARK    5  A    between atoms: C_9  and  C_10
REMARK    6  A    between atoms: C_15  and  C_16
REMARK    7  A    between atoms: C_16  and  C_17
REMARK    8  A    between atoms: C_20  and  C_22
REMARK                            x       y       z     vdW  Elec       q    Type
REMARK                         _______ _______ _______ _____ _____    ______ ____
ROOT
ATOM     10  C   UNL     1      -4.738   1.955  24.705  0.00  0.00    +0.012 C 
ATOM     11  C   UNL     1      -5.237   2.442  25.144  0.00  0.00    +0.019 C 
ATOM     12  C   UNL     1      -5.797   2.110  25.652  0.00  0.00    +0.089 C 
ATOM     13  N   UNL     1      -5.856   1.290  25.720  0.00  0.00    -0.218 NA
ATOM     14  C   UNL     1      -5.357   0.803  25.281  0.00  0.00    +0.089 C 
ATOM     15  C   UNL     1      -4.798   1.134  24.773  0.00  0.00    +0.024 C 
ENDROOT
BRANCH  10   9
ATOM      9  C   UNL     1      -4.179   2.286  24.197  0.00  0.00    +0.087 C 
BRANCH   9   7
ATOM      6  N   UNL     1      -2.947   2.857  24.643  0.00  0.00    -0.200 NA
ATOM      7  C   UNL     1      -3.743   2.943  24.438  0.00  0.00    +0.242 C 
ATOM      8  O   UNL     1      -4.100   3.685  24.475  0.00  0.00    -0.273 OA
BRANCH   6   5
ATOM      5  C   UNL     1      -2.510   3.515  24.884  0.00  0.00    +0.144 C 
BRANCH   5   4
ATOM      3  C   UNL     1      -1.232   4.070  25.197  0.00  0.00    +0.136 A 
ATOM      4  C   UNL     1      -1.736   3.419  25.152  0.00  0.00    +0.033 A 
ATOM     25  C   UNL     1      -1.467   2.672  25.376  0.00  0.00    +0.000 A 
ATOM     26  C   UNL     1      -0.693   2.577  25.645  0.00  0.00    -0.000 A 
ATOM     27  C   UNL     1      -0.188   3.227  25.690  0.00  0.00    +0.003 A 
ATOM     28  C   UNL     1      -0.457   3.974  25.466  0.00  0.00    +0.037 A 
BRANCH   3   2
ATOM      1  C   UNL     1      -0.969   5.444  24.904  0.00  0.00    +0.252 C 
ATOM      2  O   UNL     1      -1.502   4.816  24.973  0.00  0.00    -0.472 OA
ENDBRANCH   3   2
ENDBRANCH   5   4
ENDBRANCH   6   5
ENDBRANCH   9   7
ENDBRANCH  10   9
BRANCH  15  16
ATOM     16  C   UNL     1      -4.299   0.646  24.334  0.00  0.00    +0.051 C 
BRANCH  16  17
ATOM     17  C   UNL     1      -4.115  -0.109  24.608  0.00  0.00    +0.101 A 
ATOM     18  N   UNL     1      -3.829  -0.297  25.359  0.00  0.00    -0.081 NA
ATOM     19  O   UNL     1      -3.722  -1.114  25.395  0.00  0.00    -0.347 OA
ATOM     20  C   UNL     1      -3.942  -1.433  24.666  0.00  0.00    +0.256 A 
ATOM     21  C   UNL     1      -4.185  -0.812  24.181  0.00  0.00    +0.065 A 
BRANCH  20  22
ATOM     22  C   UNL     1      -3.923  -2.231  24.460  0.00  0.00    +0.424 C 
ATOM     23  O   UNL     1      -4.245  -2.479  23.742  0.00  0.00    -0.237 OA
ATOM     24  O   UNL     1      -3.582  -2.782  24.972  0.00  0.00    -0.237 OA
ENDBRANCH  20  22
ENDBRANCH  16  17
ENDBRANCH  15  16
TORSDOF 8
ENDMDL
MODEL 3
REMARK VINA RESULT:     -10.0      2.247      4.763
REMARK  Name = 
REMARK  8 active torsions:
REMARK  status: ('A' for Active; 'I' for Inactive)
REMARK    1  A    between atoms: O_2  and  C_3
REMARK    2  A    between atoms: C_4  and  C_5
REMARK    3  A    between atoms: C_5  and  N_6
REMARK    4  A    between atoms: C_7  and  C_9
REMARK    5  A    between atoms: C_9  and  C_10
REMARK    6  A    between atoms: C_15  and  C_16
REMARK    7  A    between atoms: C_16  and  C_17
REMARK    8  A    between atoms: C_20  and  C_22
REMARK                            x       y       z     vdW  Elec       q    Type
REMARK                         _______ _______ _______ _____ _____    ______ ____
ROOT
ATOM     10  C   UNL     1      -3.352  -1.245  25.012  0.00  0.00    +0.012 C 
ATOM     11  C   UNL     1      -3.950  -1.670  24.637  0.00  0.00    +0.019 C 
ATOM     12  C   UNL     1      -3.766  -2.352  24.210  0.00  0.00    +0.089 C 
ATOM     13  N   UNL     1      -2.984  -2.609  24.160  0.00  0.00    -0.218 NA
ATOM     14  C   UNL     1      -2.386  -2.184  24.536  0.00  0.00    +0.089 C 
ATOM     15  C   UNL     1      -2.568  -1.502  24.962  0.00  0.00    +0.024 C 
ENDROOT
BRANCH  10   9
ATOM      9  C   UNL     1      -3.534  -0.563  25.438  0.00  0.00    +0.087 C 
BRANCH   9   7
ATOM      6  N   UNL     1      -3.927   0.751  25.037  0.00  0.00    -0.200 NA
ATOM      7  C   UNL     1      -4.111  -0.045  25.158  0.00  0.00    +0.242 C 
ATOM      8  O   UNL     1      -4.871  -0.321  24.998  0.00  0.00    -0.273 OA
BRANCH   6   5
ATOM      5  C   UNL     1      -4.504   1.270  24.756  0.00  0.00    +0.144 C 
BRANCH   5   4
ATOM      3  C   UNL     1      -4.690   2.685  24.816  0.00  0.00    +0.136 A 
ATOM      4  C   UNL     1      -4.292   2.029  24.512  0.00  0.00    +0.033 A 
ATOM     25  C   UNL     1      -3.682   2.133  23.967  0.00  0.00    +0.000 A 
ATOM     26  C   UNL     1      -3.470   2.892  23.724  0.00  0.00    -0.000 A 
ATOM     27  C   UNL     1      -3.868   3.548  24.027  0.00  0.00    +0.003 A 
ATOM     28  C   UNL     1      -4.478   3.445  24.573  0.00  0.00    +0.037 A 
BRANCH   3   2
ATOM      1  C   UNL     1      -5.688   3.238  25.676  0.00  0.00    +0.252 C 
ATOM      2  O   UNL     1      -5.300   2.581  25.361  0.00  0.00    -0.472 OA
ENDBRANCH   3   2
ENDBRANCH   5   4
ENDBRANCH   6   5
ENDBRANCH   9   7
ENDBRANCH  10   9
BRANCH  15  16
ATOM     16  C   UNL     1      -1.970  -1.077  25.338  0.00  0.00    +0.051 C 
BRANCH  16  17
ATOM     17  C   UNL     1      -1.230  -1.003  24.981  0.00  0.00    +0.101 A 
ATOM     18  N   UNL     1      -0.595  -1.523  25.067  0.00  0.00    -0.081 NA
ATOM     19  O   UNL     1       0.032  -1.237  24.614  0.00  0.00    -0.347 OA
ATOM     20  C   UNL     1      -0.215  -0.540  24.246  0.00  0.00    +0.256 A 
ATOM     21  C   UNL     1      -0.995  -0.396  24.473  0.00  0.00    +0.065 A 
BRANCH  20  22
ATOM     22  C   UNL     1       0.238  -0.071  23.742  0.00  0.00    +0.424 C 
ATOM     23  O   UNL     1       0.721  -0.424  23.173  0.00  0.00    -0.237 OA
ATOM     24  O   UNL     1       0.209   0.751  23.805  0.00  0.00    -0.237 OA
ENDBRANCH  20  22
ENDBRANCH  16  17
ENDBRANCH  15  16
TORSDOF 8
ENDMDL
MODEL 4
REMARK VINA RESULT:      -9.9      2.203      6.107
REMARK  Name = 
REMARK  8 active torsions:
REMARK  status: ('A' for Active; 'I' for Inactive)
REMARK    1  A    between atoms: O_2  and  C_3
REMARK    2  A    between atoms: C_4  and  C_5
REMARK    3  A    between atoms: C_5  and  N_6
REMARK    4  A    between atoms: C_7  and  C_9
REMARK    5  A    between atoms: C_9  and  C_10
REMARK    6  A    between atoms: C_15  and  C_16
REMARK    7  A    between atoms: C_16  and  C_17
REMARK    8  A    between atoms: C_20  and  C_22
REMARK                            x       y       z     vdW  Elec       q    Type
REMARK                         _______ _______ _______ _____ _____    ______ ____
ROOT
ATOM     10  C   UNL     1      -0.604   0.378  24.816  0.00  0.00    +0.012 C 
ATOM     11  C   UNL     1      -0.091   0.750  24.289  0.00  0.00    +0.019 C 
ATOM     12  C   UNL     1       0.251   0.319  23.673  0.00  0.00    +0.089 C 
ATOM     13  N   UNL     1       0.080  -0.483  23.586  0.00  0.00    -0.218 NA
ATOM     14  C   UNL     1      -0.434  -0.854  24.113  0.00  0.00    +0.089 C 
ATOM     15  C   UNL     1      -0.776  -0.425  24.728  0.00  0.00    +0.024 C 
ENDROOT
BRANCH  10   9
ATOM      9  C   UNL     1      -0.947   0.808  25.431  0.00  0.00    +0.087 C 
BRANCH   9   7
ATOM      6  N   UNL     1      -1.313   2.188  25.496  0.00  0.00    -0.200 NA
ATOM      7  C   UNL     1      -0.738   1.597  25.547  0.00  0.00    +0.242 C 
ATOM      8  O   UNL     1       0.044   1.797  25.714  0.00  0.00    -0.273 OA
BRANCH   6   5
ATOM      5  C   UNL     1      -1.104   2.978  25.613  0.00  0.00    +0.144 C 
BRANCH   5   4
ATOM      3  C   UNL     1      -1.532   4.313  25.342  0.00  0.00    +0.136 A 
ATOM      4  C   UNL     1      -1.689   3.559  25.638  0.00  0.00    +0.033 A 
ATOM     25  C   UNL     1      -2.430   3.386  25.957  0.00  0.00    +0.000 A 
ATOM     26  C   UNL     1      -3.014   3.967  25.982  0.00  0.00    -0.000 A 
ATOM     27  C   UNL     1      -2.858   4.722  25.686  0.00  0.00    +0.003 A 
ATOM     28  C   UNL     1      -2.118   4.895  25.367  0.00  0.00    +0.037 A 
BRANCH   3   2
ATOM      1  C   UNL     1      -0.642   5.236  24.712  0.00  0.00    +0.252 C 
ATOM      2  O   UNL     1      -0.793   4.486  25.023  0.00  0.00    -0.472 OA
ENDBRANCH   3   2
ENDBRANCH   5   4
ENDBRANCH   6   5
ENDBRANCH   9   7
ENDBRANCH  10   9
BRANCH  15  16
ATOM     16  C   UNL     1      -1.290  -0.797  25.256  0.00  0.00    +0.051 C 
BRANCH  16  17
ATOM     17  C   UNL     1      -1.777  -1.409  24.995  0.00  0.00    +0.101 A 
ATOM     18  N   UNL     1      -1.546  -2.189  24.862  0.00  0.00    -0.081 NA
ATOM     19  O   UNL     1      -2.207  -2.611  24.606  0.00  0.00    -0.347 OA
ATOM     20  C   UNL     1      -2.847  -2.092  24.580  0.00  0.00    +0.256 A 
ATOM     21  C   UNL     1      -2.581  -1.349  24.821  0.00  0.00    +0.065 A 
BRANCH  20  22
ATOM     22  C   UNL     1      -3.617  -2.281  24.355  0.00  0.00    +0.424 C 
ATOM     23  O   UNL     1      -4.163  -1.680  24.206  0.00  0.00    -0.237 OA
ATOM     24  O   UNL     1      -3.842  -3.072  24.277  0.00  0.00    -0.237 OA
ENDBRANCH  20  22
ENDBRANCH  16  17
ENDBRANCH  15  16
TORSDOF 8
ENDMDL
MODEL 5
REMARK VINA RESULT:      -9.9      1.691      3.094
REMARK  Name = 
REMARK  8 active torsions:
REMARK  status: ('A' for Active; 'I' for Inactive)
REMARK    1  A    between atoms: O_2  and  C_3
REMARK    2  A    between atoms: C_4  and  C_5
REMARK    3  A    between atoms: C_5  and  N_6
REMARK    4  A    between atoms: C_7  and  C_9
REMARK    5  A    between atoms: C_9  and  C_10
REMARK    6  A    between atoms: C_15  and  C_16
REMARK    7  A    between atoms: C_16  and  C_17
REMARK    8  A    between atoms: C_20  and  C_22
REMARK                            x       y       z     vdW  Elec       q    Type
REMARK                         _______ _______ _______ _____ _____    ______ ____
ROOT
ATOM     10  C   UNL     1      -2.084   2.372  24.652  0.00  0.00    +0.012 C 
ATOM     11  C   UNL     1      -1.376   2.322  25.069  0.00  0.00    +0.019 C 
ATOM     12  C   UNL     1      -1.210   2.866  25.669  0.00  0.00    +0.089 C 
ATOM     13  N   UNL     1      -1.755   3.458  25.849  0.00  0.00    -0.218 NA
ATOM     14  C   UNL     1      -2.464   3.508  25.432  0.00  0.00    +0.089 C 
ATOM     15  C   UNL     1      -2.630   2.965  24.833  0.00  0.00    +0.024 C 
ENDROOT
BRANCH  10   9
ATOM      9  C   UNL     1      -2.250   1.829  24.053  0.00  0.00    +0.087 C 
BRANCH   9   7
ATOM      6  N   UNL     1      -2.483   0.431  24.235  0.00  0.00    -0.200 NA
ATOM      7  C   UNL     1      -1.961   1.058  24.105  0.00  0.00    +0.242 C 
ATOM      8  O   UNL     1      -1.154   0.914  24.028  0.00  0.00    -0.273 OA
BRANCH   6   5
ATOM      5  C   UNL     1      -2.194  -0.341  24.288  0.00  0.00    +0.144 C 
BRANCH   5   4
ATOM      3  C   UNL     1      -2.434  -1.725  24.543  0.00  0.00    +0.136 A 
ATOM      4  C   UNL     1      -2.720  -0.972  24.366  0.00  0.00    +0.033 A 
ATOM     25  C   UNL     1      -3.530  -0.850  24.267  0.00  0.00    +0.000 A 
ATOM     26  C   UNL     1      -4.054  -1.481  24.346  0.00  0.00    -0.000 A 
ATOM     27  C   UNL     1      -3.769  -2.235  24.523  0.00  0.00    +0.003 A 
ATOM     28  C   UNL     1      -2.959  -2.357  24.621  0.00  0.00    +0.037 A 
BRANCH   3   2
ATOM      1  C   UNL     1      -1.337  -2.606  24.789  0.00  0.00    +0.252 C 
ATOM      2  O   UNL     1      -1.625  -1.847  24.641  0.00  0.00    -0.472 OA
ENDBRANCH   3   2
ENDBRANCH   5   4
ENDBRANCH   6   5
ENDBRANCH   9   7
ENDBRANCH  10   9
BRANCH  15  16
ATOM     16  C   UNL     1      -3.339   3.015  24.415  0.00  0.00    +0.051 C 
BRANCH  16  17
ATOM     17  C   UNL     1      -4.047   3.142  24.819  0.00  0.00    +0.101 A 
ATOM     18  N   UNL     1      -4.332   3.871  25.080  0.00  0.00    -0.081 NA
ATOM     19  O   UNL     1      -5.055   3.743  25.455  0.00  0.00    -0.347 OA
ATOM     20  C   UNL     1      -5.219   2.935  25.426  0.00  0.00    +0.256 A 
ATOM     21  C   UNL     1      -4.595   2.564  25.032  0.00  0.00    +0.065 A 
BRANCH  20  22
ATOM     22  C   UNL     1      -5.887   2.563  25.734  0.00  0.00    +0.424 C 
ATOM     23  O   UNL     1      -6.341   2.068  25.255  0.00  0.00    -0.237 OA
ATOM     24  O   UNL     1      -6.101   2.686  26.522  0.00  0.00    -0.237 OA
ENDBRANCH  20  22
ENDBRANCH  16  17
ENDBRANCH  15  16
TORSDOF 8
ENDMDL
MODEL 6
REMARK VINA RESULT:      -9.9      2.443      4.841
REMARK  Name = 
REMARK  8 active torsions:
REMARK  status: ('A' for Active; 'I' for Inactive)
REMARK    1  A    between atoms: O_2  and  C_3
REMARK    2  A    between atoms: C_4  and  C_5
REMARK    3  A    between atoms: C_5  and  N_6
REMARK    4  A    between atoms: C_7  and  C_9
REMARK    5  A    between atoms: C_9  and  C_10
REMARK    6  A    between atoms: C_15  and  C_16
REMARK    7  A    between atoms: C_16  and  C_17
REMARK    8  A    between atoms: C_20  and  C_22
REMARK                            x       y       z     vdW  Elec       q    Type
REMARK                         _______ _______ _______ _____ _____    ______ ____
ROOT
ATOM     10  C   UNL     1      -1.043   2.534  24.698  0.00  0.00    +0.012 C 
ATOM     11  C   UNL     1      -0.860   3.083  25.285  0.00  0.00    +0.019 C 
ATOM     12  C   UNL     1      -0.207   2.961  25.775  0.00  0.00    +0.089 C 
ATOM     13  N   UNL     1       0.261   2.289  25.678  0.00  0.00    -0.218 NA
ATOM     14  C   UNL     1       0.078   1.740  25.091  0.00  0.00    +0.089 C 
ATOM     15  C   UNL     1      -0.574   1.861  24.601  0.00  0.00    +0.024 C 
ENDROOT
BRANCH  10   9
ATOM      9  C   UNL     1      -1.695   2.655  24.208  0.00  0.00    +0.087 C 
BRANCH   9   7
ATOM      6  N   UNL     1      -3.074   2.630  24.582  0.00  0.00    -0.200 NA
ATOM      7  C   UNL     1      -2.363   3.041  24.500  0.00  0.00    +0.242 C 
ATOM      8  O   UNL     1      -2.321   3.837  24.709  0.00  0.00    -0.273 OA
BRANCH   6   5
ATOM      5  C   UNL     1      -3.743   3.016  24.874  0.00  0.00    +0.144 C 
BRANCH   5   4
ATOM      3  C   UNL     1      -5.113   2.984  25.273  0.00  0.00    +0.136 A 
ATOM      4  C   UNL     1      -4.444   2.596  24.986  0.00  0.00    +0.033 A 
ATOM     25  C   UNL     1      -4.476   1.791  24.811  0.00  0.00    +0.000 A 
ATOM     26  C   UNL     1      -5.178   1.373  24.923  0.00  0.00    -0.000 A 
ATOM     27  C   UNL     1      -5.848   1.759  25.211  0.00  0.00    +0.003 A 
ATOM     28  C   UNL     1      -5.816   2.564  25.386  0.00  0.00    +0.037 A 
BRANCH   3   2
ATOM      1  C   UNL     1      -5.770   4.194  25.656  0.00  0.00    +0.252 C 
ATOM      2  O   UNL     1      -5.081   3.788  25.449  0.00  0.00    -0.472 OA
ENDBRANCH   3   2
ENDBRANCH   5   4
ENDBRANCH   6   5
ENDBRANCH   9   7
ENDBRANCH  10   9
BRANCH  15  16
ATOM     16  C   UNL     1      -0.757   1.311  24.014  0.00  0.00    +0.051 C 
BRANCH  16  17
ATOM     17  C   UNL     1      -0.536   0.523  24.105  0.00  0.00    +0.101 A 
ATOM     18  N   UNL     1       0.157   0.177  23.821  0.00  0.00    -0.081 NA
ATOM     19  O   UNL     1       0.152  -0.620  24.036  0.00  0.00    -0.347 OA
ATOM     20  C   UNL     1      -0.544  -0.767  24.454  0.00  0.00    +0.256 A 
ATOM     21  C   UNL     1      -0.969  -0.061  24.496  0.00  0.00    +0.065 A 
BRANCH  20  22
ATOM     22  C   UNL     1      -0.775  -1.491  24.772  0.00  0.00    +0.424 C 
ATOM     23  O   UNL     1      -1.363  -1.937  24.402  0.00  0.00    -0.237 OA
ATOM     24  O   UNL     1      -0.418  -1.772  25.462  0.00  0.00    -0.237 OA
ENDBRANCH  20  22
ENDBRANCH  16  17
ENDBRANCH  15  16
TORSDOF 8
ENDMDL
MODEL 7
REMARK VINA RESULT:      -9.8      2.182      3.174
REMARK  Name = 
REMARK  8 active torsions:
REMARK  status: ('A' for Active; 'I' for Inactive)
REMARK    1  A    between atoms: O_2  and  C_3
REMARK    2  A    between atoms: C_4  and  C_5
REMARK    3  A    between atoms: C_5  and  N_6
REMARK    4  A    between atoms: C_7  and  C_9
REMARK    5  A    between atoms: C_9  and  C_10
REMARK    6  A    between atoms: C_15  and  C_16
REMARK    7  A    between atoms: C_16  and  C_17
REMARK    8  A    between atoms: C_20  and  C_22
REMARK                            x       y       z     vdW  Elec       q    Type
REMARK                         _______ _______ _______ _____ _____    ______ ____
ROOT
ATOM     10  C   UNL     1      -0.545   0.811  25.038  0.00  0.00    +0.012 C 
ATOM     11  C   UNL     1      -0.251   0.332  24.435  0.00  0.00    +0.019 C 
ATOM     12  C   UNL     1       0.263   0.648  23.871  0.00  0.00    +0.089 C 
ATOM     13  N   UNL     1       0.481   1.442  23.912  0.00  0.00    -0.218 NA
ATOM     14  C   UNL     1       0.188   1.920  24.515  0.00  0.00    +0.089 C 
ATOM     15  C   UNL     1      -0.326   1.606  25.079  0.00  0.00    +0.024 C 
ENDROOT
BRANCH  10   9
ATOM      9  C   UNL     1      -1.059   0.496  25.602  0.00  0.00    +0.087 C 
BRANCH   9   7
ATOM      6  N   UNL     1      -2.149  -0.351  25.233  0.00  0.00    -0.200 NA
ATOM      7  C   UNL     1      -1.372  -0.260  25.496  0.00  0.00    +0.242 C 
ATOM      8  O   UNL     1      -0.909  -0.924  25.653  0.00  0.00    -0.273 OA
BRANCH   6   5
ATOM      5  C   UNL     1      -2.463  -1.107  25.128  0.00  0.00    +0.144 C 
BRANCH   5   4
ATOM      3  C   UNL     1      -3.425  -1.957  24.502  0.00  0.00    +0.136 A 
ATOM      4  C   UNL     1      -3.181  -1.204  24.733  0.00  0.00    +0.033 A 
ATOM     25  C   UNL     1      -3.654  -0.548  24.569  0.00  0.00    +0.000 A 
ATOM     26  C   UNL     1      -4.371  -0.645  24.175  0.00  0.00    -0.000 A 
ATOM     27  C   UNL     1      -4.617  -1.398  23.943  0.00  0.00    +0.003 A 
ATOM     28  C   UNL     1      -4.144  -2.054  24.107  0.00  0.00    +0.037 A 
BRANCH   3   2
ATOM      1  C   UNL     1      -3.240  -3.374  24.525  0.00  0.00    +0.252 C 
ATOM      2  O   UNL     1      -2.953  -2.612  24.666  0.00  0.00    -0.472 OA
ENDBRANCH   3   2
ENDBRANCH   5   4
ENDBRANCH   6   5
ENDBRANCH   9   7
ENDBRANCH  10   9
BRANCH  15  16
ATOM     16  C   UNL     1      -0.620   2.085  25.682  0.00  0.00    +0.051 C 
BRANCH  16  17
ATOM     17  C   UNL     1      -0.736   2.890  25.550  0.00  0.00    +0.101 A 
ATOM     18  N   UNL     1      -0.144   3.462  25.494  0.00  0.00    -0.081 NA
ATOM     19  O   UNL     1      -0.506   4.191  25.360  0.00  0.00    -0.347 OA
ATOM     20  C   UNL     1      -1.322   4.071  25.333  0.00  0.00    +0.256 A 
ATOM     21  C   UNL     1      -1.464   3.266  25.451  0.00  0.00    +0.065 A 
BRANCH  20  22
ATOM     22  C   UNL     1      -1.895   4.651  25.210  0.00  0.00    +0.424 C 
ATOM     23  O   UNL     1      -2.666   4.433  25.012  0.00  0.00    -0.237 OA
ATOM     24  O   UNL     1      -1.698   5.449  25.286  0.00  0.00    -0.237 OA
ENDBRANCH  20  22
ENDBRANCH  16  17
ENDBRANCH  15  16
TORSDOF 8
ENDMDL
