MODEL 1
REMARK VINA RESULT:     -11.0      0.000      0.000
REMARK  Name = 
REMARK  6 active torsions:
REMARK  status: ('A' for Active; 'I' for Inactive)
REMARK    1  A    between atoms: O_2  and  C_3
REMARK    2  A    between atoms: C_6  and  O_7
REMARK    3  A    between atoms: O_7  and  C_8
REMARK    4  A    between atoms: N_13  and  S_15
REMARK    5  A    between atoms: S_15  and  C_18
REMARK    6  A    between atoms: C_21  and  O_22
REMARK                            x       y       z     vdW  Elec       q    Type
REMARK                         _______ _______ _______ _____ _____    ______ ____
ROOT
ATOM      8  C   UNL     1      -3.750   2.463  24.438  0.00  0.00    +0.213 C 
ATOM      9  C   UNL     1      -4.341   2.998  24.652  0.00  0.00    +0.187 C 
ATOM     10  O   UNL     1      -5.091   2.841  24.957  0.00  0.00    -0.348 OA
ATOM     11  C   UNL     1      -5.436   2.110  25.123  0.00  0.00    +0.161 C 
ATOM     12  C   UNL     1      -5.115   1.356  25.025  0.00  0.00    +0.128 C 
ATOM     13  N   UNL     1      -4.371   1.147  24.737  0.00  0.00    -0.149 NA
ATOM     14  C   UNL     1      -3.764   1.640  24.476  0.00  0.00    +0.142 C 
ENDROOT
BRANCH  13  15
ATOM     15  S   UNL     1      -4.214   0.337  24.707  0.00  0.00    +0.063 S 
ATOM     16  O   UNL     1      -4.188   0.374  23.883  0.00  0.00    -0.153 OA
ATOM     17  O   UNL     1      -4.241   0.301  25.531  0.00  0.00    -0.153 OA
BRANCH  15  18
ATOM     18  C   UNL     1      -4.057  -0.472  24.676  0.00  0.00    +0.122 A 
ATOM     19  C   UNL     1      -4.301  -0.915  24.024  0.00  0.00    +0.023 A 
ATOM     20  C   UNL     1      -4.144  -1.724  23.993  0.00  0.00    +0.038 A 
ATOM     21  C   UNL     1      -3.743  -2.091  24.614  0.00  0.00    +0.139 A 
ATOM     24  C   UNL     1      -3.500  -1.648  25.265  0.00  0.00    +0.038 A 
ATOM     25  C   UNL     1      -3.656  -0.839  25.296  0.00  0.00    +0.023 A 
BRANCH  21  22
ATOM     22  O   UNL     1      -3.587  -2.900  24.583  0.00  0.00    -0.471 OA
ATOM     23  C   UNL     1      -2.812  -3.167  24.487  0.00  0.00    +0.252 C 
ENDBRANCH  21  22
ENDBRANCH  15  18
ENDBRANCH  13  15
BRANCH   8   7
ATOM      7  O   UNL     1      -3.053   2.797  24.148  0.00  0.00    -0.475 OA
BRANCH   7   6
ATOM      3  C   UNL     1      -1.099   3.079  25.640  0.00  0.00    +0.139 A 
ATOM      4  C   UNL     1      -1.762   3.561  25.733  0.00  0.00    +0.040 A 
ATOM      5  C   UNL     1      -2.413   3.467  25.236  0.00  0.00    +0.040 A 
ATOM      6  C   UNL     1      -2.402   2.891  24.646  0.00  0.00    +0.139 A 
ATOM     26  C   UNL     1      -1.738   2.409  24.553  0.00  0.00    +0.040 A 
ATOM     27  C   UNL     1      -1.088   2.502  25.049  0.00  0.00    +0.040 A 
BRANCH   3   2
ATOM      1  C   UNL     1       0.085   2.550  26.243  0.00  0.00    +0.252 C 
ATOM      2  O   UNL     1      -0.447   3.173  26.138  0.00  0.00    -0.471 OA
ENDBRANCH   3   2
ENDBRANCH   7   6
ENDBRANCH   8   7
TORSDOF 6
ENDMDL
MODEL 2
REMARK VINA RESULT:     -10.9      2.120      5.422
REMARK  Name = 
REMARK  6 active torsions:
REMARK  status: ('A' for Active; 'I' for Inactive)
REMARK    1  A    between atoms: O_2  and  C_3
REMARK    2  A    between atoms: C_6  and  O_7
REMARK    3  A    between atoms: O_7  and  C_8
REMARK    4  A    between atoms: N_13  and  S_15
REMARK    5  A    between atoms: S_15  and  C_18
REMARK    6  A    between atoms: C_21  and  O_22
REMARK                            x       y       z     vdW  Elec       q    Type
REMARK                         _______ _______ _______ _____ _____    ______ ____
ROOT
ATOM      8  C   UNL     1      -0.785  -0.552  24.896  0.00  0.00    +0.213 C 
ATOM      9  C   UNL     1      -0.299  -0.950  24.360  0.00  0.00    +0.187 C 
ATOM     10  O   UNL     1       0.176  -0.634  23.765  0.00  0.00    -0.348 OA
ATOM     11  C   UNL     1       0.284   0.157  23.557  0.00  0.00    +0.161 C 
ATOM     12  C   UNL     1      -0.059   0.828  23.894  0.00  0.00    +0.128 C 
ATOM     13  N   UNL     1      -0.592   0.873  24.522  0.00  0.00    -0.149 NA
ATOM     14  C   UNL     1      -0.915   0.259  24.967  0.00  0.00    +0.142 C 
ENDROOT
BRANCH  13  15
ATOM     15  S   UNL     1      -0.835   1.634  24.731  0.00  0.00    +0.063 S 
ATOM     16  O   UNL     1      -1.348   1.648  24.086  0.00  0.00    -0.153 OA
ATOM     17  O   UNL     1      -0.321   1.620  25.377  0.00  0.00    -0.153 OA
BRANCH  15  18
ATOM     18  C   UNL     1      -1.077   2.394  24.940  0.00  0.00    +0.122 A 
ATOM     19  C   UNL     1      -1.875   2.600  24.896  0.00  0.00    +0.023 A 
ATOM     20  C   UNL     1      -2.117   3.360  25.105  0.00  0.00    +0.038 A 
ATOM     21  C   UNL     1      -1.562   3.915  25.358  0.00  0.00    +0.139 A 
ATOM     24  C   UNL     1      -0.764   3.709  25.402  0.00  0.00    +0.038 A 
ATOM     25  C   UNL     1      -0.522   2.949  25.193  0.00  0.00    +0.023 A 
BRANCH  21  22
ATOM     22  O   UNL     1      -1.804   4.675  25.567  0.00  0.00    -0.471 OA
ATOM     23  C   UNL     1      -1.550   5.325  25.127  0.00  0.00    +0.252 C 
ENDBRANCH  21  22
ENDBRANCH  15  18
ENDBRANCH  13  15
BRANCH   8   7
ATOM      7  O   UNL     1      -1.195  -1.030  25.429  0.00  0.00    -0.475 OA
BRANCH   7   6
ATOM      3  C   UNL     1      -3.261  -2.192  24.719  0.00  0.00    +0.139 A 
ATOM      4  C   UNL     1      -3.309  -1.502  25.168  0.00  0.00    +0.040 A 
ATOM      5  C   UNL     1      -2.621  -1.115  25.405  0.00  0.00    +0.040 A 
ATOM      6  C   UNL     1      -1.883  -1.417  25.193  0.00  0.00    +0.139 A 
ATOM     26  C   UNL     1      -1.835  -2.108  24.743  0.00  0.00    +0.040 A 
ATOM     27  C   UNL     1      -2.523  -2.495  24.507  0.00  0.00    +0.040 A 
BRANCH   3   2
ATOM      1  C   UNL     1      -4.335  -2.350  23.790  0.00  0.00    +0.252 C 
ATOM      2  O   UNL     1      -3.950  -2.580  24.483  0.00  0.00    -0.471 OA
ENDBRANCH   3   2
ENDBRANCH   7   6
ENDBRANCH   8   7
TORSDOF 6
ENDMDL
MODEL 3
REMARK VINA RESULT:     -10.6      1.670      4.904
REMARK  Name = 
REMARK  6 active torsions:
REMARK  status: ('A' for Active; 'I' for Inactive)
REMARK    1  A    between atoms: O_2  and  C_3
REMARK    2  A    between atoms: C_6  and  O_7
REMARK    3  A    between atoms: O_7  and  C_8
REMARK    4  A    between atoms: N_13  and  S_15
REMARK    5  A    between atoms: S_15  and  C_18
REMARK    6  A    between atoms: C_21  and  O_22
REMARK                            x       y       z     vdW  Elec       q    Type
REMARK                         _______ _______ _______ _____ _____    ______ ____
ROOT
ATOM      8  C   UNL     1      -1.306  -0.052  25.062  0.00  0.00    +0.213 C 
ATOM      9  C   UNL     1      -0.595  -0.163  24.657  0.00  0.00    +0.187 C 
ATOM     10  O   UNL     1      -0.216   0.348  24.133  0.00  0.00    -0.348 OA
ATOM     11  C   UNL     1      -0.453   1.098  23.883  0.00  0.00    +0.161 C 
ATOM     12  C   UNL     1      -1.129   1.521  24.097  0.00  0.00    +0.128 C 
ATOM     13  N   UNL     1      -1.734   1.298  24.612  0.00  0.00    -0.149 NA
ATOM     14  C   UNL     1      -1.812   0.599  25.041  0.00  0.00    +0.142 C 
ENDROOT
BRANCH  13  15
ATOM     15  S   UNL     1      -2.340   1.850  24.711  0.00  0.00    +0.063 S 
ATOM     16  O   UNL     1      -2.669   1.616  23.992  0.00  0.00    -0.153 OA
ATOM     17  O   UNL     1      -2.011   2.083  25.431  0.00  0.00    -0.153 OA
BRANCH  15  18
ATOM     18  C   UNL     1      -2.946   2.400  24.809  0.00  0.00    +0.122 A 
ATOM     19  C   UNL     1      -2.819   3.077  25.263  0.00  0.00    +0.023 A 
ATOM     20  C   UNL     1      -3.425   3.628  25.362  0.00  0.00    +0.038 A 
ATOM     21  C   UNL     1      -4.158   3.502  25.007  0.00  0.00    +0.139 A 
ATOM     24  C   UNL     1      -4.286   2.825  24.553  0.00  0.00    +0.038 A 
ATOM     25  C   UNL     1      -3.680   2.274  24.454  0.00  0.00    +0.023 A 
BRANCH  21  22
ATOM     22  O   UNL     1      -4.764   4.053  25.105  0.00  0.00    -0.471 OA
ATOM     23  C   UNL     1      -5.433   3.857  25.547  0.00  0.00    +0.252 C 
ENDBRANCH  21  22
ENDBRANCH  15  18
ENDBRANCH  13  15
BRANCH   8   7
ATOM      7  O   UNL     1      -1.540  -0.673  25.551  0.00  0.00    -0.475 OA
BRANCH   7   6
ATOM      3  C   UNL     1      -3.105  -2.394  24.705  0.00  0.00    +0.139 A 
ATOM      4  C   UNL     1      -2.318  -2.393  24.456  0.00  0.00    +0.040 A 
ATOM      5  C   UNL     1      -1.797  -1.820  24.738  0.00  0.00    +0.040 A 
ATOM      6  C   UNL     1      -2.062  -1.247  25.269  0.00  0.00    +0.139 A 
ATOM     26  C   UNL     1      -2.849  -1.247  25.518  0.00  0.00    +0.040 A 
ATOM     27  C   UNL     1      -3.370  -1.820  25.236  0.00  0.00    +0.040 A 
BRANCH   3   2
ATOM      1  C   UNL     1      -4.221  -2.758  23.889  0.00  0.00    +0.252 C 
ATOM      2  O   UNL     1      -3.626  -2.967  24.423  0.00  0.00    -0.471 OA
ENDBRANCH   3   2
ENDBRANCH   7   6
ENDBRANCH   8   7
TORSDOF 6
ENDMDL
MODEL 4
REMARK VINA RESULT:     -10.3      1.159      4.785
REMARK  Name = 
REMARK  6 active torsions:
REMARK  status: ('A' for Active; 'I' for Inactive)
REMARK    1  A    between atoms: O_2  and  C_3
REMARK    2  A    between atoms: C_6  and  O_7
REMARK    3  A    between atoms: O_7  and  C_8
REMARK    4  A    between atoms: N_13  and  S_15
REMARK    5  A    between atoms: S_15  and  C_18
REMARK    6  A    between atoms: C_21  and  O_22
REMARK                            x       y       z     vdW  Elec       q    Type
REMARK                         _______ _______ _______ _____ _____    ______ ____
ROOT
ATOM      8  C   UNL     1      -4.184   1.055  24.392  0.00  0.00    +0.213 C 
ATOM      9  C   UNL     1      -4.960   0.926  24.641  0.00  0.00    +0.187 C 
ATOM     10  O   UNL     1      -5.441   1.414  25.100  0.00  0.00    -0.348 OA
ATOM     11  C   UNL     1      -5.265   2.152  25.424  0.00  0.00    +0.161 C 
ATOM     12  C   UNL     1      -4.565   2.584  25.368  0.00  0.00    +0.128 C 
ATOM     13  N   UNL     1      -3.867   2.385  24.975  0.00  0.00    -0.149 NA
ATOM     14  C   UNL     1      -3.698   1.704  24.541  0.00  0.00    +0.142 C 
ENDROOT
BRANCH  13  15
ATOM     15  S   UNL     1      -3.258   2.940  25.022  0.00  0.00    +0.063 S 
ATOM     16  O   UNL     1      -3.432   3.196  24.258  0.00  0.00    -0.153 OA
ATOM     17  O   UNL     1      -3.084   2.684  25.788  0.00  0.00    -0.153 OA
BRANCH  15  18
ATOM     18  C   UNL     1      -2.650   3.495  25.070  0.00  0.00    +0.122 A 
ATOM     19  C   UNL     1      -1.873   3.271  24.907  0.00  0.00    +0.023 A 
ATOM     20  C   UNL     1      -1.265   3.826  24.955  0.00  0.00    +0.038 A 
ATOM     21  C   UNL     1      -1.433   4.605  25.165  0.00  0.00    +0.139 A 
ATOM     24  C   UNL     1      -2.210   4.829  25.329  0.00  0.00    +0.038 A 
ATOM     25  C   UNL     1      -2.818   4.274  25.281  0.00  0.00    +0.023 A 
BRANCH  21  22
ATOM     22  O   UNL     1      -0.825   5.160  25.213  0.00  0.00    -0.471 OA
ATOM     23  C   UNL     1      -0.428   5.397  24.530  0.00  0.00    +0.252 C 
ENDBRANCH  21  22
ENDBRANCH  15  18
ENDBRANCH  13  15
BRANCH   8   7
ATOM      7  O   UNL     1      -3.851   0.456  23.933  0.00  0.00    -0.475 OA
BRANCH   7   6
ATOM      3  C   UNL     1      -3.587  -1.819  24.872  0.00  0.00    +0.139 A 
ATOM      4  C   UNL     1      -4.178  -1.667  24.317  0.00  0.00    +0.040 A 
ATOM      5  C   UNL     1      -4.266  -0.910  24.005  0.00  0.00    +0.040 A 
ATOM      6  C   UNL     1      -3.763  -0.303  24.246  0.00  0.00    +0.139 A 
ATOM     26  C   UNL     1      -3.171  -0.454  24.802  0.00  0.00    +0.040 A 
ATOM     27  C   UNL     1      -3.083  -1.212  25.114  0.00  0.00    +0.040 A 
BRANCH   3   2
ATOM      1  C   UNL     1      -3.283  -3.205  24.693  0.00  0.00    +0.252 C 
ATOM      2  O   UNL     1      -3.499  -2.578  25.185  0.00  0.00    -0.471 OA
ENDBRANCH   3   2
ENDBRANCH   7   6
ENDBRANCH   8   7
TORSDOF 6
ENDMDL
MODEL 5
REMARK VINA RESULT:     -10.3      2.087      3.069
REMARK  Name = 
REMARK  6 active torsions:
REMARK  status: ('A' for Active; 'I' for Inactive)
REMARK    1  A    between atoms: O_2  and  C_3
REMARK    2  A    between atoms: C_6  and  O_7
REMARK    3  A    between atoms: O_7  and  C_8
REMARK    4  A    between atoms: N_13  and  S_15
REMARK    5  A    between atoms: S_15  and  C_18
REMARK    6  A    between atoms: C_21  and  O_22
REMARK                            x       y       z     vdW  Elec       q    Type
REMARK                         _______ _______ _______ _____ _____    ______ ____
ROOT
ATOM      8  C   UNL     1      -0.308   1.596  25.192  0.00  0.00    +0.213 C 
ATOM      9  C   UNL     1       0.316   1.832  24.706  0.00  0.00    +0.187 C 
ATOM     10  O   UNL     1       0.620   1.454  24.039  0.00  0.00    -0.348 OA
ATOM     11  C   UNL     1       0.376   0.745  23.694  0.00  0.00    +0.161 C 
ATOM     12  C   UNL     1      -0.232   0.241  23.930  0.00  0.00    +0.128 C 
ATOM     13  N   UNL     1      -0.747   0.321  24.570  0.00  0.00    -0.149 NA
ATOM     14  C   UNL     1      -0.780   0.924  25.131  0.00  0.00    +0.142 C 
ENDROOT
BRANCH  13  15
ATOM     15  S   UNL     1      -1.302  -0.284  24.660  0.00  0.00    +0.063 S 
ATOM     16  O   UNL     1      -0.834  -0.627  25.245  0.00  0.00    -0.153 OA
ATOM     17  O   UNL     1      -1.771   0.060  24.074  0.00  0.00    -0.153 OA
BRANCH  15  18
ATOM     18  C   UNL     1      -1.857  -0.888  24.750  0.00  0.00    +0.122 A 
ATOM     19  C   UNL     1      -2.631  -0.708  24.971  0.00  0.00    +0.023 A 
ATOM     20  C   UNL     1      -3.185  -1.312  25.061  0.00  0.00    +0.038 A 
ATOM     21  C   UNL     1      -2.966  -2.096  24.930  0.00  0.00    +0.139 A 
ATOM     24  C   UNL     1      -2.192  -2.276  24.709  0.00  0.00    +0.038 A 
ATOM     25  C   UNL     1      -1.638  -1.672  24.619  0.00  0.00    +0.023 A 
BRANCH  21  22
ATOM     22  O   UNL     1      -3.521  -2.700  25.020  0.00  0.00    -0.471 OA
ATOM     23  C   UNL     1      -3.928  -2.988  24.362  0.00  0.00    +0.252 C 
ENDBRANCH  21  22
ENDBRANCH  15  18
ENDBRANCH  13  15
BRANCH   8   7
ATOM      7  O   UNL     1      -0.480   2.100  25.822  0.00  0.00    -0.475 OA
BRANCH   7   6
ATOM      3  C   UNL     1      -1.657   4.238  25.410  0.00  0.00    +0.139 A 
ATOM      4  C   UNL     1      -2.069   3.593  25.717  0.00  0.00    +0.040 A 
ATOM      5  C   UNL     1      -1.677   2.881  25.854  0.00  0.00    +0.040 A 
ATOM      6  C   UNL     1      -0.873   2.813  25.685  0.00  0.00    +0.139 A 
ATOM     26  C   UNL     1      -0.460   3.459  25.378  0.00  0.00    +0.040 A 
ATOM     27  C   UNL     1      -0.852   4.171  25.241  0.00  0.00    +0.040 A 
BRANCH   3   2
ATOM      1  C   UNL     1      -1.623   5.620  25.045  0.00  0.00    +0.252 C 
ATOM      2  O   UNL     1      -2.050   4.951  25.273  0.00  0.00    -0.471 OA
ENDBRANCH   3   2
ENDBRANCH   7   6
ENDBRANCH   8   7
TORSDOF 6
ENDMDL
MODEL 6
REMARK VINA RESULT:     -10.2      1.335      2.827
REMARK  Name = 
REMARK  6 active torsions:
REMARK  status: ('A' for Active; 'I' for Inactive)
REMARK    1  A    between atoms: O_2  and  C_3
REMARK    2  A    between atoms: C_6  and  O_7
REMARK    3  A    between atoms: O_7  and  C_8
REMARK    4  A    between atoms: N_13  and  S_15
REMARK    5  A    between atoms: S_15  and  C_18
REMARK    6  A    between atoms: C_21  and  O_22
REMARK                            x       y       z     vdW  Elec       q    Type
REMARK                         _______ _______ _______ _____ _____    ______ ____
ROOT
ATOM      8  C   UNL     1      -1.726   2.199  24.544  0.00  0.00    +0.213 C 
ATOM      9  C   UNL     1      -1.073   2.583  24.873  0.00  0.00    +0.187 C 
ATOM     10  O   UNL     1      -0.482   2.269  25.355  0.00  0.00    -0.348 OA
ATOM     11  C   UNL     1      -0.397   1.495  25.628  0.00  0.00    +0.161 C 
ATOM     12  C   UNL     1      -0.882   0.844  25.485  0.00  0.00    +0.128 C 
ATOM     13  N   UNL     1      -1.573   0.805  25.035  0.00  0.00    -0.149 NA
ATOM     14  C   UNL     1      -1.948   1.408  24.616  0.00  0.00    +0.142 C 
ENDROOT
BRANCH  13  15
ATOM     15  S   UNL     1      -1.936   0.065  24.999  0.00  0.00    +0.063 S 
ATOM     16  O   UNL     1      -2.213   0.164  25.769  0.00  0.00    -0.153 OA
ATOM     17  O   UNL     1      -1.657  -0.034  24.228  0.00  0.00    -0.153 OA
BRANCH  15  18
ATOM     18  C   UNL     1      -2.298  -0.675  24.964  0.00  0.00    +0.122 A 
ATOM     19  C   UNL     1      -3.077  -0.766  25.221  0.00  0.00    +0.023 A 
ATOM     20  C   UNL     1      -3.439  -1.506  25.185  0.00  0.00    +0.038 A 
ATOM     21  C   UNL     1      -3.024  -2.156  24.893  0.00  0.00    +0.139 A 
ATOM     24  C   UNL     1      -2.245  -2.065  24.635  0.00  0.00    +0.038 A 
ATOM     25  C   UNL     1      -1.883  -1.325  24.671  0.00  0.00    +0.023 A 
BRANCH  21  22
ATOM     22  O   UNL     1      -3.386  -2.895  24.857  0.00  0.00    -0.471 OA
ATOM     23  C   UNL     1      -3.874  -3.086  24.219  0.00  0.00    +0.252 C 
ENDBRANCH  21  22
ENDBRANCH  15  18
ENDBRANCH  13  15
BRANCH   8   7
ATOM      7  O   UNL     1      -2.221   2.670  24.082  0.00  0.00    -0.475 OA
BRANCH   7   6
ATOM      3  C   UNL     1      -4.306   3.593  25.045  0.00  0.00    +0.139 A 
ATOM      4  C   UNL     1      -3.574   3.834  25.338  0.00  0.00    +0.040 A 
ATOM      5  C   UNL     1      -2.880   3.527  25.017  0.00  0.00    +0.040 A 
ATOM      6  C   UNL     1      -2.916   2.977  24.403  0.00  0.00    +0.139 A 
ATOM     26  C   UNL     1      -3.649   2.736  24.109  0.00  0.00    +0.040 A 
ATOM     27  C   UNL     1      -4.343   3.043  24.430  0.00  0.00    +0.040 A 
BRANCH   3   2
ATOM      1  C   UNL     1      -5.568   3.393  25.688  0.00  0.00    +0.252 C 
ATOM      2  O   UNL     1      -5.001   3.901  25.366  0.00  0.00    -0.471 OA
ENDBRANCH   3   2
ENDBRANCH   7   6
ENDBRANCH   8   7
TORSDOF 6
ENDMDL
MODEL 7
REMARK VINA RESULT:     -10.1      1.882      4.008
REMARK  Name = 
REMARK  6 active torsions:
REMARK  status: ('A' for Active; 'I' for Inactive)
REMARK    1  A    between atoms: O_2  and  C_3
REMARK    2  A    between atoms: C_6  and  O_7
REMARK    3  A    between atoms: O_7  and  C_8
REMARK    4  A    between atoms: N_13  and  S_15
REMARK    5  A    between atoms: S_15  and  C_18
REMARK    6  A    between atoms: C_21  and  O_22
REMARK                            x       y       z     vdW  Elec       q    Type
REMARK                         _______ _______ _______ _____ _____    ______ ____
ROOT
ATOM      8  C   UNL     1      -2.759  -1.190  24.959  0.00  0.00    +0.213 C 
ATOM      9  C   UNL     1      -2.907  -1.901  24.568  0.00  0.00    +0.187 C 
ATOM     10  O   UNL     1      -3.566  -2.114  24.120  0.00  0.00    -0.348 OA
ATOM     11  C   UNL     1      -4.240  -1.669  23.951  0.00  0.00    +0.161 C 
ATOM     12  C   UNL     1      -4.420  -0.900  24.190  0.00  0.00    +0.128 C 
ATOM     13  N   UNL     1      -3.972  -0.387  24.655  0.00  0.00    -0.149 NA
ATOM     14  C   UNL     1      -3.233  -0.517  24.997  0.00  0.00    +0.142 C 
ENDROOT
BRANCH  13  15
ATOM     15  S   UNL     1      -4.308   0.353  24.798  0.00  0.00    +0.063 S 
ATOM     16  O   UNL     1      -4.516   0.113  25.558  0.00  0.00    -0.153 OA
ATOM     17  O   UNL     1      -4.100   0.594  24.036  0.00  0.00    -0.153 OA
BRANCH  15  18
ATOM     18  C   UNL     1      -4.644   1.093  24.940  0.00  0.00    +0.122 A 
ATOM     19  C   UNL     1      -5.388   1.147  25.294  0.00  0.00    +0.023 A 
ATOM     20  C   UNL     1      -5.723   1.887  25.436  0.00  0.00    +0.038 A 
ATOM     21  C   UNL     1      -5.317   2.573  25.225  0.00  0.00    +0.139 A 
ATOM     24  C   UNL     1      -4.573   2.518  24.871  0.00  0.00    +0.038 A 
ATOM     25  C   UNL     1      -4.237   1.779  24.729  0.00  0.00    +0.023 A 
BRANCH  21  22
ATOM     22  O   UNL     1      -5.653   3.312  25.367  0.00  0.00    -0.471 OA
ATOM     23  C   UNL     1      -5.169   3.961  25.527  0.00  0.00    +0.252 C 
ENDBRANCH  21  22
ENDBRANCH  15  18
ENDBRANCH  13  15
BRANCH   8   7
ATOM      7  O   UNL     1      -2.042  -1.148  25.364  0.00  0.00    -0.475 OA
BRANCH   7   6
ATOM      3  C   UNL     1       0.031  -0.544  24.154  0.00  0.00    +0.139 A 
ATOM      4  C   UNL     1      -0.391   0.034  24.563  0.00  0.00    +0.040 A 
ATOM      5  C   UNL     1      -1.081  -0.167  24.966  0.00  0.00    +0.040 A 
ATOM      6  C   UNL     1      -1.351  -0.946  24.961  0.00  0.00    +0.139 A 
ATOM     26  C   UNL     1      -0.928  -1.525  24.551  0.00  0.00    +0.040 A 
ATOM     27  C   UNL     1      -0.238  -1.325  24.148  0.00  0.00    +0.040 A 
BRANCH   3   2
ATOM      1  C   UNL     1       0.679   0.078  23.041  0.00  0.00    +0.252 C 
ATOM      2  O   UNL     1       0.722  -0.343  23.751  0.00  0.00    -0.471 OA
ENDBRANCH   3   2
ENDBRANCH   7   6
ENDBRANCH   8   7
TORSDOF 6
ENDMDL
