MODEL 1
REMARK VINA RESULT:     -13.7      0.000      0.000
REMARK  Name = 
REMARK  2 active torsions:
REMARK  status: ('A' for Active; 'I' for Inactive)
REMARK    1  A    between atoms: C_5  and  C_8
REMARK    2  A    between atoms: N_16  and  C_17
REMARK                            x       y       z     vdW  Elec       q    Type
REMARK                         _______ _______ _______ _____ _____    ______ ____
ROOT
ATOM      8  C   UNL     1      -4.014  -0.007  24.727  0.00  0.00    +0.249 C 
ATOM      9  O   UNL     1      -4.780   0.292  24.661  0.00  0.00    -0.270 OA
ATOM     10  N   UNL     1      -3.373   0.510  24.793  0.00  0.00    -0.273 N 
ATOM     11  C   UNL     1      -2.607   0.212  24.859  0.00  0.00    +0.115 C 
ATOM     12  C   UNL     1      -1.968   0.728  24.925  0.00  0.00    +0.116 C 
ATOM     13  N   UNL     1      -2.094   1.544  24.926  0.00  0.00    -0.261 N 
ATOM     14  C   UNL     1      -2.860   1.842  24.860  0.00  0.00    +0.116 C 
ATOM     15  C   UNL     1      -2.815   2.665  24.877  0.00  0.00    +0.116 C 
ATOM     16  N   UNL     1      -2.021   2.876  24.953  0.00  0.00    -0.264 N 
ATOM     23  C   UNL     1      -1.576   2.182  24.983  0.00  0.00    +0.307 C 
ATOM     24  O   UNL     1      -0.755   2.136  25.057  0.00  0.00    -0.252 OA
ATOM     25  C   UNL     1      -3.500   1.325  24.794  0.00  0.00    +0.115 C 
ENDROOT
BRANCH   8   5
ATOM      1  F   UNL     1      -3.506  -3.267  24.721  0.00  0.00    -0.204 F 
ATOM      2  C   UNL     1      -3.633  -2.452  24.723  0.00  0.00    +0.140 A 
ATOM      3  C   UNL     1      -3.565  -2.025  25.425  0.00  0.00    +0.030 A 
ATOM      4  C   UNL     1      -3.692  -1.210  25.428  0.00  0.00    +0.007 A 
ATOM      5  C   UNL     1      -3.887  -0.822  24.726  0.00  0.00    +0.054 A 
ATOM      6  C   UNL     1      -3.954  -1.249  24.023  0.00  0.00    +0.007 A 
ATOM      7  C   UNL     1      -3.827  -2.064  24.022  0.00  0.00    +0.030 A 
ENDBRANCH   8   5
BRANCH  16  17
ATOM     17  C   UNL     1      -1.725   3.645  24.991  0.00  0.00    +0.077 C 
ATOM     18  C   UNL     1      -2.136   4.225  25.411  0.00  0.00    +0.020 C 
ATOM     19  C   UNL     1      -1.839   4.994  25.450  0.00  0.00    +0.002 C 
ATOM     20  C   UNL     1      -1.132   5.183  25.069  0.00  0.00    +0.000 C 
ATOM     21  C   UNL     1      -0.722   4.604  24.649  0.00  0.00    +0.002 C 
ATOM     22  C   UNL     1      -1.018   3.835  24.611  0.00  0.00    +0.020 C 
ENDBRANCH  16  17
TORSDOF 2
ENDMDL
MODEL 2
REMARK VINA RESULT:     -13.7      2.058      5.377
REMARK  Name = 
REMARK  2 active torsions:
REMARK  status: ('A' for Active; 'I' for Inactive)
REMARK    1  A    between atoms: C_5  and  C_8
REMARK    2  A    between atoms: N_16  and  C_17
REMARK                            x       y       z     vdW  Elec       q    Type
REMARK                         _______ _______ _______ _____ _____    ______ ____
ROOT
ATOM      8  C   UNL     1      -1.047   2.662  25.721  0.00  0.00    +0.249 C 
ATOM      9  O   UNL     1      -0.473   2.464  26.279  0.00  0.00    -0.270 OA
ATOM     10  N   UNL     1      -1.513   2.072  25.381  0.00  0.00    -0.273 N 
ATOM     11  C   UNL     1      -2.088   2.270  24.823  0.00  0.00    +0.115 C 
ATOM     12  C   UNL     1      -2.553   1.680  24.484  0.00  0.00    +0.116 C 
ATOM     13  N   UNL     1      -2.445   0.891  24.702  0.00  0.00    -0.261 N 
ATOM     14  C   UNL     1      -1.871   0.693  25.260  0.00  0.00    +0.116 C 
ATOM     15  C   UNL     1      -1.889  -0.124  25.366  0.00  0.00    +0.116 C 
ATOM     16  N   UNL     1      -2.475  -0.432  24.874  0.00  0.00    -0.264 N 
ATOM     23  C   UNL     1      -2.818   0.196  24.464  0.00  0.00    +0.307 C 
ATOM     24  O   UNL     1      -3.428   0.138  23.911  0.00  0.00    -0.252 OA
ATOM     25  C   UNL     1      -1.404   1.284  25.600  0.00  0.00    +0.115 C 
ENDROOT
BRANCH   8   5
ATOM      1  F   UNL     1      -1.481   5.814  24.843  0.00  0.00    -0.204 F 
ATOM      2  C   UNL     1      -1.373   5.026  25.063  0.00  0.00    +0.140 A 
ATOM      3  C   UNL     1      -1.894   4.670  25.594  0.00  0.00    +0.030 A 
ATOM      4  C   UNL     1      -1.786   3.882  25.814  0.00  0.00    +0.007 A 
ATOM      5  C   UNL     1      -1.156   3.450  25.502  0.00  0.00    +0.054 A 
ATOM      6  C   UNL     1      -0.634   3.806  24.970  0.00  0.00    +0.007 A 
ATOM      7  C   UNL     1      -0.744   4.594  24.751  0.00  0.00    +0.030 A 
ENDBRANCH   8   5
BRANCH  16  17
ATOM     17  C   UNL     1      -2.681  -1.228  24.804  0.00  0.00    +0.077 C 
ATOM     18  C   UNL     1      -2.183  -1.749  24.402  0.00  0.00    +0.020 C 
ATOM     19  C   UNL     1      -2.390  -2.545  24.332  0.00  0.00    +0.002 C 
ATOM     20  C   UNL     1      -3.094  -2.819  24.664  0.00  0.00    +0.000 C 
ATOM     21  C   UNL     1      -3.591  -2.298  25.066  0.00  0.00    +0.002 C 
ATOM     22  C   UNL     1      -3.384  -1.503  25.136  0.00  0.00    +0.020 C 
ENDBRANCH  16  17
TORSDOF 2
ENDMDL
