MODEL 1
REMARK VINA RESULT:     -11.9      0.000      0.000
REMARK  Name = 
REMARK  6 active torsions:
REMARK  status: ('A' for Active; 'I' for Inactive)
REMARK    1  A    between atoms: O_2  and  C_3
REMARK    2  A    between atoms: C_3  and  C_5
REMARK    3  A    between atoms: C_5  and  N_7
REMARK    4  A    between atoms: C_8  and  C_10
REMARK    5  A    between atoms: C_16  and  C_18
REMARK    6  A    between atoms: C_24  and  C_26
REMARK                            x       y       z     vdW  Elec       q    Type
REMARK                         _______ _______ _______ _____ _____    ______ ____
ROOT
ATOM     10  C   UNL     1      -2.622   1.306  24.535  0.00  0.00    +0.174 C 
ATOM     11  C   UNL     1      -2.314   0.549  24.428  0.00  0.00    +0.123 C 
ATOM     12  N   UNL     1      -2.798  -0.112  24.528  0.00  0.00    -0.272 N 
ATOM     13  C   UNL     1      -3.591  -0.015  24.736  0.00  0.00    +0.115 C 
ATOM     14  C   UNL     1      -3.899   0.744  24.844  0.00  0.00    +0.115 C 
ATOM     15  N   UNL     1      -3.414   1.403  24.743  0.00  0.00    -0.270 N 
ATOM     16  C   UNL     1      -3.723   2.162  24.851  0.00  0.00    +0.226 C 
ATOM     17  O   UNL     1      -3.238   2.822  24.750  0.00  0.00    -0.275 OA
ATOM     24  C   UNL     1      -2.491  -0.869  24.421  0.00  0.00    +0.249 C 
ATOM     25  O   UNL     1      -1.697  -0.967  24.213  0.00  0.00    -0.270 OA
ENDROOT
BRANCH  24  26
ATOM     26  C   UNL     1      -2.975  -1.530  24.521  0.00  0.00    +0.056 A 
ATOM     27  C   UNL     1      -2.939  -1.966  25.220  0.00  0.00    +0.005 A 
ATOM     28  C   UNL     1      -3.422  -2.626  25.320  0.00  0.00    +0.002 A 
ATOM     29  C   UNL     1      -3.942  -2.851  24.721  0.00  0.00    +0.030 A 
ATOM     30  C   UNL     1      -3.979  -2.415  24.021  0.00  0.00    +0.140 A 
ATOM     31  F   UNL     1      -4.498  -2.640  23.422  0.00  0.00    -0.204 F 
ATOM     32  C   UNL     1      -3.495  -1.755  23.922  0.00  0.00    +0.034 A 
ENDBRANCH  24  26
BRANCH  16  18
ATOM     18  C   UNL     1      -4.514   2.259  25.059  0.00  0.00    +0.077 C 
ATOM     19  C   UNL     1      -4.713   2.518  25.817  0.00  0.00    +0.009 C 
ATOM     20  C   UNL     1      -5.505   2.615  26.025  0.00  0.00    +0.000 C 
ATOM     21  C   UNL     1      -6.099   2.454  25.475  0.00  0.00    +0.000 C 
ATOM     22  C   UNL     1      -5.901   2.196  24.718  0.00  0.00    +0.000 C 
ATOM     23  C   UNL     1      -5.108   2.099  24.510  0.00  0.00    +0.009 C 
ENDBRANCH  16  18
BRANCH  10   8
ATOM      7  N   UNL     1      -1.467   2.063  24.904  0.00  0.00    -0.194 NA
ATOM      8  C   UNL     1      -2.138   1.967  24.435  0.00  0.00    +0.262 C 
ATOM      9  O   UNL     1      -2.326   2.533  23.863  0.00  0.00    -0.271 OA
BRANCH   7   5
ATOM      5  C   UNL     1      -0.984   2.724  24.804  0.00  0.00    +0.194 C 
ATOM      6  C   UNL     1      -0.958   3.109  24.074  0.00  0.00    +0.035 C 
BRANCH   5   3
ATOM      3  C   UNL     1      -0.526   3.000  25.432  0.00  0.00    +0.337 C 
ATOM      4  O   UNL     1      -0.562   3.795  25.650  0.00  0.00    -0.248 OA
BRANCH   3   2
ATOM      1  C   UNL     1       0.276   2.699  26.575  0.00  0.00    +0.256 C 
ATOM      2  O   UNL     1      -0.032   2.482  25.842  0.00  0.00    -0.443 OA
ENDBRANCH   3   2
ENDBRANCH   5   3
ENDBRANCH   7   5
ENDBRANCH  10   8
TORSDOF 6
ENDMDL
MODEL 2
REMARK VINA RESULT:     -11.5      1.382      3.669
REMARK  Name = 
REMARK  6 active torsions:
REMARK  status: ('A' for Active; 'I' for Inactive)
REMARK    1  A    between atoms: O_2  and  C_3
REMARK    2  A    between atoms: C_3  and  C_5
REMARK    3  A    between atoms: C_5  and  N_7
REMARK    4  A    between atoms: C_8  and  C_10
REMARK    5  A    between atoms: C_16  and  C_18
REMARK    6  A    between atoms: C_24  and  C_26
REMARK                            x       y       z     vdW  Elec       q    Type
REMARK                         _______ _______ _______ _____ _____    ______ ____
ROOT
ATOM     10  C   UNL     1      -2.594   0.873  24.560  0.00  0.00    +0.174 C 
ATOM     11  C   UNL     1      -3.037   1.562  24.650  0.00  0.00    +0.123 C 
ATOM     12  N   UNL     1      -3.835   1.517  24.852  0.00  0.00    -0.272 N 
ATOM     13  C   UNL     1      -4.191   0.781  24.964  0.00  0.00    +0.115 C 
ATOM     14  C   UNL     1      -3.748   0.090  24.873  0.00  0.00    +0.115 C 
ATOM     15  N   UNL     1      -2.950   0.137  24.671  0.00  0.00    -0.270 N 
ATOM     16  C   UNL     1      -2.507  -0.554  24.581  0.00  0.00    +0.226 C 
ATOM     17  O   UNL     1      -1.708  -0.508  24.379  0.00  0.00    -0.275 OA
ATOM     24  C   UNL     1      -4.278   2.207  24.942  0.00  0.00    +0.249 C 
ATOM     25  O   UNL     1      -3.922   2.943  24.830  0.00  0.00    -0.270 OA
ENDROOT
BRANCH  24  26
ATOM     26  C   UNL     1      -5.077   2.162  25.144  0.00  0.00    +0.056 A 
ATOM     27  C   UNL     1      -5.643   2.022  24.562  0.00  0.00    +0.005 A 
ATOM     28  C   UNL     1      -6.441   1.977  24.764  0.00  0.00    +0.002 A 
ATOM     29  C   UNL     1      -6.673   2.072  25.550  0.00  0.00    +0.030 A 
ATOM     30  C   UNL     1      -6.107   2.212  26.134  0.00  0.00    +0.140 A 
ATOM     31  F   UNL     1      -6.339   2.307  26.919  0.00  0.00    -0.204 F 
ATOM     32  C   UNL     1      -5.309   2.257  25.930  0.00  0.00    +0.034 A 
ENDBRANCH  24  26
BRANCH  16  18
ATOM     18  C   UNL     1      -2.862  -1.289  24.693  0.00  0.00    +0.077 C 
ATOM     19  C   UNL     1      -2.815  -1.663  25.428  0.00  0.00    +0.009 C 
ATOM     20  C   UNL     1      -3.171  -2.399  25.539  0.00  0.00    +0.000 C 
ATOM     21  C   UNL     1      -3.573  -2.761  24.917  0.00  0.00    +0.000 C 
ATOM     22  C   UNL     1      -3.620  -2.388  24.183  0.00  0.00    +0.000 C 
ATOM     23  C   UNL     1      -3.264  -1.652  24.071  0.00  0.00    +0.009 C 
ENDBRANCH  16  18
BRANCH  10   8
ATOM      7  N   UNL     1      -1.270   1.332  24.839  0.00  0.00    -0.194 NA
ATOM      8  C   UNL     1      -1.795   0.918  24.357  0.00  0.00    +0.262 C 
ATOM      9  O   UNL     1      -1.522   0.547  23.672  0.00  0.00    -0.271 OA
BRANCH   7   5
ATOM      5  C   UNL     1      -0.471   1.377  24.637  0.00  0.00    +0.194 C 
ATOM      6  C   UNL     1      -0.193   0.984  23.966  0.00  0.00    +0.035 C 
BRANCH   5   3
ATOM      3  C   UNL     1       0.049   1.814  25.104  0.00  0.00    +0.337 C 
ATOM      4  O   UNL     1       0.740   2.122  24.775  0.00  0.00    -0.248 OA
BRANCH   3   2
ATOM      1  C   UNL     1       0.290   2.521  26.322  0.00  0.00    +0.256 C 
ATOM      2  O   UNL     1      -0.120   1.943  25.901  0.00  0.00    -0.443 OA
ENDBRANCH   3   2
ENDBRANCH   5   3
ENDBRANCH   7   5
ENDBRANCH  10   8
TORSDOF 6
ENDMDL
MODEL 3
REMARK VINA RESULT:     -11.4      1.337      3.217
REMARK  Name = 
REMARK  6 active torsions:
REMARK  status: ('A' for Active; 'I' for Inactive)
REMARK    1  A    between atoms: O_2  and  C_3
REMARK    2  A    between atoms: C_3  and  C_5
REMARK    3  A    between atoms: C_5  and  N_7
REMARK    4  A    between atoms: C_8  and  C_10
REMARK    5  A    between atoms: C_16  and  C_18
REMARK    6  A    between atoms: C_24  and  C_26
REMARK                            x       y       z     vdW  Elec       q    Type
REMARK                         _______ _______ _______ _____ _____    ______ ____
ROOT
ATOM     10  C   UNL     1      -3.278   1.412  24.341  0.00  0.00    +0.174 C 
ATOM     11  C   UNL     1      -3.816   0.790  24.404  0.00  0.00    +0.123 C 
ATOM     12  N   UNL     1      -3.546   0.022  24.535  0.00  0.00    -0.272 N 
ATOM     13  C   UNL     1      -2.738  -0.125  24.603  0.00  0.00    +0.115 C 
ATOM     14  C   UNL     1      -2.198   0.497  24.541  0.00  0.00    +0.115 C 
ATOM     15  N   UNL     1      -2.469   1.265  24.410  0.00  0.00    -0.270 N 
ATOM     16  C   UNL     1      -1.930   1.887  24.347  0.00  0.00    +0.226 C 
ATOM     17  O   UNL     1      -2.201   2.655  24.216  0.00  0.00    -0.275 OA
ATOM     24  C   UNL     1      -4.085  -0.600  24.598  0.00  0.00    +0.249 C 
ATOM     25  O   UNL     1      -4.895  -0.453  24.529  0.00  0.00    -0.270 OA
ENDROOT
BRANCH  24  26
ATOM     26  C   UNL     1      -3.815  -1.369  24.729  0.00  0.00    +0.056 A 
ATOM     27  C   UNL     1      -3.541  -1.588  25.475  0.00  0.00    +0.005 A 
ATOM     28  C   UNL     1      -3.272  -2.357  25.605  0.00  0.00    +0.002 A 
ATOM     29  C   UNL     1      -3.276  -2.905  24.989  0.00  0.00    +0.030 A 
ATOM     30  C   UNL     1      -3.551  -2.686  24.243  0.00  0.00    +0.140 A 
ATOM     31  F   UNL     1      -3.555  -3.234  23.628  0.00  0.00    -0.204 F 
ATOM     32  C   UNL     1      -3.820  -1.917  24.113  0.00  0.00    +0.034 A 
ENDBRANCH  24  26
BRANCH  16  18
ATOM     18  C   UNL     1      -1.122   1.741  24.415  0.00  0.00    +0.077 C 
ATOM     19  C   UNL     1      -0.732   1.897  25.126  0.00  0.00    +0.009 C 
ATOM     20  C   UNL     1       0.077   1.750  25.195  0.00  0.00    +0.000 C 
ATOM     21  C   UNL     1       0.496   1.447  24.552  0.00  0.00    +0.000 C 
ATOM     22  C   UNL     1       0.108   1.291  23.842  0.00  0.00    +0.000 C 
ATOM     23  C   UNL     1      -0.701   1.438  23.774  0.00  0.00    +0.009 C 
ENDBRANCH  16  18
BRANCH  10   8
ATOM      7  N   UNL     1      -4.011   2.558  24.778  0.00  0.00    -0.194 NA
ATOM      8  C   UNL     1      -3.548   2.180  24.210  0.00  0.00    +0.262 C 
ATOM      9  O   UNL     1      -3.353   2.572  23.509  0.00  0.00    -0.271 OA
BRANCH   7   5
ATOM      5  C   UNL     1      -4.280   3.327  24.647  0.00  0.00    +0.194 C 
ATOM      6  C   UNL     1      -4.158   3.688  23.914  0.00  0.00    +0.035 C 
BRANCH   5   3
ATOM      3  C   UNL     1      -4.672   3.735  25.246  0.00  0.00    +0.337 C 
ATOM      4  O   UNL     1      -4.243   4.196  25.780  0.00  0.00    -0.248 OA
BRANCH   3   2
ATOM      1  C   UNL     1      -5.906   4.235  25.767  0.00  0.00    +0.256 C 
ATOM      2  O   UNL     1      -5.493   3.683  25.314  0.00  0.00    -0.443 OA
ENDBRANCH   3   2
ENDBRANCH   5   3
ENDBRANCH   7   5
ENDBRANCH  10   8
TORSDOF 6
ENDMDL
MODEL 4
REMARK VINA RESULT:     -11.2      1.927      4.406
REMARK  Name = 
REMARK  6 active torsions:
REMARK  status: ('A' for Active; 'I' for Inactive)
REMARK    1  A    between atoms: O_2  and  C_3
REMARK    2  A    between atoms: C_3  and  C_5
REMARK    3  A    between atoms: C_5  and  N_7
REMARK    4  A    between atoms: C_8  and  C_10
REMARK    5  A    between atoms: C_16  and  C_18
REMARK    6  A    between atoms: C_24  and  C_26
REMARK                            x       y       z     vdW  Elec       q    Type
REMARK                         _______ _______ _______ _____ _____    ______ ____
ROOT
ATOM     10  C   UNL     1      -3.702   1.279  24.708  0.00  0.00    +0.174 C 
ATOM     11  C   UNL     1      -3.131   1.867  24.623  0.00  0.00    +0.123 C 
ATOM     12  N   UNL     1      -2.332   1.664  24.585  0.00  0.00    -0.272 N 
ATOM     13  C   UNL     1      -2.105   0.872  24.631  0.00  0.00    +0.115 C 
ATOM     14  C   UNL     1      -2.678   0.283  24.715  0.00  0.00    +0.115 C 
ATOM     15  N   UNL     1      -3.476   0.487  24.754  0.00  0.00    -0.270 N 
ATOM     16  C   UNL     1      -4.048  -0.102  24.839  0.00  0.00    +0.226 C 
ATOM     17  O   UNL     1      -4.846   0.102  24.877  0.00  0.00    -0.275 OA
ATOM     24  C   UNL     1      -1.760   2.252  24.500  0.00  0.00    +0.249 C 
ATOM     25  O   UNL     1      -1.987   3.045  24.454  0.00  0.00    -0.270 OA
ENDROOT
BRANCH  24  26
ATOM     26  C   UNL     1      -0.961   2.049  24.461  0.00  0.00    +0.056 A 
ATOM     27  C   UNL     1      -0.651   1.723  23.771  0.00  0.00    +0.005 A 
ATOM     28  C   UNL     1       0.147   1.520  23.732  0.00  0.00    +0.002 A 
ATOM     29  C   UNL     1       0.636   1.645  24.385  0.00  0.00    +0.030 A 
ATOM     30  C   UNL     1       0.326   1.971  25.077  0.00  0.00    +0.140 A 
ATOM     31  F   UNL     1       0.814   2.096  25.729  0.00  0.00    -0.204 F 
ATOM     32  C   UNL     1      -0.473   2.174  25.114  0.00  0.00    +0.034 A 
ENDBRANCH  24  26
BRANCH  16  18
ATOM     18  C   UNL     1      -3.822  -0.893  24.885  0.00  0.00    +0.077 C 
ATOM     19  C   UNL     1      -3.567  -1.209  25.604  0.00  0.00    +0.009 C 
ATOM     20  C   UNL     1      -3.340  -2.000  25.650  0.00  0.00    +0.000 C 
ATOM     21  C   UNL     1      -3.368  -2.477  24.977  0.00  0.00    +0.000 C 
ATOM     22  C   UNL     1      -3.622  -2.162  24.259  0.00  0.00    +0.000 C 
ATOM     23  C   UNL     1      -3.849  -1.370  24.213  0.00  0.00    +0.009 C 
ENDBRANCH  16  18
BRANCH  10   8
ATOM      7  N   UNL     1      -4.758   2.047  25.289  0.00  0.00    -0.194 NA
ATOM      8  C   UNL     1      -4.501   1.482  24.747  0.00  0.00    +0.262 C 
ATOM      9  O   UNL     1      -5.044   1.117  24.242  0.00  0.00    -0.271 OA
BRANCH   7   5
ATOM      5  C   UNL     1      -5.557   2.250  25.327  0.00  0.00    +0.194 C 
ATOM      6  C   UNL     1      -6.119   1.788  24.937  0.00  0.00    +0.035 C 
BRANCH   5   3
ATOM      3  C   UNL     1      -5.794   2.914  25.755  0.00  0.00    +0.337 C 
ATOM      4  O   UNL     1      -5.958   2.848  26.561  0.00  0.00    -0.248 OA
BRANCH   3   2
ATOM      1  C   UNL     1      -5.891   4.338  25.822  0.00  0.00    +0.256 C 
ATOM      2  O   UNL     1      -5.868   3.644  25.378  0.00  0.00    -0.443 OA
ENDBRANCH   3   2
ENDBRANCH   5   3
ENDBRANCH   7   5
ENDBRANCH  10   8
TORSDOF 6
ENDMDL
MODEL 5
REMARK VINA RESULT:     -11.1      2.267      4.286
REMARK  Name = 
REMARK  6 active torsions:
REMARK  status: ('A' for Active; 'I' for Inactive)
REMARK    1  A    between atoms: O_2  and  C_3
REMARK    2  A    between atoms: C_3  and  C_5
REMARK    3  A    between atoms: C_5  and  N_7
REMARK    4  A    between atoms: C_8  and  C_10
REMARK    5  A    between atoms: C_16  and  C_18
REMARK    6  A    between atoms: C_24  and  C_26
REMARK                            x       y       z     vdW  Elec       q    Type
REMARK                         _______ _______ _______ _____ _____    ______ ____
ROOT
ATOM     10  C   UNL     1      -1.345   0.482  24.433  0.00  0.00    +0.174 C 
ATOM     11  C   UNL     1      -1.355   1.306  24.451  0.00  0.00    +0.123 C 
ATOM     12  N   UNL     1      -2.069   1.708  24.550  0.00  0.00    -0.272 N 
ATOM     13  C   UNL     1      -2.772   1.285  24.631  0.00  0.00    +0.115 C 
ATOM     14  C   UNL     1      -2.762   0.460  24.613  0.00  0.00    +0.115 C 
ATOM     15  N   UNL     1      -2.048   0.059  24.514  0.00  0.00    -0.270 N 
ATOM     16  C   UNL     1      -2.038  -0.767  24.495  0.00  0.00    +0.226 C 
ATOM     17  O   UNL     1      -1.324  -1.167  24.396  0.00  0.00    -0.275 OA
ATOM     24  C   UNL     1      -2.079   2.532  24.568  0.00  0.00    +0.249 C 
ATOM     25  O   UNL     1      -1.375   2.956  24.487  0.00  0.00    -0.270 OA
ENDROOT
BRANCH  24  26
ATOM     26  C   UNL     1      -2.793   2.935  24.667  0.00  0.00    +0.056 A 
ATOM     27  C   UNL     1      -3.283   3.071  24.019  0.00  0.00    +0.005 A 
ATOM     28  C   UNL     1      -3.996   3.473  24.119  0.00  0.00    +0.002 A 
ATOM     29  C   UNL     1      -4.219   3.739  24.867  0.00  0.00    +0.030 A 
ATOM     30  C   UNL     1      -3.728   3.603  25.516  0.00  0.00    +0.140 A 
ATOM     31  F   UNL     1      -3.951   3.868  26.264  0.00  0.00    -0.204 F 
ATOM     32  C   UNL     1      -3.015   3.201  25.416  0.00  0.00    +0.034 A 
ENDBRANCH  24  26
BRANCH  16  18
ATOM     18  C   UNL     1      -2.741  -1.189  24.576  0.00  0.00    +0.077 C 
ATOM     19  C   UNL     1      -2.965  -1.481  25.315  0.00  0.00    +0.009 C 
ATOM     20  C   UNL     1      -3.668  -1.904  25.396  0.00  0.00    +0.000 C 
ATOM     21  C   UNL     1      -4.148  -2.036  24.738  0.00  0.00    +0.000 C 
ATOM     22  C   UNL     1      -3.925  -1.744  23.999  0.00  0.00    +0.000 C 
ATOM     23  C   UNL     1      -3.221  -1.321  23.919  0.00  0.00    +0.009 C 
ENDBRANCH  16  18
BRANCH  10   8
ATOM      7  N   UNL     1      -0.191   0.183  23.644  0.00  0.00    -0.194 NA
ATOM      8  C   UNL     1      -0.631   0.080  24.334  0.00  0.00    +0.262 C 
ATOM      9  O   UNL     1      -0.357  -0.427  24.926  0.00  0.00    -0.271 OA
BRANCH   7   5
ATOM      5  C   UNL     1       0.523  -0.219  23.545  0.00  0.00    +0.194 C 
ATOM      6  C   UNL     1       0.763  -0.777  24.105  0.00  0.00    +0.035 C 
BRANCH   5   3
ATOM      3  C   UNL     1       0.996  -0.065  22.888  0.00  0.00    +0.337 C 
ATOM      4  O   UNL     1       0.726  -0.254  22.132  0.00  0.00    -0.248 OA
BRANCH   3   2
ATOM      1  C   UNL     1       2.320   0.180  22.408  0.00  0.00    +0.256 C 
ATOM      2  O   UNL     1       1.740   0.278  22.986  0.00  0.00    -0.443 OA
ENDBRANCH   3   2
ENDBRANCH   5   3
ENDBRANCH   7   5
ENDBRANCH  10   8
TORSDOF 6
ENDMDL
MODEL 6
REMARK VINA RESULT:     -11.1      1.879      4.278
REMARK  Name = 
REMARK  6 active torsions:
REMARK  status: ('A' for Active; 'I' for Inactive)
REMARK    1  A    between atoms: O_2  and  C_3
REMARK    2  A    between atoms: C_3  and  C_5
REMARK    3  A    between atoms: C_5  and  N_7
REMARK    4  A    between atoms: C_8  and  C_10
REMARK    5  A    between atoms: C_16  and  C_18
REMARK    6  A    between atoms: C_24  and  C_26
REMARK                            x       y       z     vdW  Elec       q    Type
REMARK                         _______ _______ _______ _____ _____    ______ ____
ROOT
ATOM     10  C   UNL     1      -3.082   0.560  24.534  0.00  0.00    +0.174 C 
ATOM     11  C   UNL     1      -2.258   0.570  24.563  0.00  0.00    +0.123 C 
ATOM     12  N   UNL     1      -1.863   1.240  24.839  0.00  0.00    -0.272 N 
ATOM     13  C   UNL     1      -2.292   1.899  25.086  0.00  0.00    +0.115 C 
ATOM     14  C   UNL     1      -3.117   1.889  25.057  0.00  0.00    +0.115 C 
ATOM     15  N   UNL     1      -3.512   1.219  24.781  0.00  0.00    -0.270 N 
ATOM     16  C   UNL     1      -4.337   1.209  24.753  0.00  0.00    +0.226 C 
ATOM     17  O   UNL     1      -4.731   0.539  24.477  0.00  0.00    -0.275 OA
ATOM     24  C   UNL     1      -1.039   1.250  24.867  0.00  0.00    +0.249 C 
ATOM     25  O   UNL     1      -0.609   0.590  24.620  0.00  0.00    -0.270 OA
ENDROOT
BRANCH  24  26
ATOM     26  C   UNL     1      -0.643   1.920  25.143  0.00  0.00    +0.056 A 
ATOM     27  C   UNL     1      -0.513   2.559  24.639  0.00  0.00    +0.005 A 
ATOM     28  C   UNL     1      -0.118   3.228  24.915  0.00  0.00    +0.002 A 
ATOM     29  C   UNL     1       0.148   3.257  25.695  0.00  0.00    +0.030 A 
ATOM     30  C   UNL     1       0.018   2.618  26.200  0.00  0.00    +0.140 A 
ATOM     31  F   UNL     1       0.284   2.647  26.980  0.00  0.00    -0.204 F 
ATOM     32  C   UNL     1      -0.377   1.949  25.923  0.00  0.00    +0.034 A 
ENDBRANCH  24  26
BRANCH  16  18
ATOM     18  C   UNL     1      -4.766   1.868  25.000  0.00  0.00    +0.077 C 
ATOM     19  C   UNL     1      -5.189   1.844  25.708  0.00  0.00    +0.009 C 
ATOM     20  C   UNL     1      -5.618   2.503  25.955  0.00  0.00    +0.000 C 
ATOM     21  C   UNL     1      -5.625   3.187  25.494  0.00  0.00    +0.000 C 
ATOM     22  C   UNL     1      -5.202   3.212  24.786  0.00  0.00    +0.000 C 
ATOM     23  C   UNL     1      -4.773   2.552  24.539  0.00  0.00    +0.009 C 
ENDBRANCH  16  18
BRANCH  10   8
ATOM      7  N   UNL     1      -3.405  -0.827  24.659  0.00  0.00    -0.194 NA
ATOM      8  C   UNL     1      -3.478  -0.110  24.259  0.00  0.00    +0.262 C 
ATOM      9  O   UNL     1      -3.947  -0.062  23.580  0.00  0.00    -0.271 OA
BRANCH   7   5
ATOM      5  C   UNL     1      -3.801  -1.496  24.384  0.00  0.00    +0.194 C 
ATOM      6  C   UNL     1      -4.353  -1.427  23.774  0.00  0.00    +0.035 C 
BRANCH   5   3
ATOM      3  C   UNL     1      -3.645  -2.234  24.716  0.00  0.00    +0.337 C 
ATOM      4  O   UNL     1      -3.653  -2.327  25.536  0.00  0.00    -0.248 OA
BRANCH   3   2
ATOM      1  C   UNL     1      -3.244  -3.597  24.562  0.00  0.00    +0.256 C 
ATOM      2  O   UNL     1      -3.481  -2.881  24.230  0.00  0.00    -0.443 OA
ENDBRANCH   3   2
ENDBRANCH   5   3
ENDBRANCH   7   5
ENDBRANCH  10   8
TORSDOF 6
ENDMDL
MODEL 7
REMARK VINA RESULT:     -10.8      1.860      3.458
REMARK  Name = 
REMARK  6 active torsions:
REMARK  status: ('A' for Active; 'I' for Inactive)
REMARK    1  A    between atoms: O_2  and  C_3
REMARK    2  A    between atoms: C_3  and  C_5
REMARK    3  A    between atoms: C_5  and  N_7
REMARK    4  A    between atoms: C_8  and  C_10
REMARK    5  A    between atoms: C_16  and  C_18
REMARK    6  A    between atoms: C_24  and  C_26
REMARK                            x       y       z     vdW  Elec       q    Type
REMARK                         _______ _______ _______ _____ _____    ______ ____
ROOT
ATOM     10  C   UNL     1      -1.629   0.945  25.107  0.00  0.00    +0.174 C 
ATOM     11  C   UNL     1      -2.373   0.639  25.287  0.00  0.00    +0.123 C 
ATOM     12  N   UNL     1      -2.622  -0.072  24.948  0.00  0.00    -0.272 N 
ATOM     13  C   UNL     1      -2.125  -0.476  24.428  0.00  0.00    +0.115 C 
ATOM     14  C   UNL     1      -1.380  -0.170  24.247  0.00  0.00    +0.115 C 
ATOM     15  N   UNL     1      -1.133   0.541  24.587  0.00  0.00    -0.270 N 
ATOM     16  C   UNL     1      -0.387   0.847  24.405  0.00  0.00    +0.226 C 
ATOM     17  O   UNL     1      -0.140   1.557  24.745  0.00  0.00    -0.275 OA
ATOM     24  C   UNL     1      -3.365  -0.377  25.129  0.00  0.00    +0.249 C 
ATOM     25  O   UNL     1      -3.863   0.027  25.650  0.00  0.00    -0.270 OA
ENDROOT
BRANCH  24  26
ATOM     26  C   UNL     1      -3.614  -1.088  24.790  0.00  0.00    +0.056 A 
ATOM     27  C   UNL     1      -4.040  -1.082  24.085  0.00  0.00    +0.005 A 
ATOM     28  C   UNL     1      -4.288  -1.792  23.747  0.00  0.00    +0.002 A 
ATOM     29  C   UNL     1      -4.109  -2.508  24.115  0.00  0.00    +0.030 A 
ATOM     30  C   UNL     1      -3.683  -2.515  24.821  0.00  0.00    +0.140 A 
ATOM     31  F   UNL     1      -3.504  -3.231  25.188  0.00  0.00    -0.204 F 
ATOM     32  C   UNL     1      -3.435  -1.804  25.158  0.00  0.00    +0.034 A 
ENDBRANCH  24  26
BRANCH  16  18
ATOM     18  C   UNL     1       0.109   0.443  23.886  0.00  0.00    +0.077 C 
ATOM     19  C   UNL     1       0.219   0.724  23.118  0.00  0.00    +0.009 C 
ATOM     20  C   UNL     1       0.716   0.320  22.598  0.00  0.00    +0.000 C 
ATOM     21  C   UNL     1       1.102  -0.365  22.846  0.00  0.00    +0.000 C 
ATOM     22  C   UNL     1       0.992  -0.647  23.613  0.00  0.00    +0.000 C 
ATOM     23  C   UNL     1       0.496  -0.242  24.133  0.00  0.00    +0.009 C 
ENDBRANCH  16  18
BRANCH  10   8
ATOM      7  N   UNL     1      -1.772   2.358  25.265  0.00  0.00    -0.194 NA
ATOM      8  C   UNL     1      -1.381   1.655  25.445  0.00  0.00    +0.262 C 
ATOM      9  O   UNL     1      -0.740   1.662  25.966  0.00  0.00    -0.271 OA
BRANCH   7   5
ATOM      5  C   UNL     1      -1.524   3.068  25.603  0.00  0.00    +0.194 C 
ATOM      6  C   UNL     1      -1.073   3.059  26.296  0.00  0.00    +0.035 C 
BRANCH   5   3
ATOM      3  C   UNL     1      -1.725   3.786  25.252  0.00  0.00    +0.337 C 
ATOM      4  O   UNL     1      -2.497   3.914  24.989  0.00  0.00    -0.248 OA
BRANCH   3   2
ATOM      1  C   UNL     1      -1.385   5.147  24.981  0.00  0.00    +0.256 C 
ATOM      2  O   UNL     1      -1.156   4.376  25.162  0.00  0.00    -0.443 OA
ENDBRANCH   3   2
ENDBRANCH   5   3
ENDBRANCH   7   5
ENDBRANCH  10   8
TORSDOF 6
ENDMDL
