MODEL 1
REMARK VINA RESULT:      -7.9      0.000      0.000
REMARK  Name = 
REMARK  5 active torsions:
REMARK  status: ('A' for Active; 'I' for Inactive)
REMARK    1  A    between atoms: C_2  and  C_31
REMARK    2  A    between atoms: N_3  and  C_4
REMARK    3  A    between atoms: C_8  and  N_12
REMARK    4  A    between atoms: C_15  and  C_19
REMARK    5  A    between atoms: C_22  and  C_25
REMARK                            x       y       z     vdW  Elec       q    Type
REMARK                         _______ _______ _______ _____ _____    ______ ____
ROOT
ATOM     12  N   UNL     1      -0.024   0.614  23.267  0.00  0.00    -0.200 NA
ATOM     13  C   UNL     1      -0.523   0.352  23.871  0.00  0.00    +0.237 A 
ATOM     14  N   UNL     1      -1.266   0.695  23.970  0.00  0.00    -0.212 NA
ATOM     15  C   UNL     1      -1.764   0.434  24.574  0.00  0.00    +0.086 A 
ATOM     16  C   UNL     1      -1.519  -0.172  25.077  0.00  0.00    +0.040 A 
ATOM     17  C   UNL     1      -0.775  -0.516  24.978  0.00  0.00    +0.103 A 
ATOM     18  N   UNL     1      -0.278  -0.253  24.374  0.00  0.00    -0.211 NA
ENDROOT
BRANCH  12   8
ATOM      4  C   UNL     1       2.760   0.514  23.029  0.00  0.00    +0.155 C 
ATOM      5  C   UNL     1       2.607   1.318  23.133  0.00  0.00    +0.166 C 
ATOM      6  O   UNL     1       1.792   1.415  23.210  0.00  0.00    -0.350 OA
ATOM      7  C   UNL     1       1.440   0.671  23.155  0.00  0.00    +0.166 C 
ATOM      8  C   UNL     1       0.719   0.270  23.168  0.00  0.00    +0.154 C 
ATOM      9  C   UNL     1       0.872  -0.534  23.064  0.00  0.00    +0.166 C 
ATOM     10  O   UNL     1       1.687  -0.630  22.987  0.00  0.00    -0.350 OA
ATOM     11  C   UNL     1       2.039   0.115  23.043  0.00  0.00    +0.166 C 
BRANCH   4   3
ATOM      1  O   UNL     1       4.084   1.188  23.748  0.00  0.00    -0.268 OA
ATOM      2  C   UNL     1       4.165   0.507  23.289  0.00  0.00    +0.271 C 
ATOM      3  N   UNL     1       3.503   0.171  22.930  0.00  0.00    -0.198 NA
BRANCH   2  31
ATOM     31  C   UNL     1       4.909   0.164  23.190  0.00  0.00    +0.084 A 
ATOM     32  C   UNL     1       5.310   0.075  22.474  0.00  0.00    +0.012 A 
ATOM     33  C   UNL     1       6.031  -0.295  22.630  0.00  0.00    +0.008 A 
ATOM     34  C   UNL     1       6.075  -0.435  23.443  0.00  0.00    +0.036 A 
ATOM     35  S   UNL     1       5.381  -0.152  23.788  0.00  0.00    -0.082 S 
ENDBRANCH   2  31
ENDBRANCH   4   3
ENDBRANCH  12   8
BRANCH  15  19
ATOM     19  C   UNL     1      -2.507   0.777  24.673  0.00  0.00    +0.018 A 
ATOM     20  C   UNL     1      -2.571   1.538  24.988  0.00  0.00    +0.001 A 
ATOM     21  C   UNL     1      -3.314   1.881  25.088  0.00  0.00    +0.000 A 
ATOM     22  C   UNL     1      -3.994   1.465  24.874  0.00  0.00    +0.000 A 
ATOM     23  C   UNL     1      -3.930   0.705  24.559  0.00  0.00    +0.000 A 
ATOM     24  C   UNL     1      -3.186   0.361  24.459  0.00  0.00    +0.001 A 
BRANCH  22  25
ATOM     25  C   UNL     1      -4.737   1.808  24.973  0.00  0.00    +0.000 A 
ATOM     26  C   UNL     1      -5.412   1.335  24.978  0.00  0.00    +0.000 A 
ATOM     27  C   UNL     1      -6.156   1.678  25.078  0.00  0.00    +0.000 A 
ATOM     28  C   UNL     1      -6.224   2.495  25.173  0.00  0.00    +0.000 A 
ATOM     29  C   UNL     1      -5.548   2.968  25.168  0.00  0.00    +0.000 A 
ATOM     30  C   UNL     1      -4.805   2.625  25.069  0.00  0.00    +0.000 A 
ENDBRANCH  22  25
ENDBRANCH  15  19
TORSDOF 5
ENDMDL
MODEL 2
REMARK VINA RESULT:      -6.7     16.371     17.272
REMARK  Name = 
REMARK  5 active torsions:
REMARK  status: ('A' for Active; 'I' for Inactive)
REMARK    1  A    between atoms: C_2  and  C_31
REMARK    2  A    between atoms: N_3  and  C_4
REMARK    3  A    between atoms: C_8  and  N_12
REMARK    4  A    between atoms: C_15  and  C_19
REMARK    5  A    between atoms: C_22  and  C_25
REMARK                            x       y       z     vdW  Elec       q    Type
REMARK                         _______ _______ _______ _____ _____    ______ ____
ROOT
ATOM     12  N   UNL     1      -5.223 -10.328  11.797  0.00  0.00    -0.200 NA
ATOM     13  C   UNL     1      -5.409  -9.694  11.302  0.00  0.00    +0.237 A 
ATOM     14  N   UNL     1      -6.139  -9.670  10.920  0.00  0.00    -0.212 NA
ATOM     15  C   UNL     1      -6.326  -9.037  10.425  0.00  0.00    +0.086 A 
ATOM     16  C   UNL     1      -5.782  -8.427  10.313  0.00  0.00    +0.040 A 
ATOM     17  C   UNL     1      -5.051  -8.451  10.696  0.00  0.00    +0.103 A 
ATOM     18  N   UNL     1      -4.865  -9.085  11.191  0.00  0.00    -0.211 NA
ENDROOT
BRANCH  12   8
ATOM      4  C   UNL     1      -3.441 -10.517  13.943  0.00  0.00    +0.155 C 
ATOM      5  C   UNL     1      -4.180 -10.574  14.305  0.00  0.00    +0.166 C 
ATOM      6  O   UNL     1      -4.756 -10.524  13.717  0.00  0.00    -0.350 OA
ATOM      7  C   UNL     1      -4.374 -10.437  12.992  0.00  0.00    +0.166 C 
ATOM      8  C   UNL     1      -4.492 -10.352  12.180  0.00  0.00    +0.154 C 
ATOM      9  C   UNL     1      -3.753 -10.295  11.818  0.00  0.00    +0.166 C 
ATOM     10  O   UNL     1      -3.177 -10.344  12.406  0.00  0.00    -0.350 OA
ATOM     11  C   UNL     1      -3.561 -10.432  13.132  0.00  0.00    +0.166 C 
BRANCH   4   3
ATOM      1  O   UNL     1      -3.370 -10.453  15.591  0.00  0.00    -0.268 OA
ATOM      2  C   UNL     1      -2.675 -10.509  15.150  0.00  0.00    +0.271 C 
ATOM      3  N   UNL     1      -2.710 -10.541  14.326  0.00  0.00    -0.198 NA
BRANCH   2  31
ATOM     31  C   UNL     1      -1.944 -10.533  15.533  0.00  0.00    +0.084 A 
ATOM     32  C   UNL     1      -1.219 -10.312  15.207  0.00  0.00    +0.012 A 
ATOM     33  C   UNL     1      -0.637 -10.424  15.782  0.00  0.00    +0.008 A 
ATOM     34  C   UNL     1      -1.003 -10.714  16.462  0.00  0.00    +0.036 A 
ATOM     35  S   UNL     1      -1.811 -10.781  16.309  0.00  0.00    -0.082 S 
ENDBRANCH   2  31
ENDBRANCH   4   3
ENDBRANCH  12   8
BRANCH  15  19
ATOM     19  C   UNL     1      -7.056  -9.013  10.042  0.00  0.00    +0.018 A 
ATOM     20  C   UNL     1      -7.096  -9.116   9.223  0.00  0.00    +0.001 A 
ATOM     21  C   UNL     1      -7.826  -9.092   8.841  0.00  0.00    +0.000 A 
ATOM     22  C   UNL     1      -8.516  -8.965   9.275  0.00  0.00    +0.000 A 
ATOM     23  C   UNL     1      -8.476  -8.863  10.092  0.00  0.00    +0.000 A 
ATOM     24  C   UNL     1      -7.745  -8.887  10.476  0.00  0.00    +0.001 A 
BRANCH  22  25
ATOM     25  C   UNL     1      -9.246  -8.941   8.892  0.00  0.00    +0.000 A 
ATOM     26  C   UNL     1      -9.574  -8.216   8.676  0.00  0.00    +0.000 A 
ATOM     27  C   UNL     1     -10.305  -8.192   8.292  0.00  0.00    +0.000 A 
ATOM     28  C   UNL     1     -10.706  -8.893   8.126  0.00  0.00    +0.000 A 
ATOM     29  C   UNL     1     -10.378  -9.618   8.343  0.00  0.00    +0.000 A 
ATOM     30  C   UNL     1      -9.648  -9.642   8.725  0.00  0.00    +0.000 A 
ENDBRANCH  22  25
ENDBRANCH  15  19
TORSDOF 5
ENDMDL
MODEL 3
REMARK VINA RESULT:      -6.0      2.498      7.782
REMARK  Name = 
REMARK  5 active torsions:
REMARK  status: ('A' for Active; 'I' for Inactive)
REMARK    1  A    between atoms: C_2  and  C_31
REMARK    2  A    between atoms: N_3  and  C_4
REMARK    3  A    between atoms: C_8  and  N_12
REMARK    4  A    between atoms: C_15  and  C_19
REMARK    5  A    between atoms: C_22  and  C_25
REMARK                            x       y       z     vdW  Elec       q    Type
REMARK                         _______ _______ _______ _____ _____    ______ ____
ROOT
ATOM     12  N   UNL     1      -0.175   0.786  24.423  0.00  0.00    -0.200 NA
ATOM     13  C   UNL     1       0.247   0.485  23.781  0.00  0.00    +0.237 A 
ATOM     14  N   UNL     1       1.071   0.473  23.798  0.00  0.00    -0.212 NA
ATOM     15  C   UNL     1       1.493   0.172  23.155  0.00  0.00    +0.086 A 
ATOM     16  C   UNL     1       1.090  -0.117  22.497  0.00  0.00    +0.040 A 
ATOM     17  C   UNL     1       0.265  -0.106  22.480  0.00  0.00    +0.103 A 
ATOM     18  N   UNL     1      -0.156   0.196  23.122  0.00  0.00    -0.211 NA
ENDROOT
BRANCH  12   8
ATOM      4  C   UNL     1      -2.744   1.862  24.667  0.00  0.00    +0.155 C 
ATOM      5  C   UNL     1      -2.254   2.496  24.860  0.00  0.00    +0.166 C 
ATOM      6  O   UNL     1      -1.472   2.240  24.806  0.00  0.00    -0.350 OA
ATOM      7  C   UNL     1      -1.478   1.447  24.580  0.00  0.00    +0.166 C 
ATOM      8  C   UNL     1      -1.000   0.798  24.406  0.00  0.00    +0.154 C 
ATOM      9  C   UNL     1      -1.490   0.163  24.213  0.00  0.00    +0.166 C 
ATOM     10  O   UNL     1      -2.272   0.420  24.267  0.00  0.00    -0.350 OA
ATOM     11  C   UNL     1      -2.265   1.214  24.494  0.00  0.00    +0.166 C 
BRANCH   4   3
ATOM      1  O   UNL     1      -3.580   2.756  25.774  0.00  0.00    -0.268 OA
ATOM      2  C   UNL     1      -3.986   2.321  25.203  0.00  0.00    +0.271 C 
ATOM      3  N   UNL     1      -3.569   1.874  24.650  0.00  0.00    -0.198 NA
BRANCH   2  31
ATOM     31  C   UNL     1      -4.812   2.333  25.186  0.00  0.00    +0.084 A 
ATOM     32  C   UNL     1      -5.299   1.734  24.897  0.00  0.00    +0.012 A 
ATOM     33  C   UNL     1      -6.083   1.976  24.988  0.00  0.00    +0.008 A 
ATOM     34  C   UNL     1      -6.079   2.726  25.333  0.00  0.00    +0.036 A 
ATOM     35  S   UNL     1      -5.293   2.946  25.456  0.00  0.00    -0.082 S 
ENDBRANCH   2  31
ENDBRANCH   4   3
ENDBRANCH  12   8
BRANCH  15  19
ATOM     19  C   UNL     1       2.317   0.160  23.172  0.00  0.00    +0.018 A 
ATOM     20  C   UNL     1       2.743   0.855  23.036  0.00  0.00    +0.001 A 
ATOM     21  C   UNL     1       3.567   0.843  23.052  0.00  0.00    +0.000 A 
ATOM     22  C   UNL     1       3.967   0.137  23.205  0.00  0.00    +0.000 A 
ATOM     23  C   UNL     1       3.542  -0.556  23.341  0.00  0.00    +0.000 A 
ATOM     24  C   UNL     1       2.717  -0.545  23.324  0.00  0.00    +0.001 A 
BRANCH  22  25
ATOM     25  C   UNL     1       4.791   0.125  23.222  0.00  0.00    +0.000 A 
ATOM     26  C   UNL     1       5.197   0.486  23.843  0.00  0.00    +0.000 A 
ATOM     27  C   UNL     1       6.022   0.475  23.860  0.00  0.00    +0.000 A 
ATOM     28  C   UNL     1       6.441   0.102  23.255  0.00  0.00    +0.000 A 
ATOM     29  C   UNL     1       6.036  -0.259  22.634  0.00  0.00    +0.000 A 
ATOM     30  C   UNL     1       5.212  -0.247  22.617  0.00  0.00    +0.000 A 
ENDBRANCH  22  25
ENDBRANCH  15  19
TORSDOF 5
ENDMDL
MODEL 4
REMARK VINA RESULT:      -4.6     14.703     16.681
REMARK  Name = 
REMARK  5 active torsions:
REMARK  status: ('A' for Active; 'I' for Inactive)
REMARK    1  A    between atoms: C_2  and  C_31
REMARK    2  A    between atoms: N_3  and  C_4
REMARK    3  A    between atoms: C_8  and  N_12
REMARK    4  A    between atoms: C_15  and  C_19
REMARK    5  A    between atoms: C_22  and  C_25
REMARK                            x       y       z     vdW  Elec       q    Type
REMARK                         _______ _______ _______ _____ _____    ______ ____
ROOT
ATOM     12  N   UNL     1      -6.096 -10.471  15.774  0.00  0.00    -0.200 NA
ATOM     13  C   UNL     1      -5.276 -10.546  15.832  0.00  0.00    +0.237 A 
ATOM     14  N   UNL     1      -4.804 -10.462  15.161  0.00  0.00    -0.212 NA
ATOM     15  C   UNL     1      -3.985 -10.537  15.220  0.00  0.00    +0.086 A 
ATOM     16  C   UNL     1      -3.637 -10.697  15.951  0.00  0.00    +0.040 A 
ATOM     17  C   UNL     1      -4.109 -10.781  16.623  0.00  0.00    +0.103 A 
ATOM     18  N   UNL     1      -4.928 -10.706  16.563  0.00  0.00    -0.211 NA
ENDROOT
BRANCH  12   8
ATOM      4  C   UNL     1      -8.455 -10.697  17.256  0.00  0.00    +0.155 C 
ATOM      5  C   UNL     1      -8.726 -10.624  16.480  0.00  0.00    +0.166 C 
ATOM      6  O   UNL     1      -8.068 -10.553  15.988  0.00  0.00    -0.350 OA
ATOM      7  C   UNL     1      -7.392 -10.582  16.458  0.00  0.00    +0.166 C 
ATOM      8  C   UNL     1      -6.567 -10.556  16.446  0.00  0.00    +0.154 C 
ATOM      9  C   UNL     1      -6.297 -10.628  17.221  0.00  0.00    +0.166 C 
ATOM     10  O   UNL     1      -6.955 -10.700  17.714  0.00  0.00    -0.350 OA
ATOM     11  C   UNL     1      -7.631 -10.671  17.242  0.00  0.00    +0.166 C 
BRANCH   4   3
ATOM      1  O   UNL     1      -9.188  -9.376  17.922  0.00  0.00    -0.268 OA
ATOM      2  C   UNL     1      -9.293 -10.121  18.261  0.00  0.00    +0.271 C 
ATOM      3  N   UNL     1      -8.927 -10.781  17.928  0.00  0.00    -0.198 NA
BRANCH   2  31
ATOM     31  C   UNL     1      -9.765 -10.205  18.933  0.00  0.00    +0.084 A 
ATOM     32  C   UNL     1      -9.672 -10.776  19.521  0.00  0.00    +0.012 A 
ATOM     33  C   UNL     1     -10.262 -10.657  20.086  0.00  0.00    +0.008 A 
ATOM     34  C   UNL     1     -10.719 -10.013  19.846  0.00  0.00    +0.036 A 
ATOM     35  S   UNL     1     -10.412  -9.734  19.133  0.00  0.00    -0.082 S 
ENDBRANCH   2  31
ENDBRANCH   4   3
ENDBRANCH  12   8
BRANCH  15  19
ATOM     19  C   UNL     1      -3.513 -10.453  14.549  0.00  0.00    +0.018 A 
ATOM     20  C   UNL     1      -2.691 -10.503  14.614  0.00  0.00    +0.001 A 
ATOM     21  C   UNL     1      -2.220 -10.419  13.942  0.00  0.00    +0.000 A 
ATOM     22  C   UNL     1      -2.568 -10.285  13.207  0.00  0.00    +0.000 A 
ATOM     23  C   UNL     1      -3.389 -10.234  13.143  0.00  0.00    +0.000 A 
ATOM     24  C   UNL     1      -3.861 -10.319  13.814  0.00  0.00    +0.001 A 
BRANCH  22  25
ATOM     25  C   UNL     1      -2.097 -10.200  12.536  0.00  0.00    +0.000 A 
ATOM     26  C   UNL     1      -2.346 -10.514  11.815  0.00  0.00    +0.000 A 
ATOM     27  C   UNL     1      -1.874 -10.430  11.143  0.00  0.00    +0.000 A 
ATOM     28  C   UNL     1      -1.153 -10.032  11.193  0.00  0.00    +0.000 A 
ATOM     29  C   UNL     1      -0.904  -9.718  11.914  0.00  0.00    +0.000 A 
ATOM     30  C   UNL     1      -1.376  -9.802  12.585  0.00  0.00    +0.000 A 
ENDBRANCH  22  25
ENDBRANCH  15  19
TORSDOF 5
ENDMDL
MODEL 5
REMARK VINA RESULT:      -4.5     16.002     17.200
REMARK  Name = 
REMARK  5 active torsions:
REMARK  status: ('A' for Active; 'I' for Inactive)
REMARK    1  A    between atoms: C_2  and  C_31
REMARK    2  A    between atoms: N_3  and  C_4
REMARK    3  A    between atoms: C_8  and  N_12
REMARK    4  A    between atoms: C_15  and  C_19
REMARK    5  A    between atoms: C_22  and  C_25
REMARK                            x       y       z     vdW  Elec       q    Type
REMARK                         _______ _______ _______ _____ _____    ______ ____
ROOT
ATOM     12  N   UNL     1      -7.734 -10.383  14.204  0.00  0.00    -0.200 NA
ATOM     13  C   UNL     1      -7.392  -9.989  13.565  0.00  0.00    +0.237 A 
ATOM     14  N   UNL     1      -7.830  -9.857  12.879  0.00  0.00    -0.212 NA
ATOM     15  C   UNL     1      -7.487  -9.463  12.240  0.00  0.00    +0.086 A 
ATOM     16  C   UNL     1      -6.706  -9.203  12.287  0.00  0.00    +0.040 A 
ATOM     17  C   UNL     1      -6.267  -9.335  12.973  0.00  0.00    +0.103 A 
ATOM     18  N   UNL     1      -6.610  -9.729  13.612  0.00  0.00    -0.211 NA
ENDROOT
BRANCH  12   8
ATOM      4  C   UNL     1      -7.251 -10.648  16.945  0.00  0.00    +0.155 C 
ATOM      5  C   UNL     1      -8.057 -10.478  16.911  0.00  0.00    +0.166 C 
ATOM      6  O   UNL     1      -8.264 -10.387  16.118  0.00  0.00    -0.350 OA
ATOM      7  C   UNL     1      -7.587 -10.501  15.662  0.00  0.00    +0.166 C 
ATOM      8  C   UNL     1      -7.295 -10.515  14.891  0.00  0.00    +0.154 C 
ATOM      9  C   UNL     1      -6.489 -10.685  14.925  0.00  0.00    +0.166 C 
ATOM     10  O   UNL     1      -6.282 -10.776  15.718  0.00  0.00    -0.350 OA
ATOM     11  C   UNL     1      -6.961 -10.662  16.174  0.00  0.00    +0.166 C 
BRANCH   4   3
ATOM      1  O   UNL     1      -7.370  -9.602  18.217  0.00  0.00    -0.268 OA
ATOM      2  C   UNL     1      -6.872 -10.258  18.267  0.00  0.00    +0.271 C 
ATOM      3  N   UNL     1      -6.812 -10.781  17.632  0.00  0.00    -0.198 NA
BRANCH   2  31
ATOM     31  C   UNL     1      -6.433 -10.390  18.953  0.00  0.00    +0.084 A 
ATOM     32  C   UNL     1      -5.631 -10.229  19.054  0.00  0.00    +0.012 A 
ATOM     33  C   UNL     1      -5.421 -10.447  19.822  0.00  0.00    +0.008 A 
ATOM     34  C   UNL     1      -6.095 -10.742  20.196  0.00  0.00    +0.036 A 
ATOM     35  S   UNL     1      -6.721 -10.707  19.659  0.00  0.00    -0.082 S 
ENDBRANCH   2  31
ENDBRANCH   4   3
ENDBRANCH  12   8
BRANCH  15  19
ATOM     19  C   UNL     1      -7.925  -9.331  11.554  0.00  0.00    +0.018 A 
ATOM     20  C   UNL     1      -8.705  -9.599  11.504  0.00  0.00    +0.001 A 
ATOM     21  C   UNL     1      -9.143  -9.467  10.818  0.00  0.00    +0.000 A 
ATOM     22  C   UNL     1      -8.803  -9.066  10.182  0.00  0.00    +0.000 A 
ATOM     23  C   UNL     1      -8.025  -8.798  10.232  0.00  0.00    +0.000 A 
ATOM     24  C   UNL     1      -7.586  -8.930  10.919  0.00  0.00    +0.001 A 
BRANCH  22  25
ATOM     25  C   UNL     1      -9.241  -8.933   9.496  0.00  0.00    +0.000 A 
ATOM     26  C   UNL     1      -9.752  -8.287   9.452  0.00  0.00    +0.000 A 
ATOM     27  C   UNL     1     -10.191  -8.154   8.766  0.00  0.00    +0.000 A 
ATOM     28  C   UNL     1     -10.118  -8.668   8.124  0.00  0.00    +0.000 A 
ATOM     29  C   UNL     1      -9.607  -9.314   8.168  0.00  0.00    +0.000 A 
ATOM     30  C   UNL     1      -9.169  -9.446   8.854  0.00  0.00    +0.000 A 
ENDBRANCH  22  25
ENDBRANCH  15  19
TORSDOF 5
ENDMDL
