MODEL 1
REMARK VINA RESULT:      -9.7      0.000      0.000
REMARK  Name = 
REMARK  7 active torsions:
REMARK  status: ('A' for Active; 'I' for Inactive)
REMARK    1  A    between atoms: S_2  and  C_5
REMARK    2  A    between atoms: C_8  and  C_9
REMARK    3  A    between atoms: C_9  and  N_10
REMARK    4  A    between atoms: N_10  and  C_11
REMARK    5  A    between atoms: C_14  and  C_15
REMARK    6  A    between atoms: C_15  and  N_16
REMARK    7  A    between atoms: C_17  and  C_19
REMARK                            x       y       z     vdW  Elec       q    Type
REMARK                         _______ _______ _______ _____ _____    ______ ____
ROOT
ATOM     11  C   UNL     1      -0.449   0.532  24.908  0.00  0.00    +0.135 C 
ATOM     12  C   UNL     1      -0.145   0.234  24.202  0.00  0.00    +0.162 C 
ATOM     13  O   UNL     1      -0.428  -0.536  24.106  0.00  0.00    -0.350 OA
ATOM     14  C   UNL     1      -0.907  -0.713  24.753  0.00  0.00    +0.169 C 
ATOM     24  C   UNL     1      -0.921  -0.054  25.249  0.00  0.00    +0.199 C 
ATOM     25  O   UNL     1      -1.333   0.010  25.960  0.00  0.00    -0.219 OA
ENDROOT
BRANCH  11  10
ATOM     10  N   UNL     1      -0.308   1.283  25.219  0.00  0.00    -0.209 NA
BRANCH  10   9
ATOM      9  C   UNL     1      -0.058   1.893  24.724  0.00  0.00    +0.115 C 
BRANCH   9   8
ATOM      5  C   UNL     1      -1.002   4.165  24.989  0.00  0.00    +0.106 A 
ATOM      6  C   UNL     1      -0.993   3.807  24.245  0.00  0.00    +0.018 A 
ATOM      7  C   UNL     1      -0.678   3.049  24.157  0.00  0.00    -0.002 A 
ATOM      8  C   UNL     1      -0.372   2.650  24.812  0.00  0.00    -0.005 A 
ATOM     26  C   UNL     1      -0.382   3.010  25.555  0.00  0.00    -0.002 A 
ATOM     27  C   UNL     1      -0.696   3.767  25.643  0.00  0.00    +0.018 A 
BRANCH   5   2
ATOM      1  C   UNL     1      -1.631   5.681  25.165  0.00  0.00    +0.182 C 
ATOM      2  S   UNL     1      -1.316   4.923  25.077  0.00  0.00    +0.010 S 
ATOM      3  O   UNL     1      -2.019   4.598  25.360  0.00  0.00    -0.169 OA
ATOM      4  O   UNL     1      -0.613   5.248  24.793  0.00  0.00    -0.169 OA
ENDBRANCH   5   2
ENDBRANCH   9   8
ENDBRANCH  10   9
ENDBRANCH  11  10
BRANCH  14  15
ATOM     15  C   UNL     1      -1.304  -1.425  24.882  0.00  0.00    +0.147 C 
BRANCH  15  16
ATOM     16  N   UNL     1      -2.066  -1.532  24.587  0.00  0.00    -0.203 NA
ATOM     17  C   UNL     1      -2.423  -2.275  24.627  0.00  0.00    +0.241 C 
ATOM     18  O   UNL     1      -2.017  -2.910  24.961  0.00  0.00    -0.273 OA
BRANCH  17  19
ATOM     19  C   UNL     1      -3.186  -2.381  24.331  0.00  0.00    +0.078 C 
ATOM     20  C   UNL     1      -3.547  -3.105  24.171  0.00  0.00    +0.009 C 
ATOM     21  C   UNL     1      -4.306  -2.955  23.885  0.00  0.00    +0.001 C 
ATOM     22  C   UNL     1      -4.414  -2.137  23.868  0.00  0.00    +0.001 C 
ATOM     23  C   UNL     1      -3.722  -1.783  24.144  0.00  0.00    +0.009 C 
ENDBRANCH  17  19
ENDBRANCH  15  16
ENDBRANCH  14  15
TORSDOF 7
ENDMDL
MODEL 2
REMARK VINA RESULT:      -9.5      3.049      4.976
REMARK  Name = 
REMARK  7 active torsions:
REMARK  status: ('A' for Active; 'I' for Inactive)
REMARK    1  A    between atoms: S_2  and  C_5
REMARK    2  A    between atoms: C_8  and  C_9
REMARK    3  A    between atoms: C_9  and  N_10
REMARK    4  A    between atoms: N_10  and  C_11
REMARK    5  A    between atoms: C_14  and  C_15
REMARK    6  A    between atoms: C_15  and  N_16
REMARK    7  A    between atoms: C_17  and  C_19
REMARK                            x       y       z     vdW  Elec       q    Type
REMARK                         _______ _______ _______ _____ _____    ______ ____
ROOT
ATOM     11  C   UNL     1      -0.755   0.337  24.100  0.00  0.00    +0.135 C 
ATOM     12  C   UNL     1      -0.405  -0.305  24.480  0.00  0.00    +0.162 C 
ATOM     13  O   UNL     1       0.272  -0.514  24.057  0.00  0.00    -0.350 OA
ATOM     14  C   UNL     1       0.340  -0.001  23.415  0.00  0.00    +0.169 C 
ATOM     24  C   UNL     1      -0.295   0.525  23.441  0.00  0.00    +0.199 C 
ATOM     25  O   UNL     1      -0.443   1.133  22.904  0.00  0.00    -0.219 OA
ENDROOT
BRANCH  11  10
ATOM     10  N   UNL     1      -1.445   0.723  24.335  0.00  0.00    -0.209 NA
BRANCH  10   9
ATOM      9  C   UNL     1      -2.071   0.291  24.653  0.00  0.00    +0.115 C 
BRANCH   9   8
ATOM      5  C   UNL     1      -4.306   1.332  24.872  0.00  0.00    +0.106 A 
ATOM      6  C   UNL     1      -4.240   0.545  24.632  0.00  0.00    +0.018 A 
ATOM      7  C   UNL     1      -3.495   0.198  24.559  0.00  0.00    -0.002 A 
ATOM      8  C   UNL     1      -2.816   0.638  24.726  0.00  0.00    -0.005 A 
ATOM     26  C   UNL     1      -2.884   1.425  24.965  0.00  0.00    -0.002 A 
ATOM     27  C   UNL     1      -3.629   1.772  25.038  0.00  0.00    +0.018 A 
BRANCH   5   2
ATOM      1  C   UNL     1      -5.796   2.026  25.018  0.00  0.00    +0.182 C 
ATOM      2  S   UNL     1      -5.051   1.679  24.945  0.00  0.00    +0.010 S 
ATOM      3  O   UNL     1      -5.210   1.202  25.599  0.00  0.00    -0.169 OA
ATOM      4  O   UNL     1      -4.893   2.157  24.291  0.00  0.00    -0.169 OA
ENDBRANCH   5   2
ENDBRANCH   9   8
ENDBRANCH  10   9
ENDBRANCH  11  10
BRANCH  14  15
ATOM     15  C   UNL     1       0.938  -0.012  22.847  0.00  0.00    +0.147 C 
BRANCH  15  16
ATOM     16  N   UNL     1       1.718   0.144  23.065  0.00  0.00    -0.203 NA
ATOM     17  C   UNL     1       2.321   0.093  22.504  0.00  0.00    +0.241 C 
ATOM     18  O   UNL     1       2.144  -0.115  21.726  0.00  0.00    -0.273 OA
BRANCH  17  19
ATOM     19  C   UNL     1       3.101   0.249  22.723  0.00  0.00    +0.078 C 
ATOM     20  C   UNL     1       3.476   0.982  22.687  0.00  0.00    +0.009 C 
ATOM     21  C   UNL     1       4.250   0.887  22.959  0.00  0.00    +0.001 C 
ATOM     22  C   UNL     1       4.352   0.094  23.162  0.00  0.00    +0.001 C 
ATOM     23  C   UNL     1       3.642  -0.300  23.017  0.00  0.00    +0.009 C 
ENDBRANCH  17  19
ENDBRANCH  15  16
ENDBRANCH  14  15
TORSDOF 7
ENDMDL
MODEL 3
REMARK VINA RESULT:      -9.5      1.933      6.030
REMARK  Name = 
REMARK  7 active torsions:
REMARK  status: ('A' for Active; 'I' for Inactive)
REMARK    1  A    between atoms: S_2  and  C_5
REMARK    2  A    between atoms: C_8  and  C_9
REMARK    3  A    between atoms: C_9  and  N_10
REMARK    4  A    between atoms: N_10  and  C_11
REMARK    5  A    between atoms: C_14  and  C_15
REMARK    6  A    between atoms: C_15  and  N_16
REMARK    7  A    between atoms: C_17  and  C_19
REMARK                            x       y       z     vdW  Elec       q    Type
REMARK                         _______ _______ _______ _____ _____    ______ ____
ROOT
ATOM     11  C   UNL     1      -0.881   0.454  25.130  0.00  0.00    +0.135 C 
ATOM     12  C   UNL     1      -0.693   0.696  25.896  0.00  0.00    +0.162 C 
ATOM     13  O   UNL     1      -0.453   1.485  25.863  0.00  0.00    -0.350 OA
ATOM     14  C   UNL     1      -0.493   1.731  25.076  0.00  0.00    +0.169 C 
ATOM     24  C   UNL     1      -0.758   1.094  24.623  0.00  0.00    +0.199 C 
ATOM     25  O   UNL     1      -0.878   1.096  23.807  0.00  0.00    -0.219 OA
ENDROOT
BRANCH  11  10
ATOM     10  N   UNL     1      -1.147  -0.295  24.910  0.00  0.00    -0.209 NA
BRANCH  10   9
ATOM      9  C   UNL     1      -1.648  -0.718  25.409  0.00  0.00    +0.115 C 
BRANCH   9   8
ATOM      5  C   UNL     1      -3.348  -2.242  24.454  0.00  0.00    +0.106 A 
ATOM      6  C   UNL     1      -2.546  -2.409  24.359  0.00  0.00    +0.018 A 
ATOM      7  C   UNL     1      -1.979  -1.901  24.677  0.00  0.00    -0.002 A 
ATOM      8  C   UNL     1      -2.215  -1.226  25.091  0.00  0.00    -0.005 A 
ATOM     26  C   UNL     1      -3.017  -1.061  25.185  0.00  0.00    -0.002 A 
ATOM     27  C   UNL     1      -3.584  -1.569  24.867  0.00  0.00    +0.018 A 
BRANCH   5   2
ATOM      1  C   UNL     1      -4.482  -3.258  23.818  0.00  0.00    +0.182 C 
ATOM      2  S   UNL     1      -3.915  -2.750  24.136  0.00  0.00    +0.010 S 
ATOM      3  O   UNL     1      -4.194  -2.139  23.657  0.00  0.00    -0.169 OA
ATOM      4  O   UNL     1      -3.636  -3.361  24.614  0.00  0.00    -0.169 OA
ENDBRANCH   5   2
ENDBRANCH   9   8
ENDBRANCH  10   9
ENDBRANCH  11  10
BRANCH  14  15
ATOM     15  C   UNL     1      -0.301   2.481  24.792  0.00  0.00    +0.147 C 
BRANCH  15  16
ATOM     16  N   UNL     1      -0.768   3.130  24.994  0.00  0.00    -0.203 NA
ATOM     17  C   UNL     1      -0.587   3.878  24.694  0.00  0.00    +0.241 C 
ATOM     18  O   UNL     1       0.060   3.975  24.193  0.00  0.00    -0.273 OA
BRANCH  17  19
ATOM     19  C   UNL     1      -1.054   4.526  24.896  0.00  0.00    +0.078 C 
ATOM     20  C   UNL     1      -0.867   5.318  24.763  0.00  0.00    +0.009 C 
ATOM     21  C   UNL     1      -1.488   5.780  25.051  0.00  0.00    +0.001 C 
ATOM     22  C   UNL     1      -2.059   5.272  25.364  0.00  0.00    +0.001 C 
ATOM     23  C   UNL     1      -1.790   4.498  25.268  0.00  0.00    +0.009 C 
ENDBRANCH  17  19
ENDBRANCH  15  16
ENDBRANCH  14  15
TORSDOF 7
ENDMDL
MODEL 4
REMARK VINA RESULT:      -9.4      2.682      6.468
REMARK  Name = 
REMARK  7 active torsions:
REMARK  status: ('A' for Active; 'I' for Inactive)
REMARK    1  A    between atoms: S_2  and  C_5
REMARK    2  A    between atoms: C_8  and  C_9
REMARK    3  A    between atoms: C_9  and  N_10
REMARK    4  A    between atoms: N_10  and  C_11
REMARK    5  A    between atoms: C_14  and  C_15
REMARK    6  A    between atoms: C_15  and  N_16
REMARK    7  A    between atoms: C_17  and  C_19
REMARK                            x       y       z     vdW  Elec       q    Type
REMARK                         _______ _______ _______ _____ _____    ______ ____
ROOT
ATOM     11  C   UNL     1      -4.475   1.574  24.760  0.00  0.00    +0.135 C 
ATOM     12  C   UNL     1      -4.833   1.901  25.427  0.00  0.00    +0.162 C 
ATOM     13  O   UNL     1      -4.609   2.694  25.473  0.00  0.00    -0.350 OA
ATOM     14  C   UNL     1      -4.113   2.857  24.835  0.00  0.00    +0.169 C 
ATOM     24  C   UNL     1      -4.029   2.165  24.394  0.00  0.00    +0.199 C 
ATOM     25  O   UNL     1      -3.580   2.078  23.708  0.00  0.00    -0.219 OA
ENDROOT
BRANCH  11  10
ATOM     10  N   UNL     1      -4.549   0.793  24.503  0.00  0.00    -0.209 NA
BRANCH  10   9
ATOM      9  C   UNL     1      -4.592   0.181  25.054  0.00  0.00    +0.115 C 
BRANCH   9   8
ATOM      5  C   UNL     1      -3.535  -2.002  24.561  0.00  0.00    +0.106 A 
ATOM      6  C   UNL     1      -3.377  -1.620  25.275  0.00  0.00    +0.018 A 
ATOM      7  C   UNL     1      -3.729  -0.892  25.439  0.00  0.00    -0.002 A 
ATOM      8  C   UNL     1      -4.239  -0.547  24.889  0.00  0.00    -0.005 A 
ATOM     26  C   UNL     1      -4.397  -0.930  24.176  0.00  0.00    -0.002 A 
ATOM     27  C   UNL     1      -4.044  -1.658  24.012  0.00  0.00    +0.018 A 
BRANCH   5   2
ATOM      1  C   UNL     1      -2.830  -3.458  24.232  0.00  0.00    +0.182 C 
ATOM      2  S   UNL     1      -3.183  -2.730  24.397  0.00  0.00    +0.010 S 
ATOM      3  O   UNL     1      -2.445  -2.364  24.357  0.00  0.00    -0.169 OA
ATOM      4  O   UNL     1      -3.921  -3.096  24.436  0.00  0.00    -0.169 OA
ENDBRANCH   5   2
ENDBRANCH   9   8
ENDBRANCH  10   9
ENDBRANCH  11  10
BRANCH  14  15
ATOM     15  C   UNL     1      -3.761   3.584  24.667  0.00  0.00    +0.147 C 
BRANCH  15  16
ATOM     16  N   UNL     1      -2.950   3.685  24.777  0.00  0.00    -0.203 NA
ATOM     17  C   UNL     1      -2.639   4.444  24.873  0.00  0.00    +0.241 C 
ATOM     18  O   UNL     1      -3.139   5.099  24.858  0.00  0.00    -0.273 OA
BRANCH  17  19
ATOM     19  C   UNL     1      -1.828   4.545  24.984  0.00  0.00    +0.078 C 
ATOM     20  C   UNL     1      -1.392   5.217  24.788  0.00  0.00    +0.009 C 
ATOM     21  C   UNL     1      -0.605   5.080  24.992  0.00  0.00    +0.001 C 
ATOM     22  C   UNL     1      -0.553   4.322  25.314  0.00  0.00    +0.001 C 
ATOM     23  C   UNL     1      -1.309   3.991  25.308  0.00  0.00    +0.009 C 
ENDBRANCH  17  19
ENDBRANCH  15  16
ENDBRANCH  14  15
TORSDOF 7
ENDMDL
MODEL 5
REMARK VINA RESULT:      -9.4      2.176      2.762
REMARK  Name = 
REMARK  7 active torsions:
REMARK  status: ('A' for Active; 'I' for Inactive)
REMARK    1  A    between atoms: S_2  and  C_5
REMARK    2  A    between atoms: C_8  and  C_9
REMARK    3  A    between atoms: C_9  and  N_10
REMARK    4  A    between atoms: N_10  and  C_11
REMARK    5  A    between atoms: C_14  and  C_15
REMARK    6  A    between atoms: C_15  and  N_16
REMARK    7  A    between atoms: C_17  and  C_19
REMARK                            x       y       z     vdW  Elec       q    Type
REMARK                         _______ _______ _______ _____ _____    ______ ____
ROOT
ATOM     11  C   UNL     1      -4.252   1.720  24.768  0.00  0.00    +0.135 C 
ATOM     12  C   UNL     1      -4.736   1.452  25.379  0.00  0.00    +0.162 C 
ATOM     13  O   UNL     1      -4.884   0.649  25.254  0.00  0.00    -0.350 OA
ATOM     14  C   UNL     1      -4.490   0.422  24.565  0.00  0.00    +0.169 C 
ATOM     24  C   UNL     1      -4.099   1.084  24.265  0.00  0.00    +0.199 C 
ATOM     25  O   UNL     1      -3.638   1.106  23.582  0.00  0.00    -0.219 OA
ENDROOT
BRANCH  11  10
ATOM     10  N   UNL     1      -3.968   2.490  24.676  0.00  0.00    -0.209 NA
BRANCH  10   9
ATOM      9  C   UNL     1      -3.690   2.908  25.330  0.00  0.00    +0.115 C 
BRANCH   9   8
ATOM      5  C   UNL     1      -1.801   4.486  25.077  0.00  0.00    +0.106 A 
ATOM      6  C   UNL     1      -1.746   3.861  25.613  0.00  0.00    +0.018 A 
ATOM      7  C   UNL     1      -2.376   3.335  25.697  0.00  0.00    -0.002 A 
ATOM      8  C   UNL     1      -3.060   3.434  25.245  0.00  0.00    -0.005 A 
ATOM     26  C   UNL     1      -3.113   4.059  24.710  0.00  0.00    -0.002 A 
ATOM     27  C   UNL     1      -2.483   4.585  24.626  0.00  0.00    +0.018 A 
BRANCH   5   2
ATOM      1  C   UNL     1      -0.541   5.538  24.909  0.00  0.00    +0.182 C 
ATOM      2  S   UNL     1      -1.171   5.012  24.993  0.00  0.00    +0.010 S 
ATOM      3  O   UNL     1      -1.645   5.625  25.276  0.00  0.00    -0.169 OA
ATOM      4  O   UNL     1      -0.697   4.399  24.709  0.00  0.00    -0.169 OA
ENDBRANCH   5   2
ENDBRANCH   9   8
ENDBRANCH  10   9
ENDBRANCH  11  10
BRANCH  14  15
ATOM     15  C   UNL     1      -4.488  -0.334  24.235  0.00  0.00    +0.147 C 
BRANCH  15  16
ATOM     16  N   UNL     1      -3.942  -0.895  24.494  0.00  0.00    -0.203 NA
ATOM     17  C   UNL     1      -3.958  -1.660  24.183  0.00  0.00    +0.241 C 
ATOM     18  O   UNL     1      -4.519  -1.861  23.614  0.00  0.00    -0.273 OA
BRANCH  17  19
ATOM     19  C   UNL     1      -3.412  -2.221  24.442  0.00  0.00    +0.078 C 
ATOM     20  C   UNL     1      -2.613  -2.248  24.239  0.00  0.00    +0.009 C 
ATOM     21  C   UNL     1      -2.275  -2.897  24.621  0.00  0.00    +0.001 C 
ATOM     22  C   UNL     1      -2.865  -3.270  25.061  0.00  0.00    +0.001 C 
ATOM     23  C   UNL     1      -3.568  -2.852  24.950  0.00  0.00    +0.009 C 
ENDBRANCH  17  19
ENDBRANCH  15  16
ENDBRANCH  14  15
TORSDOF 7
ENDMDL
MODEL 6
REMARK VINA RESULT:      -9.1      3.366      5.543
REMARK  Name = 
REMARK  7 active torsions:
REMARK  status: ('A' for Active; 'I' for Inactive)
REMARK    1  A    between atoms: S_2  and  C_5
REMARK    2  A    between atoms: C_8  and  C_9
REMARK    3  A    between atoms: C_9  and  N_10
REMARK    4  A    between atoms: N_10  and  C_11
REMARK    5  A    between atoms: C_14  and  C_15
REMARK    6  A    between atoms: C_15  and  N_16
REMARK    7  A    between atoms: C_17  and  C_19
REMARK                            x       y       z     vdW  Elec       q    Type
REMARK                         _______ _______ _______ _____ _____    ______ ____
ROOT
ATOM     11  C   UNL     1       0.384   0.789  23.664  0.00  0.00    +0.135 C 
ATOM     12  C   UNL     1       0.807   1.401  24.021  0.00  0.00    +0.162 C 
ATOM     13  O   UNL     1       1.581   1.376  23.736  0.00  0.00    -0.350 OA
ATOM     14  C   UNL     1       1.637   0.749  23.203  0.00  0.00    +0.169 C 
ATOM     24  C   UNL     1       0.897   0.386  23.158  0.00  0.00    +0.199 C 
ATOM     25  O   UNL     1       0.704  -0.265  22.691  0.00  0.00    -0.219 OA
ENDROOT
BRANCH  11  10
ATOM     10  N   UNL     1      -0.412   0.612  23.790  0.00  0.00    -0.209 NA
BRANCH  10   9
ATOM      9  C   UNL     1      -0.870   1.095  24.276  0.00  0.00    +0.115 C 
BRANCH   9   8
ATOM      5  C   UNL     1      -3.281   0.622  24.572  0.00  0.00    +0.106 A 
ATOM      6  C   UNL     1      -3.034   1.162  23.999  0.00  0.00    +0.018 A 
ATOM      7  C   UNL     1      -2.231   1.320  23.901  0.00  0.00    -0.002 A 
ATOM      8  C   UNL     1      -1.673   0.937  24.375  0.00  0.00    -0.005 A 
ATOM     26  C   UNL     1      -1.921   0.397  24.947  0.00  0.00    -0.002 A 
ATOM     27  C   UNL     1      -2.725   0.239  25.046  0.00  0.00    +0.018 A 
BRANCH   5   2
ATOM      1  C   UNL     1      -4.889   0.306  24.769  0.00  0.00    +0.182 C 
ATOM      2  S   UNL     1      -4.085   0.464  24.671  0.00  0.00    +0.010 S 
ATOM      3  O   UNL     1      -4.169   1.162  25.102  0.00  0.00    -0.169 OA
ATOM      4  O   UNL     1      -4.001  -0.234  24.239  0.00  0.00    -0.169 OA
ENDBRANCH   5   2
ENDBRANCH   9   8
ENDBRANCH  10   9
ENDBRANCH  11  10
BRANCH  14  15
ATOM     15  C   UNL     1       2.313   0.524  22.788  0.00  0.00    +0.147 C 
BRANCH  15  16
ATOM     16  N   UNL     1       3.018   0.383  23.192  0.00  0.00    -0.203 NA
ATOM     17  C   UNL     1       3.733   0.364  22.780  0.00  0.00    +0.241 C 
ATOM     18  O   UNL     1       3.742   0.484  21.964  0.00  0.00    -0.273 OA
BRANCH  17  19
ATOM     19  C   UNL     1       4.437   0.223  23.185  0.00  0.00    +0.078 C 
ATOM     20  C   UNL     1       4.679  -0.500  23.499  0.00  0.00    +0.009 C 
ATOM     21  C   UNL     1       5.415  -0.391  23.856  0.00  0.00    +0.001 C 
ATOM     22  C   UNL     1       5.628   0.401  23.761  0.00  0.00    +0.001 C 
ATOM     23  C   UNL     1       5.024   0.779  23.347  0.00  0.00    +0.009 C 
ENDBRANCH  17  19
ENDBRANCH  15  16
ENDBRANCH  14  15
TORSDOF 7
ENDMDL
MODEL 7
REMARK VINA RESULT:      -8.9      3.393      4.687
REMARK  Name = 
REMARK  7 active torsions:
REMARK  status: ('A' for Active; 'I' for Inactive)
REMARK    1  A    between atoms: S_2  and  C_5
REMARK    2  A    between atoms: C_8  and  C_9
REMARK    3  A    between atoms: C_9  and  N_10
REMARK    4  A    between atoms: N_10  and  C_11
REMARK    5  A    between atoms: C_14  and  C_15
REMARK    6  A    between atoms: C_15  and  N_16
REMARK    7  A    between atoms: C_17  and  C_19
REMARK                            x       y       z     vdW  Elec       q    Type
REMARK                         _______ _______ _______ _____ _____    ______ ____
ROOT
ATOM     11  C   UNL     1      -1.428   1.105  23.719  0.00  0.00    +0.135 C 
ATOM     12  C   UNL     1      -1.714   0.722  24.391  0.00  0.00    +0.162 C 
ATOM     13  O   UNL     1      -2.482   0.990  24.530  0.00  0.00    -0.350 OA
ATOM     14  C   UNL     1      -2.670   1.540  23.944  0.00  0.00    +0.169 C 
ATOM     24  C   UNL     1      -2.018   1.611  23.442  0.00  0.00    +0.199 C 
ATOM     25  O   UNL     1      -1.966   2.101  22.781  0.00  0.00    -0.219 OA
ENDROOT
BRANCH  11  10
ATOM     10  N   UNL     1      -0.681   1.002  23.383  0.00  0.00    -0.209 NA
BRANCH  10   9
ATOM      9  C   UNL     1      -0.120   0.532  23.762  0.00  0.00    +0.115 C 
BRANCH   9   8
ATOM      5  C   UNL     1       2.219   0.502  22.953  0.00  0.00    +0.106 A 
ATOM      6  C   UNL     1       1.687  -0.075  22.699  0.00  0.00    +0.018 A 
ATOM      7  C   UNL     1       0.908  -0.065  22.968  0.00  0.00    -0.002 A 
ATOM      8  C   UNL     1       0.659   0.522  23.493  0.00  0.00    -0.005 A 
ATOM     26  C   UNL     1       1.192   1.099  23.746  0.00  0.00    -0.002 A 
ATOM     27  C   UNL     1       1.971   1.089  23.477  0.00  0.00    +0.018 A 
BRANCH   5   2
ATOM      1  C   UNL     1       3.778   0.483  22.414  0.00  0.00    +0.182 C 
ATOM      2  S   UNL     1       2.998   0.493  22.684  0.00  0.00    +0.010 S 
ATOM      3  O   UNL     1       3.155   1.180  23.112  0.00  0.00    -0.169 OA
ATOM      4  O   UNL     1       2.842  -0.195  22.255  0.00  0.00    -0.169 OA
ENDBRANCH   5   2
ENDBRANCH   9   8
ENDBRANCH  10   9
ENDBRANCH  11  10
BRANCH  14  15
ATOM     15  C   UNL     1      -3.384   1.946  23.871  0.00  0.00    +0.147 C 
BRANCH  15  16
ATOM     16  N   UNL     1      -3.961   1.874  24.455  0.00  0.00    -0.203 NA
ATOM     17  C   UNL     1      -4.611   2.383  24.458  0.00  0.00    +0.241 C 
ATOM     18  O   UNL     1      -4.683   2.963  23.876  0.00  0.00    -0.273 OA
BRANCH  17  19
ATOM     19  C   UNL     1      -5.188   2.311  25.043  0.00  0.00    +0.078 C 
ATOM     20  C   UNL     1      -5.775   1.732  25.074  0.00  0.00    +0.009 C 
ATOM     21  C   UNL     1      -6.230   1.867  25.750  0.00  0.00    +0.001 C 
ATOM     22  C   UNL     1      -5.924   2.529  26.136  0.00  0.00    +0.001 C 
ATOM     23  C   UNL     1      -5.280   2.803  25.698  0.00  0.00    +0.009 C 
ENDBRANCH  17  19
ENDBRANCH  15  16
ENDBRANCH  14  15
TORSDOF 7
ENDMDL
MODEL 8
REMARK VINA RESULT:      -8.1     13.993     16.179
REMARK  Name = 
REMARK  7 active torsions:
REMARK  status: ('A' for Active; 'I' for Inactive)
REMARK    1  A    between atoms: S_2  and  C_5
REMARK    2  A    between atoms: C_8  and  C_9
REMARK    3  A    between atoms: C_9  and  N_10
REMARK    4  A    between atoms: N_10  and  C_11
REMARK    5  A    between atoms: C_14  and  C_15
REMARK    6  A    between atoms: C_15  and  N_16
REMARK    7  A    between atoms: C_17  and  C_19
REMARK                            x       y       z     vdW  Elec       q    Type
REMARK                         _______ _______ _______ _____ _____    ______ ____
ROOT
ATOM     11  C   UNL     1      -4.889 -10.466  14.458  0.00  0.00    +0.135 C 
ATOM     12  C   UNL     1      -5.496 -10.255  13.942  0.00  0.00    +0.162 C 
ATOM     13  O   UNL     1      -5.184 -10.226  13.178  0.00  0.00    -0.350 OA
ATOM     14  C   UNL     1      -4.383 -10.420  13.223  0.00  0.00    +0.169 C 
ATOM     24  C   UNL     1      -4.201 -10.568  14.014  0.00  0.00    +0.199 C 
ATOM     25  O   UNL     1      -3.461 -10.781  14.309  0.00  0.00    -0.219 OA
ENDROOT
BRANCH  11  10
ATOM     10  N   UNL     1      -4.957 -10.559  15.275  0.00  0.00    -0.209 NA
BRANCH  10   9
ATOM      9  C   UNL     1      -5.360  -9.995  15.722  0.00  0.00    +0.115 C 
BRANCH   9   8
ATOM      5  C   UNL     1      -5.886 -10.445  18.098  0.00  0.00    +0.106 A 
ATOM      6  C   UNL     1      -5.112 -10.525  17.825  0.00  0.00    +0.018 A 
ATOM      7  C   UNL     1      -4.936 -10.375  17.033  0.00  0.00    -0.002 A 
ATOM      8  C   UNL     1      -5.536 -10.145  16.514  0.00  0.00    -0.005 A 
ATOM     26  C   UNL     1      -6.309 -10.065  16.788  0.00  0.00    -0.002 A 
ATOM     27  C   UNL     1      -6.485 -10.214  17.580  0.00  0.00    +0.018 A 
BRANCH   5   2
ATOM      1  C   UNL     1      -6.237 -10.744  19.682  0.00  0.00    +0.182 C 
ATOM      2  S   UNL     1      -6.062 -10.594  18.890  0.00  0.00    +0.010 S 
ATOM      3  O   UNL     1      -6.858 -10.439  18.743  0.00  0.00    -0.169 OA
ATOM      4  O   UNL     1      -5.265 -10.750  19.037  0.00  0.00    -0.169 OA
ENDBRANCH   5   2
ENDBRANCH   9   8
ENDBRANCH  10   9
ENDBRANCH  11  10
BRANCH  14  15
ATOM     15  C   UNL     1      -3.857 -10.459  12.589  0.00  0.00    +0.147 C 
BRANCH  15  16
ATOM     16  N   UNL     1      -4.045 -10.093  11.874  0.00  0.00    -0.203 NA
ATOM     17  C   UNL     1      -3.535 -10.162  11.229  0.00  0.00    +0.241 C 
ATOM     18  O   UNL     1      -2.837 -10.596  11.300  0.00  0.00    -0.273 OA
BRANCH  17  19
ATOM     19  C   UNL     1      -3.723  -9.796  10.515  0.00  0.00    +0.078 C 
ATOM     20  C   UNL     1      -3.535  -9.021  10.303  0.00  0.00    +0.009 C 
ATOM     21  C   UNL     1      -3.828  -8.885   9.544  0.00  0.00    +0.001 C 
ATOM     22  C   UNL     1      -4.198  -9.576   9.286  0.00  0.00    +0.001 C 
ATOM     23  C   UNL     1      -4.133 -10.138   9.886  0.00  0.00    +0.009 C 
ENDBRANCH  17  19
ENDBRANCH  15  16
ENDBRANCH  14  15
TORSDOF 7
ENDMDL
MODEL 9
REMARK VINA RESULT:      -7.5     17.740     19.052
REMARK  Name = 
REMARK  7 active torsions:
REMARK  status: ('A' for Active; 'I' for Inactive)
REMARK    1  A    between atoms: S_2  and  C_5
REMARK    2  A    between atoms: C_8  and  C_9
REMARK    3  A    between atoms: C_9  and  N_10
REMARK    4  A    between atoms: N_10  and  C_11
REMARK    5  A    between atoms: C_14  and  C_15
REMARK    6  A    between atoms: C_15  and  N_16
REMARK    7  A    between atoms: C_17  and  C_19
REMARK                            x       y       z     vdW  Elec       q    Type
REMARK                         _______ _______ _______ _____ _____    ______ ____
ROOT
ATOM     11  C   UNL     1      -6.879  -8.447   9.129  0.00  0.00    +0.135 C 
ATOM     12  C   UNL     1      -6.822  -8.025   8.423  0.00  0.00    +0.162 C 
ATOM     13  O   UNL     1      -7.558  -7.685   8.269  0.00  0.00    -0.350 OA
ATOM     14  C   UNL     1      -8.070  -7.897   8.881  0.00  0.00    +0.169 C 
ATOM     24  C   UNL     1      -7.650  -8.368   9.412  0.00  0.00    +0.199 C 
ATOM     25  O   UNL     1      -7.948  -8.702  10.105  0.00  0.00    -0.219 OA
ENDROOT
BRANCH  11  10
ATOM     10  N   UNL     1      -6.271  -8.873   9.489  0.00  0.00    -0.209 NA
BRANCH  10   9
ATOM      9  C   UNL     1      -5.485  -8.703   9.308  0.00  0.00    +0.115 C 
BRANCH   9   8
ATOM      5  C   UNL     1      -3.660  -9.771  10.595  0.00  0.00    +0.106 A 
ATOM      6  C   UNL     1      -4.022 -10.180   9.976  0.00  0.00    +0.018 A 
ATOM      7  C   UNL     1      -4.630  -9.824   9.547  0.00  0.00    -0.002 A 
ATOM      8  C   UNL     1      -4.877  -9.059   9.737  0.00  0.00    -0.005 A 
ATOM     26  C   UNL     1      -4.515  -8.652  10.356  0.00  0.00    -0.002 A 
ATOM     27  C   UNL     1      -3.906  -9.008  10.785  0.00  0.00    +0.018 A 
BRANCH   5   2
ATOM      1  C   UNL     1      -2.444 -10.483  11.453  0.00  0.00    +0.182 C 
ATOM      2  S   UNL     1      -3.052 -10.127  11.024  0.00  0.00    +0.010 S 
ATOM      3  O   UNL     1      -2.495  -9.759  10.539  0.00  0.00    -0.169 OA
ATOM      4  O   UNL     1      -3.609 -10.495  11.509  0.00  0.00    -0.169 OA
ENDBRANCH   5   2
ENDBRANCH   9   8
ENDBRANCH  10   9
ENDBRANCH  11  10
BRANCH  14  15
ATOM     15  C   UNL     1      -8.862  -7.677   8.949  0.00  0.00    +0.147 C 
BRANCH  15  16
ATOM     16  N   UNL     1      -9.071  -6.880   8.939  0.00  0.00    -0.203 NA
ATOM     17  C   UNL     1      -9.866  -6.662   8.891  0.00  0.00    +0.241 C 
ATOM     18  O   UNL     1     -10.450  -7.243   8.853  0.00  0.00    -0.273 OA
BRANCH  17  19
ATOM     19  C   UNL     1     -10.074  -5.864   8.882  0.00  0.00    +0.078 C 
ATOM     20  C   UNL     1      -9.673  -5.264   8.484  0.00  0.00    +0.009 C 
ATOM     21  C   UNL     1     -10.070  -4.554   8.624  0.00  0.00    +0.001 C 
ATOM     22  C   UNL     1     -10.718  -4.716   9.110  0.00  0.00    +0.001 C 
ATOM     23  C   UNL     1     -10.719  -5.526   9.269  0.00  0.00    +0.009 C 
ENDBRANCH  17  19
ENDBRANCH  15  16
ENDBRANCH  14  15
TORSDOF 7
ENDMDL
MODEL 10
REMARK VINA RESULT:      -7.3     14.274     16.588
REMARK  Name = 
REMARK  7 active torsions:
REMARK  status: ('A' for Active; 'I' for Inactive)
REMARK    1  A    between atoms: S_2  and  C_5
REMARK    2  A    between atoms: C_8  and  C_9
REMARK    3  A    between atoms: C_9  and  N_10
REMARK    4  A    between atoms: N_10  and  C_11
REMARK    5  A    between atoms: C_14  and  C_15
REMARK    6  A    between atoms: C_15  and  N_16
REMARK    7  A    between atoms: C_17  and  C_19
REMARK                            x       y       z     vdW  Elec       q    Type
REMARK                         _______ _______ _______ _____ _____    ______ ____
ROOT
ATOM     11  C   UNL     1      -5.258 -10.234  13.822  0.00  0.00    +0.135 C 
ATOM     12  C   UNL     1      -4.660 -10.576  14.275  0.00  0.00    +0.162 C 
ATOM     13  O   UNL     1      -4.904 -10.573  15.063  0.00  0.00    -0.350 OA
ATOM     14  C   UNL     1      -5.653 -10.230  15.097  0.00  0.00    +0.169 C 
ATOM     24  C   UNL     1      -5.872 -10.021  14.330  0.00  0.00    +0.199 C 
ATOM     25  O   UNL     1      -6.581  -9.661  14.109  0.00  0.00    -0.219 OA
ENDROOT
BRANCH  11  10
ATOM     10  N   UNL     1      -5.245 -10.126  13.004  0.00  0.00    -0.209 NA
BRANCH  10   9
ATOM      9  C   UNL     1      -4.622 -10.430  12.558  0.00  0.00    +0.115 C 
BRANCH   9   8
ATOM      5  C   UNL     1      -4.447  -9.889  10.149  0.00  0.00    +0.106 A 
ATOM      6  C   UNL     1      -4.047  -9.429  10.704  0.00  0.00    +0.018 A 
ATOM      7  C   UNL     1      -4.105  -9.609  11.507  0.00  0.00    -0.002 A 
ATOM      8  C   UNL     1      -4.564 -10.249  11.755  0.00  0.00    -0.005 A 
ATOM     26  C   UNL     1      -4.964 -10.708  11.198  0.00  0.00    -0.002 A 
ATOM     27  C   UNL     1      -4.906 -10.528  10.395  0.00  0.00    +0.018 A 
BRANCH   5   2
ATOM      1  C   UNL     1      -4.331  -9.529   8.543  0.00  0.00    +0.182 C 
ATOM      2  S   UNL     1      -4.389  -9.709   9.346  0.00  0.00    +0.010 S 
ATOM      3  O   UNL     1      -3.705 -10.166   9.293  0.00  0.00    -0.169 OA
ATOM      4  O   UNL     1      -5.074  -9.251   9.399  0.00  0.00    -0.169 OA
ENDBRANCH   5   2
ENDBRANCH   9   8
ENDBRANCH  10   9
ENDBRANCH  11  10
BRANCH  14  15
ATOM     15  C   UNL     1      -6.104 -10.117  15.778  0.00  0.00    +0.147 C 
BRANCH  15  16
ATOM     16  N   UNL     1      -5.814 -10.359  16.511  0.00  0.00    -0.203 NA
ATOM     17  C   UNL     1      -6.218 -10.158  17.202  0.00  0.00    +0.241 C 
ATOM     18  O   UNL     1      -6.911  -9.714  17.159  0.00  0.00    -0.273 OA
BRANCH  17  19
ATOM     19  C   UNL     1      -5.927 -10.401  17.934  0.00  0.00    +0.078 C 
ATOM     20  C   UNL     1      -5.135 -10.543  18.118  0.00  0.00    +0.009 C 
ATOM     21  C   UNL     1      -5.094 -10.775  18.908  0.00  0.00    +0.001 C 
ATOM     22  C   UNL     1      -5.861 -10.777  19.214  0.00  0.00    +0.001 C 
ATOM     23  C   UNL     1      -6.375 -10.545  18.612  0.00  0.00    +0.009 C 
ENDBRANCH  17  19
ENDBRANCH  15  16
ENDBRANCH  14  15
TORSDOF 7
ENDMDL
