MODEL 1
REMARK VINA RESULT:     -12.4      0.000      0.000
REMARK  Name = 
REMARK  5 active torsions:
REMARK  status: ('A' for Active; 'I' for Inactive)
REMARK    1  A    between atoms: O_2  and  C_3
REMARK    2  A    between atoms: C_3  and  C_4
REMARK    3  A    between atoms: C_4  and  C_5
REMARK    4  A    between atoms: C_14  and  C_21
REMARK    5  A    between atoms: C_24  and  N_25
REMARK                            x       y       z     vdW  Elec       q    Type
REMARK                         _______ _______ _______ _____ _____    ______ ____
ROOT
ATOM      5  C   UNL     1      -2.328   3.420  25.396  0.00  0.00    +0.228 C 
ATOM      6  O   UNL     1      -3.129   3.349  25.210  0.00  0.00    -0.275 OA
ATOM      7  N   UNL     1      -1.841   2.753  25.388  0.00  0.00    -0.279 N 
ATOM      8  C   UNL     1      -1.147   2.295  25.461  0.00  0.00    +0.095 C 
ATOM      9  C   UNL     1      -1.510   1.406  25.230  0.00  0.00    +0.043 C 
ATOM     10  C   UNL     1      -1.651   0.620  25.066  0.00  0.00    +0.011 C 
ATOM     11  C   UNL     1      -2.016   1.219  25.088  0.00  0.00    +0.058 C 
ATOM     12  C   UNL     1      -1.650   2.071  25.313  0.00  0.00    +0.099 C 
ATOM     13  C   UNL     1      -2.864   1.551  24.961  0.00  0.00    +0.041 A 
ATOM     14  C   UNL     1      -3.623   1.306  24.753  0.00  0.00    +0.012 A 
ATOM     15  C   UNL     1      -4.237   1.855  24.714  0.00  0.00    +0.006 A 
ATOM     16  C   UNL     1      -4.092   2.650  24.881  0.00  0.00    +0.061 A 
ATOM     17  C   UNL     1      -3.332   2.895  25.088  0.00  0.00    +0.261 A 
ATOM     18  O   UNL     1      -3.438   3.705  25.203  0.00  0.00    -0.267 OA
ATOM     19  N   UNL     1      -2.718   2.346  25.128  0.00  0.00    -0.299 N 
ATOM     20  C   UNL     1      -2.392   1.762  25.099  0.00  0.00    +0.110 C 
ENDROOT
BRANCH  14  21
ATOM     21  C   UNL     1      -3.769   0.511  24.586  0.00  0.00    +0.001 A 
ATOM     22  C   UNL     1      -3.666   0.225  23.819  0.00  0.00    +0.001 A 
ATOM     23  C   UNL     1      -3.812  -0.569  23.652  0.00  0.00    +0.017 A 
ATOM     24  C   UNL     1      -4.060  -1.079  24.252  0.00  0.00    +0.073 A 
ATOM     29  C   UNL     1      -4.163  -0.793  25.019  0.00  0.00    +0.017 A 
ATOM     30  C   UNL     1      -4.017   0.002  25.186  0.00  0.00    +0.001 A 
BRANCH  24  25
ATOM     25  N   UNL     1      -4.206  -1.872  24.085  0.00  0.00    -0.179 NA
ATOM     26  C   UNL     1      -3.629  -2.440  24.245  0.00  0.00    +0.246 C 
ATOM     27  C   UNL     1      -3.775  -3.235  24.077  0.00  0.00    +0.097 C 
ATOM     28  O   UNL     1      -2.907  -2.213  24.572  0.00  0.00    -0.273 OA
ENDBRANCH  24  25
ENDBRANCH  14  21
BRANCH   5   4
ATOM      4  C   UNL     1      -2.013   4.157  25.590  0.00  0.00    +0.117 C 
BRANCH   4   3
ATOM      3  C   UNL     1      -1.667   4.626  25.005  0.00  0.00    +0.152 C 
BRANCH   3   2
ATOM      1  C   UNL     1      -0.822   5.734  24.689  0.00  0.00    +0.174 C 
ATOM      2  O   UNL     1      -1.357   5.366  25.198  0.00  0.00    -0.351 OA
ENDBRANCH   3   2
ENDBRANCH   4   3
ENDBRANCH   5   4
TORSDOF 5
ENDMDL
MODEL 2
REMARK VINA RESULT:     -11.6      1.083      5.109
REMARK  Name = 
REMARK  5 active torsions:
REMARK  status: ('A' for Active; 'I' for Inactive)
REMARK    1  A    between atoms: O_2  and  C_3
REMARK    2  A    between atoms: C_3  and  C_4
REMARK    3  A    between atoms: C_4  and  C_5
REMARK    4  A    between atoms: C_14  and  C_21
REMARK    5  A    between atoms: C_24  and  N_25
REMARK                            x       y       z     vdW  Elec       q    Type
REMARK                         _______ _______ _______ _____ _____    ______ ____
ROOT
ATOM      5  C   UNL     1      -3.025  -0.946  25.143  0.00  0.00    +0.228 C 
ATOM      6  O   UNL     1      -2.219  -0.889  25.312  0.00  0.00    -0.275 OA
ATOM      7  N   UNL     1      -3.456  -0.267  24.958  0.00  0.00    -0.279 N 
ATOM      8  C   UNL     1      -4.113   0.207  24.751  0.00  0.00    +0.095 C 
ATOM      9  C   UNL     1      -3.676   1.093  24.728  0.00  0.00    +0.043 C 
ATOM     10  C   UNL     1      -3.472   1.880  24.668  0.00  0.00    +0.011 C 
ATOM     11  C   UNL     1      -3.155   1.271  24.818  0.00  0.00    +0.058 C 
ATOM     12  C   UNL     1      -3.592   0.422  24.836  0.00  0.00    +0.099 C 
ATOM     13  C   UNL     1      -2.336   0.921  25.044  0.00  0.00    +0.041 A 
ATOM     14  C   UNL     1      -1.557   1.153  25.183  0.00  0.00    +0.012 A 
ATOM     15  C   UNL     1      -0.989   0.590  25.383  0.00  0.00    +0.006 A 
ATOM     16  C   UNL     1      -1.199  -0.206  25.443  0.00  0.00    +0.061 A 
ATOM     17  C   UNL     1      -1.978  -0.438  25.304  0.00  0.00    +0.261 A 
ATOM     18  O   UNL     1      -1.939  -1.253  25.422  0.00  0.00    -0.267 OA
ATOM     19  N   UNL     1      -2.547   0.126  25.104  0.00  0.00    -0.299 N 
ATOM     20  C   UNL     1      -2.824   0.719  24.964  0.00  0.00    +0.110 C 
ENDROOT
BRANCH  14  21
ATOM     21  C   UNL     1      -1.346   1.949  25.123  0.00  0.00    +0.001 A 
ATOM     22  C   UNL     1      -1.339   2.426  25.796  0.00  0.00    +0.001 A 
ATOM     23  C   UNL     1      -1.128   3.221  25.736  0.00  0.00    +0.017 A 
ATOM     24  C   UNL     1      -0.925   3.540  25.002  0.00  0.00    +0.073 A 
ATOM     29  C   UNL     1      -0.932   3.063  24.329  0.00  0.00    +0.017 A 
ATOM     30  C   UNL     1      -1.143   2.268  24.390  0.00  0.00    +0.001 A 
BRANCH  24  25
ATOM     25  N   UNL     1      -0.715   4.335  24.942  0.00  0.00    -0.179 NA
ATOM     26  C   UNL     1      -1.295   4.919  24.979  0.00  0.00    +0.246 C 
ATOM     27  C   UNL     1      -1.084   5.715  24.918  0.00  0.00    +0.097 C 
ATOM     28  O   UNL     1      -2.087   4.709  25.076  0.00  0.00    -0.273 OA
ENDBRANCH  24  25
ENDBRANCH  14  21
BRANCH   5   4
ATOM      4  C   UNL     1      -3.399  -1.680  25.159  0.00  0.00    +0.117 C 
BRANCH   4   3
ATOM      3  C   UNL     1      -3.376  -2.170  24.496  0.00  0.00    +0.152 C 
BRANCH   3   2
ATOM      1  C   UNL     1      -4.027  -3.252  23.827  0.00  0.00    +0.174 C 
ATOM      2  O   UNL     1      -3.732  -2.915  24.519  0.00  0.00    -0.351 OA
ENDBRANCH   3   2
ENDBRANCH   4   3
ENDBRANCH   5   4
TORSDOF 5
ENDMDL
MODEL 3
REMARK VINA RESULT:     -10.2      2.183      4.114
REMARK  Name = 
REMARK  5 active torsions:
REMARK  status: ('A' for Active; 'I' for Inactive)
REMARK    1  A    between atoms: O_2  and  C_3
REMARK    2  A    between atoms: C_3  and  C_4
REMARK    3  A    between atoms: C_4  and  C_5
REMARK    4  A    between atoms: C_14  and  C_21
REMARK    5  A    between atoms: C_24  and  N_25
REMARK                            x       y       z     vdW  Elec       q    Type
REMARK                         _______ _______ _______ _____ _____    ______ ____
ROOT
ATOM      5  C   UNL     1      -0.058   0.860  24.093  0.00  0.00    +0.228 C 
ATOM      6  O   UNL     1       0.032   1.679  24.138  0.00  0.00    -0.275 OA
ATOM      7  N   UNL     1      -0.798   0.519  24.227  0.00  0.00    -0.279 N 
ATOM      8  C   UNL     1      -1.379  -0.077  24.306  0.00  0.00    +0.095 C 
ATOM      9  C   UNL     1      -2.164   0.484  24.519  0.00  0.00    +0.043 C 
ATOM     10  C   UNL     1      -2.893   0.798  24.701  0.00  0.00    +0.011 C 
ATOM     11  C   UNL     1      -2.243   1.033  24.579  0.00  0.00    +0.058 C 
ATOM     12  C   UNL     1      -1.494   0.477  24.374  0.00  0.00    +0.099 C 
ATOM     13  C   UNL     1      -1.754   1.810  24.534  0.00  0.00    +0.041 A 
ATOM     14  C   UNL     1      -1.839   2.626  24.615  0.00  0.00    +0.012 A 
ATOM     15  C   UNL     1      -1.187   3.121  24.513  0.00  0.00    +0.006 A 
ATOM     16  C   UNL     1      -0.449   2.799  24.329  0.00  0.00    +0.061 A 
ATOM     17  C   UNL     1      -0.364   1.983  24.247  0.00  0.00    +0.261 A 
ATOM     18  O   UNL     1       0.438   1.911  24.068  0.00  0.00    -0.267 OA
ATOM     19  N   UNL     1      -1.016   1.488  24.349  0.00  0.00    -0.299 N 
ATOM     20  C   UNL     1      -1.644   1.291  24.470  0.00  0.00    +0.110 C 
ENDROOT
BRANCH  14  21
ATOM     21  C   UNL     1      -2.576   2.948  24.800  0.00  0.00    +0.001 A 
ATOM     22  C   UNL     1      -3.121   3.100  24.200  0.00  0.00    +0.001 A 
ATOM     23  C   UNL     1      -3.858   3.421  24.384  0.00  0.00    +0.017 A 
ATOM     24  C   UNL     1      -4.051   3.591  25.168  0.00  0.00    +0.073 A 
ATOM     29  C   UNL     1      -3.505   3.439  25.768  0.00  0.00    +0.017 A 
ATOM     30  C   UNL     1      -2.768   3.117  25.584  0.00  0.00    +0.001 A 
BRANCH  24  25
ATOM     25  N   UNL     1      -4.787   3.912  25.352  0.00  0.00    -0.179 NA
ATOM     26  C   UNL     1      -5.415   3.416  25.554  0.00  0.00    +0.246 C 
ATOM     27  C   UNL     1      -6.152   3.738  25.739  0.00  0.00    +0.097 C 
ATOM     28  O   UNL     1      -5.305   2.599  25.572  0.00  0.00    -0.273 OA
ENDBRANCH  24  25
ENDBRANCH  14  21
BRANCH   5   4
ATOM      4  C   UNL     1       0.590   0.382  23.916  0.00  0.00    +0.117 C 
BRANCH   4   3
ATOM      3  C   UNL     1       0.814   0.266  23.131  0.00  0.00    +0.152 C 
BRANCH   3   2
ATOM      1  C   UNL     1       1.769  -0.236  22.193  0.00  0.00    +0.174 C 
ATOM      2  O   UNL     1       1.444  -0.237  22.951  0.00  0.00    -0.351 OA
ENDBRANCH   3   2
ENDBRANCH   4   3
ENDBRANCH   5   4
TORSDOF 5
ENDMDL
MODEL 4
REMARK VINA RESULT:     -10.1      1.907      2.397
REMARK  Name = 
REMARK  5 active torsions:
REMARK  status: ('A' for Active; 'I' for Inactive)
REMARK    1  A    between atoms: O_2  and  C_3
REMARK    2  A    between atoms: C_3  and  C_4
REMARK    3  A    between atoms: C_4  and  C_5
REMARK    4  A    between atoms: C_14  and  C_21
REMARK    5  A    between atoms: C_24  and  N_25
REMARK                            x       y       z     vdW  Elec       q    Type
REMARK                         _______ _______ _______ _____ _____    ______ ____
ROOT
ATOM      5  C   UNL     1      -4.976   2.722  24.765  0.00  0.00    +0.228 C 
ATOM      6  O   UNL     1      -5.405   2.110  25.116  0.00  0.00    -0.275 OA
ATOM      7  N   UNL     1      -4.246   2.565  24.413  0.00  0.00    -0.279 N 
ATOM      8  C   UNL     1      -3.530   2.708  24.007  0.00  0.00    +0.095 C 
ATOM      9  C   UNL     1      -3.158   1.793  24.000  0.00  0.00    +0.043 C 
ATOM     10  C   UNL     1      -2.722   1.111  23.911  0.00  0.00    +0.011 C 
ATOM     11  C   UNL     1      -3.336   1.301  24.194  0.00  0.00    +0.058 C 
ATOM     12  C   UNL     1      -3.682   2.191  24.193  0.00  0.00    +0.099 C 
ATOM     13  C   UNL     1      -4.059   0.958  24.645  0.00  0.00    +0.041 A 
ATOM     14  C   UNL     1      -4.348   0.245  24.944  0.00  0.00    +0.012 A 
ATOM     15  C   UNL     1      -5.076   0.226  25.331  0.00  0.00    +0.006 A 
ATOM     16  C   UNL     1      -5.515   0.919  25.419  0.00  0.00    +0.061 A 
ATOM     17  C   UNL     1      -5.226   1.631  25.120  0.00  0.00    +0.261 A 
ATOM     18  O   UNL     1      -5.825   2.160  25.327  0.00  0.00    -0.267 OA
ATOM     19  N   UNL     1      -4.498   1.651  24.733  0.00  0.00    -0.299 N 
ATOM     20  C   UNL     1      -3.918   1.443  24.471  0.00  0.00    +0.110 C 
ENDROOT
BRANCH  14  21
ATOM     21  C   UNL     1      -3.909  -0.448  24.855  0.00  0.00    +0.001 A 
ATOM     22  C   UNL     1      -3.997  -0.908  24.176  0.00  0.00    +0.001 A 
ATOM     23  C   UNL     1      -3.558  -1.601  24.088  0.00  0.00    +0.017 A 
ATOM     24  C   UNL     1      -3.031  -1.834  24.678  0.00  0.00    +0.073 A 
ATOM     29  C   UNL     1      -2.943  -1.374  25.357  0.00  0.00    +0.017 A 
ATOM     30  C   UNL     1      -3.382  -0.681  25.445  0.00  0.00    +0.001 A 
BRANCH  24  25
ATOM     25  N   UNL     1      -2.592  -2.526  24.590  0.00  0.00    -0.179 NA
ATOM     26  C   UNL     1      -1.793  -2.486  24.387  0.00  0.00    +0.246 C 
ATOM     27  C   UNL     1      -1.354  -3.179  24.298  0.00  0.00    +0.097 C 
ATOM     28  O   UNL     1      -1.434  -1.752  24.271  0.00  0.00    -0.273 OA
ENDBRANCH  24  25
ENDBRANCH  14  21
BRANCH   5   4
ATOM      4  C   UNL     1      -5.277   3.490  24.765  0.00  0.00    +0.117 C 
BRANCH   4   3
ATOM      3  C   UNL     1      -5.352   3.903  25.476  0.00  0.00    +0.152 C 
BRANCH   3   2
ATOM      1  C   UNL     1      -6.083   5.115  25.673  0.00  0.00    +0.174 C 
ATOM      2  O   UNL     1      -5.383   4.728  25.472  0.00  0.00    -0.351 OA
ENDBRANCH   3   2
ENDBRANCH   4   3
ENDBRANCH   5   4
TORSDOF 5
ENDMDL
