MODEL 1
REMARK VINA RESULT:      -9.0      0.000      0.000
REMARK  Name = 
REMARK  8 active torsions:
REMARK  status: ('A' for Active; 'I' for Inactive)
REMARK    1  A    between atoms: O_2  and  C_3
REMARK    2  A    between atoms: C_3  and  C_4
REMARK    3  A    between atoms: C_4  and  O_5
REMARK    4  A    between atoms: O_5  and  C_6
REMARK    5  A    between atoms: C_9  and  C_12
REMARK    6  A    between atoms: C_15  and  C_17
REMARK    7  A    between atoms: N_21  and  C_22
REMARK    8  A    between atoms: C_22  and  C_23
REMARK                            x       y       z     vdW  Elec       q    Type
REMARK                         _______ _______ _______ _____ _____    ______ ____
ROOT
ATOM     12  C   UNL     1      -1.057   0.110  24.511  0.00  0.00    +0.205 A 
ATOM     13  N   UNL     1      -1.093   0.110  25.336  0.00  0.00    -0.056 NA
ATOM     14  O   UNL     1      -1.889   0.121  25.556  0.00  0.00    -0.336 OA
ATOM     15  C   UNL     1      -2.344   0.128  24.868  0.00  0.00    +0.251 A 
ATOM     16  N   UNL     1      -1.830   0.121  24.223  0.00  0.00    -0.190 NA
ENDROOT
BRANCH  12   9
ATOM      6  C   UNL     1       1.007   0.083  23.147  0.00  0.00    +0.225 A 
ATOM      7  C   UNL     1       0.658   0.802  23.352  0.00  0.00    +0.058 A 
ATOM      8  C   UNL     1      -0.031   0.811  23.807  0.00  0.00    +0.010 A 
ATOM      9  C   UNL     1      -0.369   0.101  24.056  0.00  0.00    +0.058 A 
ATOM     10  C   UNL     1      -0.020  -0.617  23.851  0.00  0.00    +0.105 A 
ATOM     11  N   UNL     1       0.668  -0.626  23.396  0.00  0.00    -0.210 NA
BRANCH   6   5
ATOM      5  O   UNL     1       1.695   0.074  22.692  0.00  0.00    -0.457 OA
BRANCH   5   4
ATOM      4  C   UNL     1       2.381   0.434  22.974  0.00  0.00    +0.239 C 
BRANCH   4   3
ATOM      3  C   UNL     1       3.094   0.337  22.570  0.00  0.00    +0.189 C 
BRANCH   3   2
ATOM      1  C   UNL     1       4.478   0.533  22.871  0.00  0.00    +0.174 C 
ATOM      2  O   UNL     1       3.728   0.844  22.725  0.00  0.00    -0.347 OA
ENDBRANCH   3   2
ENDBRANCH   4   3
ENDBRANCH   5   4
ENDBRANCH   6   5
ENDBRANCH  12   9
BRANCH  15  17
ATOM     17  C   UNL     1      -3.168   0.139  24.831  0.00  0.00    +0.138 C 
ATOM     18  C   UNL     1      -3.662  -0.522  24.818  0.00  0.00    +0.027 C 
ATOM     19  C   UNL     1      -4.442  -0.256  24.780  0.00  0.00    +0.019 C 
ATOM     20  C   UNL     1      -4.430   0.569  24.770  0.00  0.00    +0.073 C 
ATOM     21  N   UNL     1      -3.643   0.813  24.802  0.00  0.00    -0.263 NA
BRANCH  21  22
ATOM     22  C   UNL     1      -3.377   1.594  24.804  0.00  0.00    +0.099 C 
BRANCH  22  23
ATOM     23  C   UNL     1      -3.908   2.210  24.938  0.00  0.00    -0.006 A 
ATOM     24  C   UNL     1      -4.270   2.590  24.301  0.00  0.00    -0.002 A 
ATOM     25  C   UNL     1      -4.801   3.207  24.436  0.00  0.00    +0.011 A 
ATOM     26  C   UNL     1      -4.972   3.443  25.207  0.00  0.00    +0.058 A 
ATOM     27 CL   UNL     1      -5.503   4.060  25.342  0.00  0.00    -0.082 Cl
ATOM     28  C   UNL     1      -4.611   3.064  25.845  0.00  0.00    +0.011 A 
ATOM     29  C   UNL     1      -4.079   2.447  25.710  0.00  0.00    -0.002 A 
ENDBRANCH  22  23
ENDBRANCH  21  22
ENDBRANCH  15  17
TORSDOF 8
ENDMDL
MODEL 2
REMARK VINA RESULT:      -8.4      2.353      3.811
REMARK  Name = 
REMARK  8 active torsions:
REMARK  status: ('A' for Active; 'I' for Inactive)
REMARK    1  A    between atoms: O_2  and  C_3
REMARK    2  A    between atoms: C_3  and  C_4
REMARK    3  A    between atoms: C_4  and  O_5
REMARK    4  A    between atoms: O_5  and  C_6
REMARK    5  A    between atoms: C_9  and  C_12
REMARK    6  A    between atoms: C_15  and  C_17
REMARK    7  A    between atoms: N_21  and  C_22
REMARK    8  A    between atoms: C_22  and  C_23
REMARK                            x       y       z     vdW  Elec       q    Type
REMARK                         _______ _______ _______ _____ _____    ______ ____
ROOT
ATOM     12  C   UNL     1      -0.514   1.657  25.272  0.00  0.00    +0.205 A 
ATOM     13  N   UNL     1       0.152   1.995  25.624  0.00  0.00    -0.056 NA
ATOM     14  O   UNL     1       0.039   2.812  25.651  0.00  0.00    -0.336 OA
ATOM     15  C   UNL     1      -0.696   2.979  25.317  0.00  0.00    +0.251 A 
ATOM     16  N   UNL     1      -1.037   2.265  25.082  0.00  0.00    -0.190 NA
ENDROOT
BRANCH  12   9
ATOM      6  C   UNL     1      -0.874  -0.756  24.858  0.00  0.00    +0.225 A 
ATOM      7  C   UNL     1      -1.064  -0.430  25.592  0.00  0.00    +0.058 A 
ATOM      8  C   UNL     1      -0.944   0.375  25.730  0.00  0.00    +0.010 A 
ATOM      9  C   UNL     1      -0.634   0.853  25.134  0.00  0.00    +0.058 A 
ATOM     10  C   UNL     1      -0.443   0.528  24.400  0.00  0.00    +0.105 A 
ATOM     11  N   UNL     1      -0.563  -0.277  24.263  0.00  0.00    -0.210 NA
BRANCH   6   5
ATOM      5  O   UNL     1      -0.994  -1.561  24.720  0.00  0.00    -0.457 OA
BRANCH   5   4
ATOM      4  C   UNL     1      -1.703  -1.821  24.390  0.00  0.00    +0.239 C 
BRANCH   4   3
ATOM      3  C   UNL     1      -1.968  -2.588  24.535  0.00  0.00    +0.189 C 
BRANCH   3   2
ATOM      1  C   UNL     1      -3.333  -3.014  24.543  0.00  0.00    +0.174 C 
ATOM      2  O   UNL     1      -2.628  -2.880  24.134  0.00  0.00    -0.347 OA
ENDBRANCH   3   2
ENDBRANCH   4   3
ENDBRANCH   5   4
ENDBRANCH   6   5
ENDBRANCH  12   9
BRANCH  15  17
ATOM     17  C   UNL     1      -1.031   3.728  25.231  0.00  0.00    +0.138 C 
ATOM     18  C   UNL     1      -0.666   4.387  24.895  0.00  0.00    +0.027 C 
ATOM     19  C   UNL     1      -1.200   5.016  24.923  0.00  0.00    +0.019 C 
ATOM     20  C   UNL     1      -1.894   4.746  25.276  0.00  0.00    +0.073 C 
ATOM     21  N   UNL     1      -1.790   3.950  25.467  0.00  0.00    -0.263 NA
BRANCH  21  22
ATOM     22  C   UNL     1      -2.347   3.461  25.829  0.00  0.00    +0.099 C 
BRANCH  22  23
ATOM     23  C   UNL     1      -3.152   3.599  25.716  0.00  0.00    -0.006 A 
ATOM     24  C   UNL     1      -3.582   4.023  26.280  0.00  0.00    -0.002 A 
ATOM     25  C   UNL     1      -4.387   4.160  26.166  0.00  0.00    +0.011 A 
ATOM     26  C   UNL     1      -4.763   3.875  25.491  0.00  0.00    +0.058 A 
ATOM     27 CL   UNL     1      -5.569   4.013  25.377  0.00  0.00    -0.082 Cl
ATOM     28  C   UNL     1      -4.335   3.451  24.927  0.00  0.00    +0.011 A 
ATOM     29  C   UNL     1      -3.529   3.314  25.040  0.00  0.00    -0.002 A 
ENDBRANCH  22  23
ENDBRANCH  21  22
ENDBRANCH  15  17
TORSDOF 8
ENDMDL
MODEL 3
REMARK VINA RESULT:      -8.3      1.363      1.989
REMARK  Name = 
REMARK  8 active torsions:
REMARK  status: ('A' for Active; 'I' for Inactive)
REMARK    1  A    between atoms: O_2  and  C_3
REMARK    2  A    between atoms: C_3  and  C_4
REMARK    3  A    between atoms: C_4  and  O_5
REMARK    4  A    between atoms: O_5  and  C_6
REMARK    5  A    between atoms: C_9  and  C_12
REMARK    6  A    between atoms: C_15  and  C_17
REMARK    7  A    between atoms: N_21  and  C_22
REMARK    8  A    between atoms: C_22  and  C_23
REMARK                            x       y       z     vdW  Elec       q    Type
REMARK                         _______ _______ _______ _____ _____    ______ ____
ROOT
ATOM     12  C   UNL     1      -0.456   1.405  24.694  0.00  0.00    +0.205 A 
ATOM     13  N   UNL     1      -0.753   1.003  25.351  0.00  0.00    -0.056 NA
ATOM     14  O   UNL     1      -1.362   1.458  25.674  0.00  0.00    -0.336 OA
ATOM     15  C   UNL     1      -1.440   2.140  25.217  0.00  0.00    +0.251 A 
ATOM     16  N   UNL     1      -0.881   2.107  24.611  0.00  0.00    -0.190 NA
ENDROOT
BRANCH  12   9
ATOM      6  C   UNL     1       1.385   0.636  23.230  0.00  0.00    +0.225 A 
ATOM      7  C   UNL     1       0.698   0.184  23.301  0.00  0.00    +0.058 A 
ATOM      8  C   UNL     1       0.084   0.441  23.789  0.00  0.00    +0.010 A 
ATOM      9  C   UNL     1       0.158   1.149  24.206  0.00  0.00    +0.058 A 
ATOM     10  C   UNL     1       0.844   1.600  24.136  0.00  0.00    +0.105 A 
ATOM     11  N   UNL     1       1.458   1.344  23.648  0.00  0.00    -0.210 NA
BRANCH   6   5
ATOM      5  O   UNL     1       1.999   0.380  22.742  0.00  0.00    -0.457 OA
BRANCH   5   4
ATOM      4  C   UNL     1       2.781   0.554  22.938  0.00  0.00    +0.239 C 
BRANCH   4   3
ATOM      3  C   UNL     1       3.397   0.266  22.470  0.00  0.00    +0.189 C 
BRANCH   3   2
ATOM      1  C   UNL     1       4.728   0.334  22.985  0.00  0.00    +0.174 C 
ATOM      2  O   UNL     1       4.137   0.630  22.492  0.00  0.00    -0.347 OA
ENDBRANCH   3   2
ENDBRANCH   4   3
ENDBRANCH   5   4
ENDBRANCH   6   5
ENDBRANCH  12   9
BRANCH  15  17
ATOM     17  C   UNL     1      -1.983   2.748  25.343  0.00  0.00    +0.138 C 
ATOM     18  C   UNL     1      -1.831   3.461  25.730  0.00  0.00    +0.027 C 
ATOM     19  C   UNL     1      -2.528   3.904  25.730  0.00  0.00    +0.019 C 
ATOM     20  C   UNL     1      -3.109   3.465  25.343  0.00  0.00    +0.073 C 
ATOM     21  N   UNL     1      -2.773   2.751  25.104  0.00  0.00    -0.263 NA
BRANCH  21  22
ATOM     22  C   UNL     1      -3.158   2.146  24.696  0.00  0.00    +0.099 C 
BRANCH  22  23
ATOM     23  C   UNL     1      -3.976   2.061  24.762  0.00  0.00    -0.006 A 
ATOM     24  C   UNL     1      -4.292   1.477  25.252  0.00  0.00    -0.002 A 
ATOM     25  C   UNL     1      -5.109   1.391  25.317  0.00  0.00    +0.011 A 
ATOM     26  C   UNL     1      -5.612   1.889  24.893  0.00  0.00    +0.058 A 
ATOM     27 CL   UNL     1      -6.430   1.804  24.958  0.00  0.00    -0.082 Cl
ATOM     28  C   UNL     1      -5.296   2.473  24.402  0.00  0.00    +0.011 A 
ATOM     29  C   UNL     1      -4.478   2.559  24.337  0.00  0.00    -0.002 A 
ENDBRANCH  22  23
ENDBRANCH  21  22
ENDBRANCH  15  17
TORSDOF 8
ENDMDL
MODEL 4
REMARK VINA RESULT:      -8.3      3.071      4.115
REMARK  Name = 
REMARK  8 active torsions:
REMARK  status: ('A' for Active; 'I' for Inactive)
REMARK    1  A    between atoms: O_2  and  C_3
REMARK    2  A    between atoms: C_3  and  C_4
REMARK    3  A    between atoms: C_4  and  O_5
REMARK    4  A    between atoms: O_5  and  C_6
REMARK    5  A    between atoms: C_9  and  C_12
REMARK    6  A    between atoms: C_15  and  C_17
REMARK    7  A    between atoms: N_21  and  C_22
REMARK    8  A    between atoms: C_22  and  C_23
REMARK                            x       y       z     vdW  Elec       q    Type
REMARK                         _______ _______ _______ _____ _____    ______ ____
ROOT
ATOM     12  C   UNL     1      -1.966   2.174  25.023  0.00  0.00    +0.205 A 
ATOM     13  N   UNL     1      -2.136   2.451  24.264  0.00  0.00    -0.056 NA
ATOM     14  O   UNL     1      -2.883   2.172  24.052  0.00  0.00    -0.336 OA
ATOM     15  C   UNL     1      -3.175   1.723  24.680  0.00  0.00    +0.251 A 
ATOM     16  N   UNL     1      -2.608   1.725  25.280  0.00  0.00    -0.190 NA
ENDROOT
BRANCH  12   9
ATOM      6  C   UNL     1       0.106   2.617  26.302  0.00  0.00    +0.225 A 
ATOM      7  C   UNL     1      -0.465   3.208  26.223  0.00  0.00    +0.058 A 
ATOM      8  C   UNL     1      -1.155   3.061  25.796  0.00  0.00    +0.010 A 
ATOM      9  C   UNL     1      -1.275   2.322  25.449  0.00  0.00    +0.058 A 
ATOM     10  C   UNL     1      -0.706   1.731  25.528  0.00  0.00    +0.105 A 
ATOM     11  N   UNL     1      -0.015   1.879  25.955  0.00  0.00    -0.210 NA
BRANCH   6   5
ATOM      5  O   UNL     1       0.797   2.764  26.728  0.00  0.00    -0.457 OA
BRANCH   5   4
ATOM      4  C   UNL     1       0.830   2.586  27.533  0.00  0.00    +0.239 C 
BRANCH   4   3
ATOM      3  C   UNL     1       1.525   2.723  27.956  0.00  0.00    +0.189 C 
BRANCH   3   2
ATOM      1  C   UNL     1       2.258   2.638  29.181  0.00  0.00    +0.174 C 
ATOM      2  O   UNL     1       1.542   2.598  28.772  0.00  0.00    -0.347 OA
ENDBRANCH   3   2
ENDBRANCH   4   3
ENDBRANCH   5   4
ENDBRANCH   6   5
ENDBRANCH  12   9
BRANCH  15  17
ATOM     17  C   UNL     1      -3.905   1.340  24.705  0.00  0.00    +0.138 C 
ATOM     18  C   UNL     1      -4.616   1.669  24.964  0.00  0.00    +0.027 C 
ATOM     19  C   UNL     1      -5.204   1.093  24.894  0.00  0.00    +0.019 C 
ATOM     20  C   UNL     1      -4.855   0.410  24.591  0.00  0.00    +0.073 C 
ATOM     21  N   UNL     1      -4.053   0.562  24.474  0.00  0.00    -0.263 NA
BRANCH  21  22
ATOM     22  C   UNL     1      -3.496   0.030  24.178  0.00  0.00    +0.099 C 
BRANCH  22  23
ATOM     23  C   UNL     1      -3.620  -0.781  24.254  0.00  0.00    -0.006 A 
ATOM     24  C   UNL     1      -3.338  -1.182  24.918  0.00  0.00    -0.002 A 
ATOM     25  C   UNL     1      -3.462  -1.993  24.994  0.00  0.00    +0.011 A 
ATOM     26  C   UNL     1      -3.868  -2.406  24.406  0.00  0.00    +0.058 A 
ATOM     27 CL   UNL     1      -3.992  -3.218  24.482  0.00  0.00    -0.082 Cl
ATOM     28  C   UNL     1      -4.151  -2.006  23.742  0.00  0.00    +0.011 A 
ATOM     29  C   UNL     1      -4.026  -1.194  23.666  0.00  0.00    -0.002 A 
ENDBRANCH  22  23
ENDBRANCH  21  22
ENDBRANCH  15  17
TORSDOF 8
ENDMDL
MODEL 5
REMARK VINA RESULT:      -8.2      2.027      3.016
REMARK  Name = 
REMARK  8 active torsions:
REMARK  status: ('A' for Active; 'I' for Inactive)
REMARK    1  A    between atoms: O_2  and  C_3
REMARK    2  A    between atoms: C_3  and  C_4
REMARK    3  A    between atoms: C_4  and  O_5
REMARK    4  A    between atoms: O_5  and  C_6
REMARK    5  A    between atoms: C_9  and  C_12
REMARK    6  A    between atoms: C_15  and  C_17
REMARK    7  A    between atoms: N_21  and  C_22
REMARK    8  A    between atoms: C_22  and  C_23
REMARK                            x       y       z     vdW  Elec       q    Type
REMARK                         _______ _______ _______ _____ _____    ______ ____
ROOT
ATOM     12  C   UNL     1      -0.113   1.007  24.024  0.00  0.00    +0.205 A 
ATOM     13  N   UNL     1      -0.238   1.410  24.733  0.00  0.00    -0.056 NA
ATOM     14  O   UNL     1      -1.051   1.428  24.877  0.00  0.00    -0.336 OA
ATOM     15  C   UNL     1      -1.428   1.036  24.256  0.00  0.00    +0.251 A 
ATOM     16  N   UNL     1      -0.848   0.776  23.729  0.00  0.00    -0.190 NA
ENDROOT
BRANCH  12   9
ATOM      6  C   UNL     1       2.082   0.569  22.967  0.00  0.00    +0.225 A 
ATOM      7  C   UNL     1       1.472   0.017  22.897  0.00  0.00    +0.058 A 
ATOM      8  C   UNL     1       0.741   0.163  23.249  0.00  0.00    +0.010 A 
ATOM      9  C   UNL     1       0.619   0.861  23.672  0.00  0.00    +0.058 A 
ATOM     10  C   UNL     1       1.227   1.413  23.742  0.00  0.00    +0.105 A 
ATOM     11  N   UNL     1       1.959   1.267  23.390  0.00  0.00    -0.210 NA
BRANCH   6   5
ATOM      5  O   UNL     1       2.813   0.423  22.615  0.00  0.00    -0.457 OA
BRANCH   5   4
ATOM      4  C   UNL     1       3.505   0.683  22.980  0.00  0.00    +0.239 C 
BRANCH   4   3
ATOM      3  C   UNL     1       4.234   0.372  22.751  0.00  0.00    +0.189 C 
BRANCH   3   2
ATOM      1  C   UNL     1       5.496   0.061  23.347  0.00  0.00    +0.174 C 
ATOM      2  O   UNL     1       4.926   0.617  23.131  0.00  0.00    -0.347 OA
ENDBRANCH   3   2
ENDBRANCH   4   3
ENDBRANCH   5   4
ENDBRANCH   6   5
ENDBRANCH  12   9
BRANCH  15  17
ATOM     17  C   UNL     1      -2.241   0.924  24.176  0.00  0.00    +0.138 C 
ATOM     18  C   UNL     1      -2.757   1.406  23.750  0.00  0.00    +0.027 C 
ATOM     19  C   UNL     1      -3.517   1.090  23.818  0.00  0.00    +0.019 C 
ATOM     20  C   UNL     1      -3.469   0.412  24.287  0.00  0.00    +0.073 C 
ATOM     21  N   UNL     1      -2.681   0.310  24.508  0.00  0.00    -0.263 NA
BRANCH  21  22
ATOM     22  C   UNL     1      -2.385  -0.300  24.978  0.00  0.00    +0.099 C 
BRANCH  22  23
ATOM     23  C   UNL     1      -2.724  -1.051  24.942  0.00  0.00    -0.006 A 
ATOM     24  C   UNL     1      -3.326  -1.257  25.467  0.00  0.00    -0.002 A 
ATOM     25  C   UNL     1      -3.665  -2.008  25.431  0.00  0.00    +0.011 A 
ATOM     26  C   UNL     1      -3.403  -2.553  24.870  0.00  0.00    +0.058 A 
ATOM     27 CL   UNL     1      -3.742  -3.305  24.834  0.00  0.00    -0.082 Cl
ATOM     28  C   UNL     1      -2.801  -2.347  24.345  0.00  0.00    +0.011 A 
ATOM     29  C   UNL     1      -2.461  -1.595  24.381  0.00  0.00    -0.002 A 
ENDBRANCH  22  23
ENDBRANCH  21  22
ENDBRANCH  15  17
TORSDOF 8
ENDMDL
MODEL 6
REMARK VINA RESULT:      -8.1      1.774      2.054
REMARK  Name = 
REMARK  8 active torsions:
REMARK  status: ('A' for Active; 'I' for Inactive)
REMARK    1  A    between atoms: O_2  and  C_3
REMARK    2  A    between atoms: C_3  and  C_4
REMARK    3  A    between atoms: C_4  and  O_5
REMARK    4  A    between atoms: O_5  and  C_6
REMARK    5  A    between atoms: C_9  and  C_12
REMARK    6  A    between atoms: C_15  and  C_17
REMARK    7  A    between atoms: N_21  and  C_22
REMARK    8  A    between atoms: C_22  and  C_23
REMARK                            x       y       z     vdW  Elec       q    Type
REMARK                         _______ _______ _______ _____ _____    ______ ____
ROOT
ATOM     12  C   UNL     1      -0.264   0.478  23.845  0.00  0.00    +0.205 A 
ATOM     13  N   UNL     1      -0.575  -0.005  24.439  0.00  0.00    -0.056 NA
ATOM     14  O   UNL     1      -1.337   0.261  24.611  0.00  0.00    -0.336 OA
ATOM     15  C   UNL     1      -1.497   0.907  24.124  0.00  0.00    +0.251 A 
ATOM     16  N   UNL     1      -0.834   1.041  23.651  0.00  0.00    -0.190 NA
ENDROOT
BRANCH  12   9
ATOM      6  C   UNL     1       1.983   0.270  22.829  0.00  0.00    +0.225 A 
ATOM      7  C   UNL     1       1.407  -0.303  22.679  0.00  0.00    +0.058 A 
ATOM      8  C   UNL     1       0.658  -0.233  23.017  0.00  0.00    +0.010 A 
ATOM      9  C   UNL     1       0.485   0.408  23.507  0.00  0.00    +0.058 A 
ATOM     10  C   UNL     1       1.060   0.980  23.657  0.00  0.00    +0.105 A 
ATOM     11  N   UNL     1       1.809   0.910  23.319  0.00  0.00    -0.210 NA
BRANCH   6   5
ATOM      5  O   UNL     1       2.732   0.200  22.490  0.00  0.00    -0.457 OA
BRANCH   5   4
ATOM      4  C   UNL     1       3.385   0.540  22.861  0.00  0.00    +0.239 C 
BRANCH   4   3
ATOM      3  C   UNL     1       4.145   0.273  22.685  0.00  0.00    +0.189 C 
BRANCH   3   2
ATOM      1  C   UNL     1       5.398   0.112  23.354  0.00  0.00    +0.174 C 
ATOM      2  O   UNL     1       4.798   0.601  23.069  0.00  0.00    -0.347 OA
ENDBRANCH   3   2
ENDBRANCH   4   3
ENDBRANCH   5   4
ENDBRANCH   6   5
ENDBRANCH  12   9
BRANCH  15  17
ATOM     17  C   UNL     1      -2.197   1.343  24.111  0.00  0.00    +0.138 C 
ATOM     18  C   UNL     1      -2.862   1.180  23.650  0.00  0.00    +0.027 C 
ATOM     19  C   UNL     1      -3.432   1.755  23.811  0.00  0.00    +0.019 C 
ATOM     20  C   UNL     1      -3.119   2.273  24.372  0.00  0.00    +0.073 C 
ATOM     21  N   UNL     1      -2.356   2.018  24.558  0.00  0.00    -0.263 NA
BRANCH  21  22
ATOM     22  C   UNL     1      -1.843   2.376  25.095  0.00  0.00    +0.099 C 
BRANCH  22  23
ATOM     23  C   UNL     1      -1.825   3.198  25.163  0.00  0.00    -0.006 A 
ATOM     24  C   UNL     1      -1.236   3.630  24.779  0.00  0.00    -0.002 A 
ATOM     25  C   UNL     1      -1.217   4.452  24.847  0.00  0.00    +0.011 A 
ATOM     26  C   UNL     1      -1.786   4.842  25.298  0.00  0.00    +0.058 A 
ATOM     27 CL   UNL     1      -1.767   5.664  25.366  0.00  0.00    -0.082 Cl
ATOM     28  C   UNL     1      -2.375   4.410  25.682  0.00  0.00    +0.011 A 
ATOM     29  C   UNL     1      -2.394   3.588  25.614  0.00  0.00    -0.002 A 
ENDBRANCH  22  23
ENDBRANCH  21  22
ENDBRANCH  15  17
TORSDOF 8
ENDMDL
MODEL 7
REMARK VINA RESULT:      -7.9      3.032      4.164
REMARK  Name = 
REMARK  8 active torsions:
REMARK  status: ('A' for Active; 'I' for Inactive)
REMARK    1  A    between atoms: O_2  and  C_3
REMARK    2  A    between atoms: C_3  and  C_4
REMARK    3  A    between atoms: C_4  and  O_5
REMARK    4  A    between atoms: O_5  and  C_6
REMARK    5  A    between atoms: C_9  and  C_12
REMARK    6  A    between atoms: C_15  and  C_17
REMARK    7  A    between atoms: N_21  and  C_22
REMARK    8  A    between atoms: C_22  and  C_23
REMARK                            x       y       z     vdW  Elec       q    Type
REMARK                         _______ _______ _______ _____ _____    ______ ____
ROOT
ATOM     12  C   UNL     1      -4.712   0.639  24.889  0.00  0.00    +0.205 A 
ATOM     13  N   UNL     1      -5.468   0.753  24.577  0.00  0.00    -0.056 NA
ATOM     14  O   UNL     1      -5.681   1.540  24.706  0.00  0.00    -0.336 OA
ATOM     15  C   UNL     1      -5.057   1.912  25.097  0.00  0.00    +0.251 A 
ATOM     16  N   UNL     1      -4.458   1.355  25.210  0.00  0.00    -0.190 NA
ENDROOT
BRANCH  12   9
ATOM      6  C   UNL     1      -3.432  -1.479  24.863  0.00  0.00    +0.225 A 
ATOM      7  C   UNL     1      -3.712  -1.157  24.157  0.00  0.00    +0.058 A 
ATOM      8  C   UNL     1      -4.138  -0.451  24.165  0.00  0.00    +0.010 A 
ATOM      9  C   UNL     1      -4.285  -0.067  24.880  0.00  0.00    +0.058 A 
ATOM     10  C   UNL     1      -4.006  -0.388  25.586  0.00  0.00    +0.105 A 
ATOM     11  N   UNL     1      -3.579  -1.094  25.578  0.00  0.00    -0.210 NA
BRANCH   6   5
ATOM      5  O   UNL     1      -3.005  -2.185  24.855  0.00  0.00    -0.457 OA
BRANCH   5   4
ATOM      4  C   UNL     1      -2.248  -2.205  24.529  0.00  0.00    +0.239 C 
BRANCH   4   3
ATOM      3  C   UNL     1      -1.646  -2.620  24.912  0.00  0.00    +0.189 C 
BRANCH   3   2
ATOM      1  C   UNL     1      -0.293  -2.258  25.200  0.00  0.00    +0.174 C 
ATOM      2  O   UNL     1      -0.862  -2.528  24.667  0.00  0.00    -0.347 OA
ENDBRANCH   3   2
ENDBRANCH   4   3
ENDBRANCH   5   4
ENDBRANCH   6   5
ENDBRANCH  12   9
BRANCH  15  17
ATOM     17  C   UNL     1      -5.035   2.702  25.334  0.00  0.00    +0.138 C 
ATOM     18  C   UNL     1      -5.668   3.134  25.641  0.00  0.00    +0.027 C 
ATOM     19  C   UNL     1      -5.401   3.898  25.802  0.00  0.00    +0.019 C 
ATOM     20  C   UNL     1      -4.604   3.938  25.595  0.00  0.00    +0.073 C 
ATOM     21  N   UNL     1      -4.377   3.199  25.305  0.00  0.00    -0.263 NA
BRANCH  21  22
ATOM     22  C   UNL     1      -3.626   2.993  25.035  0.00  0.00    +0.099 C 
BRANCH  22  23
ATOM     23  C   UNL     1      -3.010   3.540  25.073  0.00  0.00    -0.006 A 
ATOM     24  C   UNL     1      -2.543   3.589  25.752  0.00  0.00    -0.002 A 
ATOM     25  C   UNL     1      -1.927   4.136  25.790  0.00  0.00    +0.011 A 
ATOM     26  C   UNL     1      -1.777   4.635  25.151  0.00  0.00    +0.058 A 
ATOM     27 CL   UNL     1      -1.161   5.182  25.189  0.00  0.00    -0.082 Cl
ATOM     28  C   UNL     1      -2.244   4.586  24.472  0.00  0.00    +0.011 A 
ATOM     29  C   UNL     1      -2.860   4.038  24.434  0.00  0.00    -0.002 A 
ENDBRANCH  22  23
ENDBRANCH  21  22
ENDBRANCH  15  17
TORSDOF 8
ENDMDL
