MODEL 1
REMARK VINA RESULT:     -10.5      0.000      0.000
REMARK  Name = 
REMARK  9 active torsions:
REMARK  status: ('A' for Active; 'I' for Inactive)
REMARK    1  A    between atoms: O_2  and  C_3
REMARK    2  A    between atoms: C_3  and  C_4
REMARK    3  A    between atoms: C_4  and  N_5
REMARK    4  A    between atoms: C_6  and  C_8
REMARK    5  A    between atoms: C_8  and  C_9
REMARK    6  A    between atoms: C_11  and  C_12
REMARK    7  A    between atoms: C_15  and  C_16
REMARK    8  A    between atoms: C_16  and  N_17
REMARK    9  A    between atoms: C_18  and  C_20
REMARK                            x       y       z     vdW  Elec       q    Type
REMARK                         _______ _______ _______ _____ _____    ______ ____
ROOT
ATOM      9  C   UNL     1      -4.308   2.221  24.776  0.00  0.00    +0.027 C 
ATOM     10  C   UNL     1      -3.666   2.063  24.283  0.00  0.00    +0.005 C 
ATOM     11  C   UNL     1      -3.479   1.283  24.087  0.00  0.00    +0.006 C 
ATOM     15  C   UNL     1      -3.935   0.663  24.383  0.00  0.00    +0.043 C 
ATOM     27  C   UNL     1      -4.578   0.821  24.876  0.00  0.00    -0.033 C 
ATOM     28  C   UNL     1      -4.764   1.601  25.072  0.00  0.00    -0.048 C 
ATOM     29  C   UNL     1      -5.406   1.759  25.565  0.00  0.00    +0.026 C 
ENDROOT
BRANCH  11  12
ATOM     12  C   UNL     1      -2.836   1.124  23.593  0.00  0.00    +0.000 C 
ATOM     13  C   UNL     1      -2.079   1.059  23.913  0.00  0.00    +0.000 C 
ATOM     14  C   UNL     1      -2.952   1.031  22.782  0.00  0.00    +0.000 C 
ENDBRANCH  11  12
BRANCH   9   8
ATOM      8  C   UNL     1      -4.494   3.001  24.972  0.00  0.00    +0.091 C 
BRANCH   8   6
ATOM      5  N   UNL     1      -3.397   3.852  25.311  0.00  0.00    -0.203 NA
ATOM      6  C   UNL     1      -3.974   3.611  24.773  0.00  0.00    +0.242 C 
ATOM      7  O   UNL     1      -4.033   3.979  24.037  0.00  0.00    -0.273 OA
BRANCH   5   4
ATOM      4  C   UNL     1      -2.877   4.462  25.112  0.00  0.00    +0.147 C 
BRANCH   4   3
ATOM      3  C   UNL     1      -2.174   4.557  25.531  0.00  0.00    +0.166 C 
BRANCH   3   2
ATOM      1  C   UNL     1      -0.901   4.969  25.028  0.00  0.00    +0.174 C 
ATOM      2  O   UNL     1      -1.648   5.159  25.323  0.00  0.00    -0.349 OA
ENDBRANCH   3   2
ENDBRANCH   4   3
ENDBRANCH   5   4
ENDBRANCH   8   6
ENDBRANCH   9   8
BRANCH  15  16
ATOM     16  C   UNL     1      -3.749  -0.117  24.186  0.00  0.00    +0.120 C 
BRANCH  16  17
ATOM     17  N   UNL     1      -4.348  -0.645  23.977  0.00  0.00    -0.201 NA
ATOM     18  C   UNL     1      -4.237  -1.455  24.078  0.00  0.00    +0.265 C 
ATOM     19  O   UNL     1      -4.836  -1.982  23.869  0.00  0.00    -0.268 OA
BRANCH  18  20
ATOM     20  C   UNL     1      -3.528  -1.739  24.387  0.00  0.00    +0.055 A 
ATOM     21  C   UNL     1      -2.936  -2.010  23.881  0.00  0.00    +0.004 A 
ATOM     22  C   UNL     1      -2.225  -2.294  24.191  0.00  0.00    -0.004 A 
ATOM     23  C   UNL     1      -2.108  -2.308  25.007  0.00  0.00    -0.022 A 
ATOM     24  C   UNL     1      -1.398  -2.592  25.317  0.00  0.00    +0.031 C 
ATOM     25  C   UNL     1      -2.701  -2.037  25.514  0.00  0.00    -0.004 A 
ATOM     26  C   UNL     1      -3.410  -1.753  25.204  0.00  0.00    +0.004 A 
ENDBRANCH  18  20
ENDBRANCH  16  17
ENDBRANCH  15  16
TORSDOF 9
ENDMDL
MODEL 2
REMARK VINA RESULT:      -9.9      1.016      4.857
REMARK  Name = 
REMARK  9 active torsions:
REMARK  status: ('A' for Active; 'I' for Inactive)
REMARK    1  A    between atoms: O_2  and  C_3
REMARK    2  A    between atoms: C_3  and  C_4
REMARK    3  A    between atoms: C_4  and  N_5
REMARK    4  A    between atoms: C_6  and  C_8
REMARK    5  A    between atoms: C_8  and  C_9
REMARK    6  A    between atoms: C_11  and  C_12
REMARK    7  A    between atoms: C_15  and  C_16
REMARK    8  A    between atoms: C_16  and  N_17
REMARK    9  A    between atoms: C_18  and  C_20
REMARK                            x       y       z     vdW  Elec       q    Type
REMARK                         _______ _______ _______ _____ _____    ______ ____
ROOT
ATOM      9  C   UNL     1      -4.189   0.111  24.421  0.00  0.00    +0.027 C 
ATOM     10  C   UNL     1      -3.659   0.404  23.861  0.00  0.00    +0.005 C 
ATOM     11  C   UNL     1      -3.450   1.203  23.870  0.00  0.00    +0.006 C 
ATOM     15  C   UNL     1      -3.771   1.707  24.439  0.00  0.00    +0.043 C 
ATOM     27  C   UNL     1      -4.301   1.413  24.999  0.00  0.00    -0.033 C 
ATOM     28  C   UNL     1      -4.510   0.615  24.990  0.00  0.00    -0.048 C 
ATOM     29  C   UNL     1      -5.039   0.322  25.550  0.00  0.00    +0.026 C 
ENDROOT
BRANCH  11  12
ATOM     12  C   UNL     1      -2.920   1.497  23.309  0.00  0.00    +0.000 C 
ATOM     13  C   UNL     1      -2.108   1.400  23.419  0.00  0.00    +0.000 C 
ATOM     14  C   UNL     1      -3.202   1.888  22.640  0.00  0.00    +0.000 C 
ENDBRANCH  11  12
BRANCH   9   8
ATOM      8  C   UNL     1      -4.397  -0.687  24.411  0.00  0.00    +0.091 C 
BRANCH   8   6
ATOM      5  N   UNL     1      -3.311  -1.581  24.659  0.00  0.00    -0.203 NA
ATOM      6  C   UNL     1      -3.859  -1.251  24.139  0.00  0.00    +0.242 C 
ATOM      7  O   UNL     1      -3.869  -1.483  23.347  0.00  0.00    -0.273 OA
BRANCH   5   4
ATOM      4  C   UNL     1      -2.772  -2.144  24.387  0.00  0.00    +0.147 C 
BRANCH   4   3
ATOM      3  C   UNL     1      -2.141  -2.376  24.866  0.00  0.00    +0.166 C 
BRANCH   3   2
ATOM      1  C   UNL     1      -0.747  -2.117  25.043  0.00  0.00    +0.174 C 
ATOM      2  O   UNL     1      -1.372  -2.369  24.566  0.00  0.00    -0.349 OA
ENDBRANCH   3   2
ENDBRANCH   4   3
ENDBRANCH   5   4
ENDBRANCH   8   6
ENDBRANCH   9   8
BRANCH  15  16
ATOM     16  C   UNL     1      -3.562   2.506  24.448  0.00  0.00    +0.120 C 
BRANCH  16  17
ATOM     17  N   UNL     1      -4.128   3.079  24.626  0.00  0.00    -0.201 NA
ATOM     18  C   UNL     1      -3.896   3.802  24.946  0.00  0.00    +0.265 C 
ATOM     19  O   UNL     1      -4.462   4.375  25.124  0.00  0.00    -0.268 OA
BRANCH  18  20
ATOM     20  C   UNL     1      -3.098   3.953  25.088  0.00  0.00    +0.055 A 
ATOM     21  C   UNL     1      -2.650   4.361  24.528  0.00  0.00    +0.004 A 
ATOM     22  C   UNL     1      -1.850   4.513  24.670  0.00  0.00    -0.004 A 
ATOM     23  C   UNL     1      -1.501   4.256  25.371  0.00  0.00    -0.022 A 
ATOM     24  C   UNL     1      -0.702   4.408  25.513  0.00  0.00    +0.031 C 
ATOM     25  C   UNL     1      -1.949   3.848  25.931  0.00  0.00    -0.004 A 
ATOM     26  C   UNL     1      -2.747   3.697  25.789  0.00  0.00    +0.004 A 
ENDBRANCH  18  20
ENDBRANCH  16  17
ENDBRANCH  15  16
TORSDOF 9
ENDMDL
MODEL 3
REMARK VINA RESULT:      -9.8      2.455      4.682
REMARK  Name = 
REMARK  9 active torsions:
REMARK  status: ('A' for Active; 'I' for Inactive)
REMARK    1  A    between atoms: O_2  and  C_3
REMARK    2  A    between atoms: C_3  and  C_4
REMARK    3  A    between atoms: C_4  and  N_5
REMARK    4  A    between atoms: C_6  and  C_8
REMARK    5  A    between atoms: C_8  and  C_9
REMARK    6  A    between atoms: C_11  and  C_12
REMARK    7  A    between atoms: C_15  and  C_16
REMARK    8  A    between atoms: C_16  and  N_17
REMARK    9  A    between atoms: C_18  and  C_20
REMARK                            x       y       z     vdW  Elec       q    Type
REMARK                         _______ _______ _______ _____ _____    ______ ____
ROOT
ATOM      9  C   UNL     1      -1.363   0.553  24.915  0.00  0.00    +0.027 C 
ATOM     10  C   UNL     1      -1.982   0.064  24.674  0.00  0.00    +0.005 C 
ATOM     11  C   UNL     1      -2.731   0.383  24.539  0.00  0.00    +0.006 C 
ATOM     15  C   UNL     1      -2.861   1.191  24.644  0.00  0.00    +0.043 C 
ATOM     27  C   UNL     1      -2.241   1.680  24.885  0.00  0.00    -0.033 C 
ATOM     28  C   UNL     1      -1.493   1.361  25.020  0.00  0.00    -0.048 C 
ATOM     29  C   UNL     1      -0.874   1.851  25.261  0.00  0.00    +0.026 C 
ENDROOT
BRANCH  11  12
ATOM     12  C   UNL     1      -3.351  -0.107  24.298  0.00  0.00    +0.000 C 
ATOM     13  C   UNL     1      -3.776  -0.538  24.858  0.00  0.00    +0.000 C 
ATOM     14  C   UNL     1      -3.544  -0.165  23.498  0.00  0.00    +0.000 C 
ENDBRANCH  11  12
BRANCH   9   8
ATOM      8  C   UNL     1      -0.615   0.234  25.050  0.00  0.00    +0.091 C 
BRANCH   8   6
ATOM      5  N   UNL     1       0.279   0.155  23.938  0.00  0.00    -0.203 NA
ATOM      6  C   UNL     1      -0.244  -0.210  24.461  0.00  0.00    +0.242 C 
ATOM      7  O   UNL     1      -0.396  -1.018  24.395  0.00  0.00    -0.273 OA
BRANCH   5   4
ATOM      4  C   UNL     1       0.650  -0.289  23.349  0.00  0.00    +0.147 C 
BRANCH   4   3
ATOM      3  C   UNL     1       1.176   0.076  22.828  0.00  0.00    +0.166 C 
BRANCH   3   2
ATOM      1  C   UNL     1       2.528   0.102  22.366  0.00  0.00    +0.174 C 
ATOM      2  O   UNL     1       1.855  -0.324  22.581  0.00  0.00    -0.349 OA
ENDBRANCH   3   2
ENDBRANCH   4   3
ENDBRANCH   5   4
ENDBRANCH   8   6
ENDBRANCH   9   8
BRANCH  15  16
ATOM     16  C   UNL     1      -3.610   1.510  24.509  0.00  0.00    +0.120 C 
BRANCH  16  17
ATOM     17  N   UNL     1      -3.695   2.174  24.027  0.00  0.00    -0.201 NA
ATOM     18  C   UNL     1      -4.332   2.685  24.138  0.00  0.00    +0.265 C 
ATOM     19  O   UNL     1      -4.417   3.350  23.657  0.00  0.00    -0.268 OA
BRANCH  18  20
ATOM     20  C   UNL     1      -4.885   2.532  24.730  0.00  0.00    +0.055 A 
ATOM     21  C   UNL     1      -4.780   2.850  25.485  0.00  0.00    +0.004 A 
ATOM     22  C   UNL     1      -5.333   2.697  26.078  0.00  0.00    -0.004 A 
ATOM     23  C   UNL     1      -5.991   2.227  25.916  0.00  0.00    -0.022 A 
ATOM     24  C   UNL     1      -6.545   2.074  26.509  0.00  0.00    +0.031 C 
ATOM     25  C   UNL     1      -6.097   1.910  25.162  0.00  0.00    -0.004 A 
ATOM     26  C   UNL     1      -5.544   2.062  24.569  0.00  0.00    +0.004 A 
ENDBRANCH  18  20
ENDBRANCH  16  17
ENDBRANCH  15  16
TORSDOF 9
ENDMDL
MODEL 4
REMARK VINA RESULT:      -9.6      1.659      5.382
REMARK  Name = 
REMARK  9 active torsions:
REMARK  status: ('A' for Active; 'I' for Inactive)
REMARK    1  A    between atoms: O_2  and  C_3
REMARK    2  A    between atoms: C_3  and  C_4
REMARK    3  A    between atoms: C_4  and  N_5
REMARK    4  A    between atoms: C_6  and  C_8
REMARK    5  A    between atoms: C_8  and  C_9
REMARK    6  A    between atoms: C_11  and  C_12
REMARK    7  A    between atoms: C_15  and  C_16
REMARK    8  A    between atoms: C_16  and  N_17
REMARK    9  A    between atoms: C_18  and  C_20
REMARK                            x       y       z     vdW  Elec       q    Type
REMARK                         _______ _______ _______ _____ _____    ______ ____
ROOT
ATOM      9  C   UNL     1      -0.972   0.594  24.809  0.00  0.00    +0.027 C 
ATOM     10  C   UNL     1      -1.469   0.691  24.158  0.00  0.00    +0.005 C 
ATOM     11  C   UNL     1      -1.922   1.378  24.084  0.00  0.00    +0.006 C 
ATOM     15  C   UNL     1      -1.877   1.966  24.661  0.00  0.00    +0.043 C 
ATOM     27  C   UNL     1      -1.379   1.868  25.312  0.00  0.00    -0.033 C 
ATOM     28  C   UNL     1      -0.927   1.182  25.386  0.00  0.00    -0.048 C 
ATOM     29  C   UNL     1      -0.430   1.085  26.037  0.00  0.00    +0.026 C 
ENDROOT
BRANCH  11  12
ATOM     12  C   UNL     1      -2.420   1.475  23.433  0.00  0.00    +0.000 C 
ATOM     13  C   UNL     1      -3.181   1.157  23.445  0.00  0.00    +0.000 C 
ATOM     14  C   UNL     1      -2.156   1.891  22.771  0.00  0.00    +0.000 C 
ENDBRANCH  11  12
BRANCH   9   8
ATOM      8  C   UNL     1      -0.520  -0.092  24.883  0.00  0.00    +0.091 C 
BRANCH   8   6
ATOM      5  N   UNL     1      -1.277  -1.304  24.883  0.00  0.00    -0.203 NA
ATOM      6  C   UNL     1      -0.760  -0.786  24.504  0.00  0.00    +0.242 C 
ATOM      7  O   UNL     1      -0.481  -0.960  23.747  0.00  0.00    -0.273 OA
BRANCH   5   4
ATOM      4  C   UNL     1      -1.517  -1.998  24.505  0.00  0.00    +0.147 C 
BRANCH   4   3
ATOM      3  C   UNL     1      -2.156  -2.428  24.799  0.00  0.00    +0.166 C 
BRANCH   3   2
ATOM      1  C   UNL     1      -3.480  -2.902  24.547  0.00  0.00    +0.174 C 
ATOM      2  O   UNL     1      -2.717  -2.740  24.280  0.00  0.00    -0.349 OA
ENDBRANCH   3   2
ENDBRANCH   4   3
ENDBRANCH   5   4
ENDBRANCH   8   6
ENDBRANCH   9   8
BRANCH  15  16
ATOM     16  C   UNL     1      -2.329   2.653  24.587  0.00  0.00    +0.120 C 
BRANCH  16  17
ATOM     17  N   UNL     1      -1.984   3.390  24.716  0.00  0.00    -0.201 NA
ATOM     18  C   UNL     1      -2.442   4.018  24.991  0.00  0.00    +0.265 C 
ATOM     19  O   UNL     1      -2.096   4.756  25.120  0.00  0.00    -0.268 OA
BRANCH  18  20
ATOM     20  C   UNL     1      -3.246   3.908  25.139  0.00  0.00    +0.055 A 
ATOM     21  C   UNL     1      -3.500   3.676  25.889  0.00  0.00    +0.004 A 
ATOM     22  C   UNL     1      -4.304   3.566  26.036  0.00  0.00    -0.004 A 
ATOM     23  C   UNL     1      -4.854   3.688  25.434  0.00  0.00    -0.022 A 
ATOM     24  C   UNL     1      -5.659   3.578  25.581  0.00  0.00    +0.031 C 
ATOM     25  C   UNL     1      -4.600   3.919  24.684  0.00  0.00    -0.004 A 
ATOM     26  C   UNL     1      -3.797   4.029  24.536  0.00  0.00    +0.004 A 
ENDBRANCH  18  20
ENDBRANCH  16  17
ENDBRANCH  15  16
TORSDOF 9
ENDMDL
MODEL 5
REMARK VINA RESULT:      -9.3      3.139      4.213
REMARK  Name = 
REMARK  9 active torsions:
REMARK  status: ('A' for Active; 'I' for Inactive)
REMARK    1  A    between atoms: O_2  and  C_3
REMARK    2  A    between atoms: C_3  and  C_4
REMARK    3  A    between atoms: C_4  and  N_5
REMARK    4  A    between atoms: C_6  and  C_8
REMARK    5  A    between atoms: C_8  and  C_9
REMARK    6  A    between atoms: C_11  and  C_12
REMARK    7  A    between atoms: C_15  and  C_16
REMARK    8  A    between atoms: C_16  and  N_17
REMARK    9  A    between atoms: C_18  and  C_20
REMARK                            x       y       z     vdW  Elec       q    Type
REMARK                         _______ _______ _______ _____ _____    ______ ____
ROOT
ATOM      9  C   UNL     1      -0.285   0.951  24.085  0.00  0.00    +0.027 C 
ATOM     10  C   UNL     1      -0.209   0.301  24.587  0.00  0.00    +0.005 C 
ATOM     11  C   UNL     1      -0.884  -0.085  24.865  0.00  0.00    +0.006 C 
ATOM     15  C   UNL     1      -1.633   0.178  24.641  0.00  0.00    +0.043 C 
ATOM     27  C   UNL     1      -1.708   0.829  24.138  0.00  0.00    -0.033 C 
ATOM     28  C   UNL     1      -1.034   1.215  23.861  0.00  0.00    -0.048 C 
ATOM     29  C   UNL     1      -1.110   1.865  23.358  0.00  0.00    +0.026 C 
ENDROOT
BRANCH  11  12
ATOM     12  C   UNL     1      -0.808  -0.736  25.368  0.00  0.00    +0.000 C 
ATOM     13  C   UNL     1      -0.891  -0.639  26.183  0.00  0.00    +0.000 C 
ATOM     14  C   UNL     1      -0.650  -1.483  25.055  0.00  0.00    +0.000 C 
ENDBRANCH  11  12
BRANCH   9   8
ATOM      8  C   UNL     1       0.389   1.338  23.807  0.00  0.00    +0.091 C 
BRANCH   8   6
ATOM      5  N   UNL     1       1.761   1.084  23.499  0.00  0.00    -0.203 NA
ATOM      6  C   UNL     1       0.961   0.917  23.387  0.00  0.00    +0.242 C 
ATOM      7  O   UNL     1       0.733   0.329  22.855  0.00  0.00    -0.273 OA
BRANCH   5   4
ATOM      4  C   UNL     1       2.333   0.663  23.078  0.00  0.00    +0.147 C 
BRANCH   4   3
ATOM      3  C   UNL     1       3.117   0.919  23.081  0.00  0.00    +0.166 C 
BRANCH   3   2
ATOM      1  C   UNL     1       4.483   0.534  22.908  0.00  0.00    +0.174 C 
ATOM      2  O   UNL     1       3.693   0.488  22.674  0.00  0.00    -0.349 OA
ENDBRANCH   3   2
ENDBRANCH   4   3
ENDBRANCH   5   4
ENDBRANCH   8   6
ENDBRANCH   9   8
BRANCH  15  16
ATOM     16  C   UNL     1      -2.307  -0.209  24.919  0.00  0.00    +0.120 C 
BRANCH  16  17
ATOM     17  N   UNL     1      -2.954   0.229  25.184  0.00  0.00    -0.201 NA
ATOM     18  C   UNL     1      -3.714  -0.087  25.134  0.00  0.00    +0.265 C 
ATOM     19  O   UNL     1      -4.361   0.351  25.398  0.00  0.00    -0.268 OA
BRANCH  18  20
ATOM     20  C   UNL     1      -3.827  -0.841  24.819  0.00  0.00    +0.055 A 
ATOM     21  C   UNL     1      -4.007  -0.931  24.019  0.00  0.00    +0.004 A 
ATOM     22  C   UNL     1      -4.120  -1.686  23.704  0.00  0.00    -0.004 A 
ATOM     23  C   UNL     1      -4.054  -2.349  24.190  0.00  0.00    -0.022 A 
ATOM     24  C   UNL     1      -4.167  -3.104  23.875  0.00  0.00    +0.031 C 
ATOM     25  C   UNL     1      -3.874  -2.259  24.990  0.00  0.00    -0.004 A 
ATOM     26  C   UNL     1      -3.761  -1.505  25.304  0.00  0.00    +0.004 A 
ENDBRANCH  18  20
ENDBRANCH  16  17
ENDBRANCH  15  16
TORSDOF 9
ENDMDL
MODEL 6
REMARK VINA RESULT:      -9.2      1.571      2.454
REMARK  Name = 
REMARK  9 active torsions:
REMARK  status: ('A' for Active; 'I' for Inactive)
REMARK    1  A    between atoms: O_2  and  C_3
REMARK    2  A    between atoms: C_3  and  C_4
REMARK    3  A    between atoms: C_4  and  N_5
REMARK    4  A    between atoms: C_6  and  C_8
REMARK    5  A    between atoms: C_8  and  C_9
REMARK    6  A    between atoms: C_11  and  C_12
REMARK    7  A    between atoms: C_15  and  C_16
REMARK    8  A    between atoms: C_16  and  N_17
REMARK    9  A    between atoms: C_18  and  C_20
REMARK                            x       y       z     vdW  Elec       q    Type
REMARK                         _______ _______ _______ _____ _____    ______ ____
ROOT
ATOM      9  C   UNL     1      -0.978   1.818  24.603  0.00  0.00    +0.027 C 
ATOM     10  C   UNL     1      -1.483   1.909  23.957  0.00  0.00    +0.005 C 
ATOM     11  C   UNL     1      -2.172   1.458  23.906  0.00  0.00    +0.006 C 
ATOM     15  C   UNL     1      -2.356   0.917  24.502  0.00  0.00    +0.043 C 
ATOM     27  C   UNL     1      -1.850   0.827  25.148  0.00  0.00    -0.033 C 
ATOM     28  C   UNL     1      -1.161   1.277  25.198  0.00  0.00    -0.048 C 
ATOM     29  C   UNL     1      -0.656   1.186  25.844  0.00  0.00    +0.026 C 
ENDROOT
BRANCH  11  12
ATOM     12  C   UNL     1      -2.678   1.549  23.260  0.00  0.00    +0.000 C 
ATOM     13  C   UNL     1      -2.564   1.096  22.581  0.00  0.00    +0.000 C 
ATOM     14  C   UNL     1      -3.298   2.093  23.294  0.00  0.00    +0.000 C 
ENDBRANCH  11  12
BRANCH   9   8
ATOM      8  C   UNL     1      -0.289   2.269  24.653  0.00  0.00    +0.091 C 
BRANCH   8   6
ATOM      5  N   UNL     1      -0.550   3.641  24.956  0.00  0.00    -0.203 NA
ATOM      6  C   UNL     1      -0.298   3.063  24.425  0.00  0.00    +0.242 C 
ATOM      7  O   UNL     1      -0.055   3.277  23.666  0.00  0.00    -0.273 OA
BRANCH   5   4
ATOM      4  C   UNL     1      -0.559   4.434  24.729  0.00  0.00    +0.147 C 
BRANCH   4   3
ATOM      3  C   UNL     1      -0.914   4.998  25.214  0.00  0.00    +0.166 C 
BRANCH   3   2
ATOM      1  C   UNL     1      -2.102   5.792  25.211  0.00  0.00    +0.174 C 
ATOM      2  O   UNL     1      -1.371   5.600  24.881  0.00  0.00    -0.349 OA
ENDBRANCH   3   2
ENDBRANCH   4   3
ENDBRANCH   5   4
ENDBRANCH   8   6
ENDBRANCH   9   8
BRANCH  15  16
ATOM     16  C   UNL     1      -3.046   0.467  24.451  0.00  0.00    +0.120 C 
BRANCH  16  17
ATOM     17  N   UNL     1      -3.663   0.595  24.984  0.00  0.00    -0.201 NA
ATOM     18  C   UNL     1      -4.153  -0.030  25.205  0.00  0.00    +0.265 C 
ATOM     19  O   UNL     1      -4.769   0.098  25.738  0.00  0.00    -0.268 OA
BRANCH  18  20
ATOM     20  C   UNL     1      -4.027  -0.783  24.894  0.00  0.00    +0.055 A 
ATOM     21  C   UNL     1      -3.551  -1.322  25.299  0.00  0.00    +0.004 A 
ATOM     22  C   UNL     1      -3.425  -2.077  24.988  0.00  0.00    -0.004 A 
ATOM     23  C   UNL     1      -3.775  -2.290  24.272  0.00  0.00    -0.022 A 
ATOM     24  C   UNL     1      -3.648  -3.045  23.961  0.00  0.00    +0.031 C 
ATOM     25  C   UNL     1      -4.250  -1.751  23.867  0.00  0.00    -0.004 A 
ATOM     26  C   UNL     1      -4.376  -0.998  24.178  0.00  0.00    +0.004 A 
ENDBRANCH  18  20
ENDBRANCH  16  17
ENDBRANCH  15  16
TORSDOF 9
ENDMDL
MODEL 7
REMARK VINA RESULT:      -9.2      1.770      2.794
REMARK  Name = 
REMARK  9 active torsions:
REMARK  status: ('A' for Active; 'I' for Inactive)
REMARK    1  A    between atoms: O_2  and  C_3
REMARK    2  A    between atoms: C_3  and  C_4
REMARK    3  A    between atoms: C_4  and  N_5
REMARK    4  A    between atoms: C_6  and  C_8
REMARK    5  A    between atoms: C_8  and  C_9
REMARK    6  A    between atoms: C_11  and  C_12
REMARK    7  A    between atoms: C_15  and  C_16
REMARK    8  A    between atoms: C_16  and  N_17
REMARK    9  A    between atoms: C_18  and  C_20
REMARK                            x       y       z     vdW  Elec       q    Type
REMARK                         _______ _______ _______ _____ _____    ______ ____
ROOT
ATOM      9  C   UNL     1      -1.304   2.650  25.303  0.00  0.00    +0.027 C 
ATOM     10  C   UNL     1      -1.704   2.409  24.623  0.00  0.00    +0.005 C 
ATOM     11  C   UNL     1      -1.689   1.615  24.396  0.00  0.00    +0.006 C 
ATOM     15  C   UNL     1      -1.274   1.064  24.848  0.00  0.00    +0.043 C 
ATOM     27  C   UNL     1      -0.874   1.306  25.528  0.00  0.00    -0.033 C 
ATOM     28  C   UNL     1      -0.889   2.099  25.755  0.00  0.00    -0.048 C 
ATOM     29  C   UNL     1      -0.489   2.340  26.435  0.00  0.00    +0.026 C 
ENDROOT
BRANCH  11  12
ATOM     12  C   UNL     1      -2.089   1.373  23.715  0.00  0.00    +0.000 C 
ATOM     13  C   UNL     1      -2.892   1.185  23.755  0.00  0.00    +0.000 C 
ATOM     14  C   UNL     1      -1.687   1.320  22.997  0.00  0.00    +0.000 C 
ENDBRANCH  11  12
BRANCH   9   8
ATOM      8  C   UNL     1      -1.319   3.443  25.529  0.00  0.00    +0.091 C 
BRANCH   8   6
ATOM      5  N   UNL     1      -2.654   3.814  25.879  0.00  0.00    -0.203 NA
ATOM      6  C   UNL     1      -1.994   3.898  25.391  0.00  0.00    +0.242 C 
ATOM      7  O   UNL     1      -2.008   4.437  24.766  0.00  0.00    -0.273 OA
BRANCH   5   4
ATOM      4  C   UNL     1      -3.329   4.269  25.741  0.00  0.00    +0.147 C 
BRANCH   4   3
ATOM      3  C   UNL     1      -4.061   4.017  26.025  0.00  0.00    +0.166 C 
BRANCH   3   2
ATOM      1  C   UNL     1      -5.365   3.526  25.706  0.00  0.00    +0.174 C 
ATOM      2  O   UNL     1      -4.716   4.001  25.522  0.00  0.00    -0.349 OA
ENDBRANCH   3   2
ENDBRANCH   4   3
ENDBRANCH   5   4
ENDBRANCH   8   6
ENDBRANCH   9   8
BRANCH  15  16
ATOM     16  C   UNL     1      -1.259   0.271  24.621  0.00  0.00    +0.120 C 
BRANCH  16  17
ATOM     17  N   UNL     1      -0.558  -0.161  24.674  0.00  0.00    -0.201 NA
ATOM     18  C   UNL     1      -0.583  -0.977  24.783  0.00  0.00    +0.265 C 
ATOM     19  O   UNL     1       0.118  -1.408  24.836  0.00  0.00    -0.268 OA
BRANCH  18  20
ATOM     20  C   UNL     1      -1.310  -1.363  24.839  0.00  0.00    +0.055 A 
ATOM     21  C   UNL     1      -1.731  -1.347  25.548  0.00  0.00    +0.004 A 
ATOM     22  C   UNL     1      -2.459  -1.733  25.605  0.00  0.00    -0.004 A 
ATOM     23  C   UNL     1      -2.763  -2.136  24.952  0.00  0.00    -0.022 A 
ATOM     24  C   UNL     1      -3.491  -2.522  25.009  0.00  0.00    +0.031 C 
ATOM     25  C   UNL     1      -2.341  -2.152  24.244  0.00  0.00    -0.004 A 
ATOM     26  C   UNL     1      -1.615  -1.766  24.187  0.00  0.00    +0.004 A 
ENDBRANCH  18  20
ENDBRANCH  16  17
ENDBRANCH  15  16
TORSDOF 9
ENDMDL
