MODEL 1
REMARK VINA RESULT:     -13.8      0.000      0.000
REMARK  Name = 
REMARK  4 active torsions:
REMARK  status: ('A' for Active; 'I' for Inactive)
REMARK    1  A    between atoms: C_4  and  C_21
REMARK    2  A    between atoms: C_5  and  N_6
REMARK    3  A    between atoms: C_7  and  C_9
REMARK    4  A    between atoms: C_24  and  C_27
REMARK                            x       y       z     vdW  Elec       q    Type
REMARK                         _______ _______ _______ _____ _____    ______ ____
ROOT
ATOM      1  O   UNL     1      -6.047   2.096  25.013  0.00  0.00    -0.220 OA
ATOM      2  C   UNL     1      -5.357   1.644  24.983  0.00  0.00    +0.184 C 
ATOM      3  C   UNL     1      -5.317   0.824  24.903  0.00  0.00    +0.042 C 
ATOM      4  C   UNL     1      -4.522   0.606  24.898  0.00  0.00    +0.048 C 
ATOM      5  C   UNL     1      -4.069   1.292  24.976  0.00  0.00    +0.132 C 
ATOM     19  C   UNL     1      -4.585   1.933  25.028  0.00  0.00    +0.202 C 
ATOM     20  O   UNL     1      -4.368   2.725  25.112  0.00  0.00    -0.219 OA
ENDROOT
BRANCH   4  21
ATOM     21  C   UNL     1      -4.229  -0.162  24.829  0.00  0.00    -0.021 A 
ATOM     22  C   UNL     1      -4.260  -0.550  24.101  0.00  0.00    -0.004 A 
ATOM     23  C   UNL     1      -3.968  -1.318  24.031  0.00  0.00    +0.004 A 
ATOM     24  C   UNL     1      -3.644  -1.699  24.688  0.00  0.00    +0.071 A 
ATOM     25  C   UNL     1      -3.614  -1.311  25.416  0.00  0.00    +0.004 A 
ATOM     26  C   UNL     1      -3.906  -0.542  25.486  0.00  0.00    -0.004 A 
BRANCH  24  27
ATOM     27  C   UNL     1      -3.352  -2.466  24.617  0.00  0.00    +0.419 C 
ATOM     28  F   UNL     1      -3.059  -3.234  24.546  0.00  0.00    -0.166 F 
ATOM     29  F   UNL     1      -2.672  -2.174  24.254  0.00  0.00    -0.166 F 
ATOM     30  F   UNL     1      -4.033  -2.760  24.980  0.00  0.00    -0.166 F 
ENDBRANCH  24  27
ENDBRANCH   4  21
BRANCH   5   6
ATOM      6  N   UNL     1      -3.245   1.330  24.998  0.00  0.00    -0.200 NA
ATOM      7  C   UNL     1      -2.842   1.837  24.488  0.00  0.00    +0.265 C 
ATOM      8  O   UNL     1      -3.262   2.306  23.955  0.00  0.00    -0.268 OA
BRANCH   7   9
ATOM      9  C   UNL     1      -2.019   1.874  24.509  0.00  0.00    +0.058 A 
ATOM     10  C   UNL     1      -1.569   1.392  24.013  0.00  0.00    +0.045 A 
ATOM     11  C   UNL     1      -0.745   1.430  24.034  0.00  0.00    +0.173 A 
ATOM     12  C   UNL     1      -0.369   1.951  24.554  0.00  0.00    +0.172 A 
ATOM     13  O   UNL     1       0.454   1.988  24.576  0.00  0.00    -0.468 OA
ATOM     14  C   UNL     1       0.902   1.506  24.079  0.00  0.00    +0.253 C 
ATOM     15  C   UNL     1       0.526   0.985  23.560  0.00  0.00    +0.253 C 
ATOM     16  O   UNL     1      -0.297   0.948  23.538  0.00  0.00    -0.468 OA
ATOM     17  C   UNL     1      -0.819   2.433  25.050  0.00  0.00    +0.040 A 
ATOM     18  C   UNL     1      -1.643   2.395  25.029  0.00  0.00    +0.008 A 
ENDBRANCH   7   9
ENDBRANCH   5   6
TORSDOF 4
ENDMDL
MODEL 2
REMARK VINA RESULT:     -13.7      2.839      4.395
REMARK  Name = 
REMARK  4 active torsions:
REMARK  status: ('A' for Active; 'I' for Inactive)
REMARK    1  A    between atoms: C_4  and  C_21
REMARK    2  A    between atoms: C_5  and  N_6
REMARK    3  A    between atoms: C_7  and  C_9
REMARK    4  A    between atoms: C_24  and  C_27
REMARK                            x       y       z     vdW  Elec       q    Type
REMARK                         _______ _______ _______ _____ _____    ______ ____
ROOT
ATOM      1  O   UNL     1      -6.336   3.984  25.776  0.00  0.00    -0.220 OA
ATOM      2  C   UNL     1      -5.590   3.652  25.652  0.00  0.00    +0.184 C 
ATOM      3  C   UNL     1      -4.878   4.066  25.602  0.00  0.00    +0.042 C 
ATOM      4  C   UNL     1      -4.273   3.519  25.475  0.00  0.00    +0.048 C 
ATOM      5  C   UNL     1      -4.613   2.767  25.446  0.00  0.00    +0.132 C 
ATOM     19  C   UNL     1      -5.426   2.850  25.555  0.00  0.00    +0.202 C 
ATOM     20  O   UNL     1      -5.978   2.237  25.566  0.00  0.00    -0.219 OA
ENDROOT
BRANCH   4  21
ATOM     21  C   UNL     1      -3.471   3.693  25.391  0.00  0.00    -0.021 A 
ATOM     22  C   UNL     1      -3.178   3.943  24.662  0.00  0.00    -0.004 A 
ATOM     23  C   UNL     1      -2.376   4.116  24.578  0.00  0.00    +0.004 A 
ATOM     24  C   UNL     1      -1.867   4.040  25.223  0.00  0.00    +0.071 A 
ATOM     25  C   UNL     1      -2.161   3.790  25.953  0.00  0.00    +0.004 A 
ATOM     26  C   UNL     1      -2.963   3.616  26.037  0.00  0.00    -0.004 A 
BRANCH  24  27
ATOM     27  C   UNL     1      -1.066   4.213  25.139  0.00  0.00    +0.419 C 
ATOM     28  F   UNL     1      -0.264   4.388  25.055  0.00  0.00    -0.166 F 
ATOM     29  F   UNL     1      -1.214   4.998  25.348  0.00  0.00    -0.166 F 
ATOM     30  F   UNL     1      -0.917   3.429  24.930  0.00  0.00    -0.166 F 
ENDBRANCH  24  27
ENDBRANCH   4  21
BRANCH   5   6
ATOM      6  N   UNL     1      -4.209   2.057  25.329  0.00  0.00    -0.200 NA
ATOM      7  C   UNL     1      -4.493   1.506  24.785  0.00  0.00    +0.265 C 
ATOM      8  O   UNL     1      -5.181   1.664  24.358  0.00  0.00    -0.268 OA
BRANCH   7   9
ATOM      9  C   UNL     1      -4.089   0.797  24.668  0.00  0.00    +0.058 A 
ATOM     10  C   UNL     1      -4.122   0.203  25.241  0.00  0.00    +0.045 A 
ATOM     11  C   UNL     1      -3.719  -0.507  25.124  0.00  0.00    +0.173 A 
ATOM     12  C   UNL     1      -3.281  -0.624  24.433  0.00  0.00    +0.172 A 
ATOM     13  O   UNL     1      -2.878  -1.334  24.316  0.00  0.00    -0.468 OA
ATOM     14  C   UNL     1      -2.911  -1.926  24.888  0.00  0.00    +0.253 C 
ATOM     15  C   UNL     1      -3.348  -1.809  25.579  0.00  0.00    +0.253 C 
ATOM     16  O   UNL     1      -3.751  -1.100  25.696  0.00  0.00    -0.468 OA
ATOM     17  C   UNL     1      -3.248  -0.031  23.860  0.00  0.00    +0.040 A 
ATOM     18  C   UNL     1      -3.652   0.679  23.977  0.00  0.00    +0.008 A 
ENDBRANCH   7   9
ENDBRANCH   5   6
TORSDOF 4
ENDMDL
MODEL 3
REMARK VINA RESULT:     -13.5      2.597      3.767
REMARK  Name = 
REMARK  4 active torsions:
REMARK  status: ('A' for Active; 'I' for Inactive)
REMARK    1  A    between atoms: C_4  and  C_21
REMARK    2  A    between atoms: C_5  and  N_6
REMARK    3  A    between atoms: C_7  and  C_9
REMARK    4  A    between atoms: C_24  and  C_27
REMARK                            x       y       z     vdW  Elec       q    Type
REMARK                         _______ _______ _______ _____ _____    ______ ____
ROOT
ATOM      1  O   UNL     1      -1.396   5.480  25.308  0.00  0.00    -0.220 OA
ATOM      2  C   UNL     1      -1.731   4.741  25.160  0.00  0.00    +0.184 C 
ATOM      3  C   UNL     1      -2.538   4.564  25.167  0.00  0.00    +0.042 C 
ATOM      4  C   UNL     1      -2.625   3.763  24.990  0.00  0.00    +0.048 C 
ATOM      5  C   UNL     1      -1.872   3.444  24.874  0.00  0.00    +0.132 C 
ATOM     19  C   UNL     1      -1.321   4.048  24.978  0.00  0.00    +0.202 C 
ATOM     20  O   UNL     1      -0.502   3.974  24.913  0.00  0.00    -0.219 OA
ENDROOT
BRANCH   4  21
ATOM     21  C   UNL     1      -3.339   3.352  24.939  0.00  0.00    -0.021 A 
ATOM     22  C   UNL     1      -3.741   3.140  25.627  0.00  0.00    -0.004 A 
ATOM     23  C   UNL     1      -4.455   2.729  25.575  0.00  0.00    +0.004 A 
ATOM     24  C   UNL     1      -4.766   2.530  24.837  0.00  0.00    +0.071 A 
ATOM     25  C   UNL     1      -4.362   2.743  24.149  0.00  0.00    +0.004 A 
ATOM     26  C   UNL     1      -3.649   3.154  24.200  0.00  0.00    -0.004 A 
BRANCH  24  27
ATOM     27  C   UNL     1      -5.479   2.120  24.786  0.00  0.00    +0.419 C 
ATOM     28  F   UNL     1      -6.191   1.708  24.736  0.00  0.00    -0.166 F 
ATOM     29  F   UNL     1      -5.068   1.433  24.585  0.00  0.00    -0.166 F 
ATOM     30  F   UNL     1      -5.889   2.806  24.988  0.00  0.00    -0.166 F 
ENDBRANCH  24  27
ENDBRANCH   4  21
BRANCH   5   6
ATOM      6  N   UNL     1      -1.701   2.659  24.685  0.00  0.00    -0.200 NA
ATOM      7  C   UNL     1      -1.150   2.239  25.130  0.00  0.00    +0.265 C 
ATOM      8  O   UNL     1      -0.768   2.603  25.765  0.00  0.00    -0.268 OA
BRANCH   7   9
ATOM      9  C   UNL     1      -0.979   1.455  24.942  0.00  0.00    +0.058 A 
ATOM     10  C   UNL     1      -1.173   0.851  25.470  0.00  0.00    +0.045 A 
ATOM     11  C   UNL     1      -1.002   0.066  25.282  0.00  0.00    +0.173 A 
ATOM     12  C   UNL     1      -0.637  -0.116  24.564  0.00  0.00    +0.172 A 
ATOM     13  O   UNL     1      -0.467  -0.900  24.375  0.00  0.00    -0.468 OA
ATOM     14  C   UNL     1      -0.660  -1.503  24.904  0.00  0.00    +0.253 C 
ATOM     15  C   UNL     1      -1.025  -1.321  25.622  0.00  0.00    +0.253 C 
ATOM     16  O   UNL     1      -1.196  -0.537  25.810  0.00  0.00    -0.468 OA
ATOM     17  C   UNL     1      -0.444   0.487  24.035  0.00  0.00    +0.040 A 
ATOM     18  C   UNL     1      -0.614   1.273  24.224  0.00  0.00    +0.008 A 
ENDBRANCH   7   9
ENDBRANCH   5   6
TORSDOF 4
ENDMDL
