MODEL 1
REMARK VINA RESULT:     -13.2      0.000      0.000
REMARK  Name = 
REMARK  8 active torsions:
REMARK  status: ('A' for Active; 'I' for Inactive)
REMARK    1  A    between atoms: O_2  and  C_3
REMARK    2  A    between atoms: C_6  and  C_7
REMARK    3  A    between atoms: C_7  and  C_8
REMARK    4  A    between atoms: C_8  and  N_9
REMARK    5  A    between atoms: C_8  and  C_32
REMARK    6  A    between atoms: C_10  and  C_12
REMARK    7  A    between atoms: C_14  and  N_15
REMARK    8  A    between atoms: N_18  and  C_19
REMARK                            x       y       z     vdW  Elec       q    Type
REMARK                         _______ _______ _______ _____ _____    ______ ____
ROOT
ATOM     12  C   UNL     1      -4.063   2.953  24.972  0.00  0.00    +0.033 C 
ATOM     13  C   UNL     1      -4.205   2.196  24.676  0.00  0.00    -0.002 C 
ATOM     14  C   UNL     1      -4.922   1.819  24.833  0.00  0.00    +0.152 C 
ATOM     27  C   UNL     1      -5.497   2.199  25.286  0.00  0.00    +0.206 C 
ATOM     28  O   UNL     1      -6.214   1.822  25.442  0.00  0.00    -0.218 OA
ATOM     29  C   UNL     1      -5.356   2.956  25.582  0.00  0.00    +0.189 C 
ATOM     30  O   UNL     1      -5.931   3.336  26.034  0.00  0.00    -0.220 OA
ATOM     31  C   UNL     1      -4.639   3.333  25.425  0.00  0.00    +0.066 C 
ENDROOT
BRANCH  14  15
ATOM     15  N   UNL     1      -5.063   1.063  24.537  0.00  0.00    -0.181 NA
ATOM     16  C   UNL     1      -4.553   0.443  24.727  0.00  0.00    +0.344 C 
ATOM     17  O   UNL     1      -3.901   0.581  25.213  0.00  0.00    -0.249 OA
ATOM     18  N   UNL     1      -4.694  -0.314  24.431  0.00  0.00    -0.159 NA
BRANCH  18  19
ATOM     19  C   UNL     1      -4.184  -0.933  24.621  0.00  0.00    +0.102 A 
ATOM     20  C   UNL     1      -3.855  -0.979  25.376  0.00  0.00    +0.021 A 
ATOM     21  C   UNL     1      -3.344  -1.598  25.567  0.00  0.00    +0.031 A 
ATOM     22  C   UNL     1      -3.161  -2.172  25.001  0.00  0.00    +0.142 A 
ATOM     23  F   UNL     1      -2.651  -2.790  25.193  0.00  0.00    -0.204 F 
ATOM     24  C   UNL     1      -3.490  -2.126  24.246  0.00  0.00    +0.061 A 
ATOM     25  C   UNL     1      -4.001  -1.506  24.056  0.00  0.00    +0.158 A 
ATOM     26  F   UNL     1      -4.330  -1.460  23.301  0.00  0.00    -0.203 F 
ENDBRANCH  18  19
ENDBRANCH  14  15
BRANCH  12  10
ATOM      9  N   UNL     1      -2.650   3.049  25.158  0.00  0.00    -0.194 NA
ATOM     10  C   UNL     1      -3.347   3.330  24.815  0.00  0.00    +0.261 C 
ATOM     11  O   UNL     1      -3.326   3.987  24.317  0.00  0.00    -0.269 OA
BRANCH   9   8
ATOM      8  C   UNL     1      -1.933   3.427  25.000  0.00  0.00    +0.179 C 
BRANCH   8  32
ATOM     32  C   UNL     1      -1.705   4.083  25.445  0.00  0.00    +0.281 C 
ATOM     33  N   UNL     1      -1.382   4.744  25.070  0.00  0.00    -0.086 NA
ATOM     34  O   UNL     1      -1.800   4.080  26.265  0.00  0.00    -0.270 OA
ENDBRANCH   8  32
BRANCH   8   7
ATOM      7  C   UNL     1      -1.443   3.147  24.398  0.00  0.00    +0.057 C 
BRANCH   7   6
ATOM      3  C   UNL     1      -0.413   0.905  24.577  0.00  0.00    +0.139 A 
ATOM      4  C   UNL     1      -0.782   1.133  23.877  0.00  0.00    +0.037 A 
ATOM      5  C   UNL     1      -1.126   1.881  23.817  0.00  0.00    -0.001 A 
ATOM      6  C   UNL     1      -1.100   2.400  24.458  0.00  0.00    -0.020 A 
ATOM     35  C   UNL     1      -0.730   2.171  25.158  0.00  0.00    -0.001 A 
ATOM     36  C   UNL     1      -0.386   1.423  25.219  0.00  0.00    +0.037 A 
BRANCH   3   2
ATOM      1  C   UNL     1      -0.158  -0.389  24.025  0.00  0.00    +0.252 C 
ATOM      2  O   UNL     1      -0.069   0.156  24.637  0.00  0.00    -0.471 OA
ENDBRANCH   3   2
ENDBRANCH   7   6
ENDBRANCH   8   7
ENDBRANCH   9   8
ENDBRANCH  12  10
TORSDOF 8
ENDMDL
MODEL 2
REMARK VINA RESULT:     -12.8      1.141      3.659
REMARK  Name = 
REMARK  8 active torsions:
REMARK  status: ('A' for Active; 'I' for Inactive)
REMARK    1  A    between atoms: O_2  and  C_3
REMARK    2  A    between atoms: C_6  and  C_7
REMARK    3  A    between atoms: C_7  and  C_8
REMARK    4  A    between atoms: C_8  and  N_9
REMARK    5  A    between atoms: C_8  and  C_32
REMARK    6  A    between atoms: C_10  and  C_12
REMARK    7  A    between atoms: C_14  and  N_15
REMARK    8  A    between atoms: N_18  and  C_19
REMARK                            x       y       z     vdW  Elec       q    Type
REMARK                         _______ _______ _______ _____ _____    ______ ____
ROOT
ATOM     12  C   UNL     1      -1.040   2.004  24.590  0.00  0.00    +0.033 C 
ATOM     13  C   UNL     1      -1.394   1.332  24.915  0.00  0.00    -0.002 C 
ATOM     14  C   UNL     1      -1.006   0.604  24.881  0.00  0.00    +0.152 C 
ATOM     27  C   UNL     1      -0.265   0.549  24.523  0.00  0.00    +0.206 C 
ATOM     28  O   UNL     1       0.123  -0.179  24.490  0.00  0.00    -0.218 OA
ATOM     29  C   UNL     1       0.089   1.220  24.199  0.00  0.00    +0.189 C 
ATOM     30  O   UNL     1       0.829   1.164  23.841  0.00  0.00    -0.220 OA
ATOM     31  C   UNL     1      -0.299   1.947  24.232  0.00  0.00    +0.066 C 
ENDROOT
BRANCH  14  15
ATOM     15  N   UNL     1      -1.359  -0.066  25.205  0.00  0.00    -0.181 NA
ATOM     16  C   UNL     1      -1.990  -0.429  24.817  0.00  0.00    +0.344 C 
ATOM     17  O   UNL     1      -2.267  -0.120  24.104  0.00  0.00    -0.249 OA
ATOM     18  N   UNL     1      -2.343  -1.100  25.141  0.00  0.00    -0.159 NA
BRANCH  18  19
ATOM     19  C   UNL     1      -2.973  -1.463  24.753  0.00  0.00    +0.102 A 
ATOM     20  C   UNL     1      -3.628  -1.016  24.525  0.00  0.00    +0.021 A 
ATOM     21  C   UNL     1      -4.260  -1.379  24.136  0.00  0.00    +0.031 A 
ATOM     22  C   UNL     1      -4.236  -2.188  23.975  0.00  0.00    +0.142 A 
ATOM     23  F   UNL     1      -4.867  -2.550  23.586  0.00  0.00    -0.204 F 
ATOM     24  C   UNL     1      -3.581  -2.635  24.203  0.00  0.00    +0.061 A 
ATOM     25  C   UNL     1      -2.950  -2.272  24.592  0.00  0.00    +0.158 A 
ATOM     26  F   UNL     1      -2.295  -2.718  24.820  0.00  0.00    -0.203 F 
ENDBRANCH  18  19
ENDBRANCH  14  15
BRANCH  12  10
ATOM      9  N   UNL     1      -2.106   2.816  25.088  0.00  0.00    -0.194 NA
ATOM     10  C   UNL     1      -1.428   2.730  24.624  0.00  0.00    +0.261 C 
ATOM     11  O   UNL     1      -1.140   3.373  24.193  0.00  0.00    -0.269 OA
BRANCH   9   8
ATOM      8  C   UNL     1      -2.493   3.543  25.122  0.00  0.00    +0.179 C 
BRANCH   8  32
ATOM     32  C   UNL     1      -2.242   4.122  25.652  0.00  0.00    +0.281 C 
ATOM     33  N   UNL     1      -2.062   4.881  25.381  0.00  0.00    -0.086 NA
ATOM     34  O   UNL     1      -2.168   3.943  26.455  0.00  0.00    -0.270 OA
ENDBRANCH   8  32
BRANCH   8   7
ATOM      7  C   UNL     1      -3.134   3.692  24.623  0.00  0.00    +0.057 C 
BRANCH   7   6
ATOM      3  C   UNL     1      -5.304   2.575  25.026  0.00  0.00    +0.139 A 
ATOM      4  C   UNL     1      -4.884   2.421  24.334  0.00  0.00    +0.037 A 
ATOM      5  C   UNL     1      -4.160   2.793  24.199  0.00  0.00    -0.001 A 
ATOM      6  C   UNL     1      -3.857   3.320  24.758  0.00  0.00    -0.020 A 
ATOM     35  C   UNL     1      -4.278   3.474  25.450  0.00  0.00    -0.001 A 
ATOM     36  C   UNL     1      -5.002   3.101  25.585  0.00  0.00    +0.037 A 
BRANCH   3   2
ATOM      1  C   UNL     1      -6.090   1.615  25.738  0.00  0.00    +0.252 C 
ATOM      2  O   UNL     1      -6.029   2.202  25.161  0.00  0.00    -0.471 OA
ENDBRANCH   3   2
ENDBRANCH   7   6
ENDBRANCH   8   7
ENDBRANCH   9   8
ENDBRANCH  12  10
TORSDOF 8
ENDMDL
MODEL 3
REMARK VINA RESULT:     -11.9      2.161      4.377
REMARK  Name = 
REMARK  8 active torsions:
REMARK  status: ('A' for Active; 'I' for Inactive)
REMARK    1  A    between atoms: O_2  and  C_3
REMARK    2  A    between atoms: C_6  and  C_7
REMARK    3  A    between atoms: C_7  and  C_8
REMARK    4  A    between atoms: C_8  and  N_9
REMARK    5  A    between atoms: C_8  and  C_32
REMARK    6  A    between atoms: C_10  and  C_12
REMARK    7  A    between atoms: C_14  and  N_15
REMARK    8  A    between atoms: N_18  and  C_19
REMARK                            x       y       z     vdW  Elec       q    Type
REMARK                         _______ _______ _______ _____ _____    ______ ____
ROOT
ATOM     12  C   UNL     1      -4.599   1.103  25.205  0.00  0.00    +0.033 C 
ATOM     13  C   UNL     1      -4.159   1.716  25.539  0.00  0.00    -0.002 C 
ATOM     14  C   UNL     1      -4.463   2.483  25.550  0.00  0.00    +0.152 C 
ATOM     27  C   UNL     1      -5.206   2.637  25.227  0.00  0.00    +0.206 C 
ATOM     28  O   UNL     1      -5.509   3.404  25.238  0.00  0.00    -0.218 OA
ATOM     29  C   UNL     1      -5.646   2.024  24.893  0.00  0.00    +0.189 C 
ATOM     30  O   UNL     1      -6.389   2.177  24.570  0.00  0.00    -0.220 OA
ATOM     31  C   UNL     1      -5.342   1.257  24.882  0.00  0.00    +0.066 C 
ENDROOT
BRANCH  14  15
ATOM     15  N   UNL     1      -4.024   3.096  25.883  0.00  0.00    -0.181 NA
ATOM     16  C   UNL     1      -3.312   3.329  25.538  0.00  0.00    +0.344 C 
ATOM     17  O   UNL     1      -3.040   2.948  24.859  0.00  0.00    -0.249 OA
ATOM     18  N   UNL     1      -2.872   3.942  25.872  0.00  0.00    -0.159 NA
BRANCH  18  19
ATOM     19  C   UNL     1      -2.161   4.175  25.527  0.00  0.00    +0.102 A 
ATOM     20  C   UNL     1      -1.593   3.609  25.332  0.00  0.00    +0.021 A 
ATOM     21  C   UNL     1      -0.880   3.842  24.986  0.00  0.00    +0.031 A 
ATOM     22  C   UNL     1      -0.736   4.640  24.835  0.00  0.00    +0.142 A 
ATOM     23  F   UNL     1      -0.024   4.872  24.489  0.00  0.00    -0.204 F 
ATOM     24  C   UNL     1      -1.304   5.206  25.029  0.00  0.00    +0.061 A 
ATOM     25  C   UNL     1      -2.016   4.973  25.375  0.00  0.00    +0.158 A 
ATOM     26  F   UNL     1      -2.585   5.538  25.569  0.00  0.00    -0.203 F 
ENDBRANCH  18  19
ENDBRANCH  14  15
BRANCH  12  10
ATOM      9  N   UNL     1      -3.738   0.121  24.623  0.00  0.00    -0.194 NA
ATOM     10  C   UNL     1      -4.295   0.336  25.194  0.00  0.00    +0.261 C 
ATOM     11  O   UNL     1      -4.546  -0.216  25.753  0.00  0.00    -0.269 OA
BRANCH   9   8
ATOM      8  C   UNL     1      -3.434  -0.646  24.613  0.00  0.00    +0.179 C 
BRANCH   8  32
ATOM     32  C   UNL     1      -3.760  -1.212  24.110  0.00  0.00    +0.281 C 
ATOM     33  N   UNL     1      -3.985  -1.949  24.408  0.00  0.00    -0.086 NA
ATOM     34  O   UNL     1      -3.861  -1.044  23.308  0.00  0.00    -0.270 OA
ENDBRANCH   8  32
BRANCH   8   7
ATOM      7  C   UNL     1      -2.804  -0.846  25.107  0.00  0.00    +0.057 C 
BRANCH   7   6
ATOM      3  C   UNL     1      -0.477  -0.637  24.294  0.00  0.00    +0.139 A 
ATOM      4  C   UNL     1      -0.795  -1.382  24.445  0.00  0.00    +0.037 A 
ATOM      5  C   UNL     1      -1.571  -1.453  24.716  0.00  0.00    -0.001 A 
ATOM      6  C   UNL     1      -2.029  -0.776  24.836  0.00  0.00    -0.020 A 
ATOM     35  C   UNL     1      -1.710  -0.031  24.685  0.00  0.00    -0.001 A 
ATOM     36  C   UNL     1      -0.934   0.039  24.414  0.00  0.00    +0.037 A 
BRANCH   3   2
ATOM      1  C   UNL     1       0.452  -0.212  23.293  0.00  0.00    +0.252 C 
ATOM      2  O   UNL     1       0.300  -0.567  24.022  0.00  0.00    -0.471 OA
ENDBRANCH   3   2
ENDBRANCH   7   6
ENDBRANCH   8   7
ENDBRANCH   9   8
ENDBRANCH  12  10
TORSDOF 8
ENDMDL
MODEL 4
REMARK VINA RESULT:     -11.9      1.899      4.081
REMARK  Name = 
REMARK  8 active torsions:
REMARK  status: ('A' for Active; 'I' for Inactive)
REMARK    1  A    between atoms: O_2  and  C_3
REMARK    2  A    between atoms: C_6  and  C_7
REMARK    3  A    between atoms: C_7  and  C_8
REMARK    4  A    between atoms: C_8  and  N_9
REMARK    5  A    between atoms: C_8  and  C_32
REMARK    6  A    between atoms: C_10  and  C_12
REMARK    7  A    between atoms: C_14  and  N_15
REMARK    8  A    between atoms: N_18  and  C_19
REMARK                            x       y       z     vdW  Elec       q    Type
REMARK                         _______ _______ _______ _____ _____    ______ ____
ROOT
ATOM     12  C   UNL     1      -0.912   2.897  25.115  0.00  0.00    +0.033 C 
ATOM     13  C   UNL     1      -1.658   2.947  25.463  0.00  0.00    -0.002 C 
ATOM     14  C   UNL     1      -2.019   3.683  25.564  0.00  0.00    +0.152 C 
ATOM     27  C   UNL     1      -1.632   4.368  25.316  0.00  0.00    +0.206 C 
ATOM     28  O   UNL     1      -1.992   5.103  25.417  0.00  0.00    -0.218 OA
ATOM     29  C   UNL     1      -0.886   4.318  24.967  0.00  0.00    +0.189 C 
ATOM     30  O   UNL     1      -0.500   5.003  24.720  0.00  0.00    -0.220 OA
ATOM     31  C   UNL     1      -0.527   3.583  24.867  0.00  0.00    +0.066 C 
ENDROOT
BRANCH  14  15
ATOM     15  N   UNL     1      -2.764   3.733  25.913  0.00  0.00    -0.181 NA
ATOM     16  C   UNL     1      -3.394   3.301  25.603  0.00  0.00    +0.344 C 
ATOM     17  O   UNL     1      -3.278   2.819  24.944  0.00  0.00    -0.249 OA
ATOM     18  N   UNL     1      -4.140   3.351  25.951  0.00  0.00    -0.159 NA
BRANCH  18  19
ATOM     19  C   UNL     1      -4.770   2.919  25.641  0.00  0.00    +0.102 A 
ATOM     20  C   UNL     1      -4.668   2.124  25.446  0.00  0.00    +0.021 A 
ATOM     21  C   UNL     1      -5.299   1.691  25.135  0.00  0.00    +0.031 A 
ATOM     22  C   UNL     1      -6.031   2.054  25.020  0.00  0.00    +0.142 A 
ATOM     23  F   UNL     1      -6.661   1.621  24.709  0.00  0.00    -0.204 F 
ATOM     24  C   UNL     1      -6.133   2.849  25.214  0.00  0.00    +0.061 A 
ATOM     25  C   UNL     1      -5.502   3.281  25.525  0.00  0.00    +0.158 A 
ATOM     26  F   UNL     1      -5.604   4.076  25.720  0.00  0.00    -0.203 F 
ENDBRANCH  18  19
ENDBRANCH  14  15
BRANCH  12  10
ATOM      9  N   UNL     1      -0.949   1.561  24.609  0.00  0.00    -0.194 NA
ATOM     10  C   UNL     1      -0.553   2.162  25.014  0.00  0.00    +0.261 C 
ATOM     11  O   UNL     1       0.202   2.026  25.318  0.00  0.00    -0.269 OA
BRANCH   9   8
ATOM      8  C   UNL     1      -0.589   0.825  24.508  0.00  0.00    +0.179 C 
BRANCH   8  32
ATOM     32  C   UNL     1      -0.148   0.671  23.829  0.00  0.00    +0.281 C 
ATOM     33  N   UNL     1       0.589   0.303  23.890  0.00  0.00    -0.086 NA
ATOM     34  O   UNL     1      -0.443   0.883  23.088  0.00  0.00    -0.270 OA
ENDBRANCH   8  32
BRANCH   8   7
ATOM      7  C   UNL     1      -0.670   0.244  25.088  0.00  0.00    +0.057 C 
BRANCH   7   6
ATOM      3  C   UNL     1      -2.768  -1.057  25.255  0.00  0.00    +0.139 A 
ATOM      4  C   UNL     1      -2.359  -0.845  25.939  0.00  0.00    +0.037 A 
ATOM      5  C   UNL     1      -1.660  -0.411  25.884  0.00  0.00    -0.001 A 
ATOM      6  C   UNL     1      -1.370  -0.189  25.143  0.00  0.00    -0.020 A 
ATOM     35  C   UNL     1      -1.778  -0.401  24.460  0.00  0.00    -0.001 A 
ATOM     36  C   UNL     1      -2.479  -0.835  24.516  0.00  0.00    +0.037 A 
BRANCH   3   2
ATOM      1  C   UNL     1      -3.491  -2.273  25.050  0.00  0.00    +0.252 C 
ATOM      2  O   UNL     1      -3.468  -1.491  25.311  0.00  0.00    -0.471 OA
ENDBRANCH   3   2
ENDBRANCH   7   6
ENDBRANCH   8   7
ENDBRANCH   9   8
ENDBRANCH  12  10
TORSDOF 8
ENDMDL
MODEL 5
REMARK VINA RESULT:     -11.8      1.445      3.712
REMARK  Name = 
REMARK  8 active torsions:
REMARK  status: ('A' for Active; 'I' for Inactive)
REMARK    1  A    between atoms: O_2  and  C_3
REMARK    2  A    between atoms: C_6  and  C_7
REMARK    3  A    between atoms: C_7  and  C_8
REMARK    4  A    between atoms: C_8  and  N_9
REMARK    5  A    between atoms: C_8  and  C_32
REMARK    6  A    between atoms: C_10  and  C_12
REMARK    7  A    between atoms: C_14  and  N_15
REMARK    8  A    between atoms: N_18  and  C_19
REMARK                            x       y       z     vdW  Elec       q    Type
REMARK                         _______ _______ _______ _____ _____    ______ ____
ROOT
ATOM     12  C   UNL     1      -2.650   3.643  24.800  0.00  0.00    +0.033 C 
ATOM     13  C   UNL     1      -2.109   3.075  24.545  0.00  0.00    -0.002 C 
ATOM     14  C   UNL     1      -1.299   3.225  24.593  0.00  0.00    +0.152 C 
ATOM     27  C   UNL     1      -1.031   3.943  24.898  0.00  0.00    +0.206 C 
ATOM     28  O   UNL     1      -0.221   4.093  24.946  0.00  0.00    -0.218 OA
ATOM     29  C   UNL     1      -1.572   4.511  25.153  0.00  0.00    +0.189 C 
ATOM     30  O   UNL     1      -1.303   5.229  25.458  0.00  0.00    -0.220 OA
ATOM     31  C   UNL     1      -2.381   4.361  25.105  0.00  0.00    +0.066 C 
ENDROOT
BRANCH  14  15
ATOM     15  N   UNL     1      -0.759   2.658  24.338  0.00  0.00    -0.181 NA
ATOM     16  C   UNL     1      -0.846   1.871  24.570  0.00  0.00    +0.344 C 
ATOM     17  O   UNL     1      -1.474   1.653  25.057  0.00  0.00    -0.249 OA
ATOM     18  N   UNL     1      -0.305   1.303  24.314  0.00  0.00    -0.159 NA
BRANCH  18  19
ATOM     19  C   UNL     1      -0.392   0.517  24.546  0.00  0.00    +0.102 A 
ATOM     20  C   UNL     1      -0.659   0.338  25.306  0.00  0.00    +0.021 A 
ATOM     21  C   UNL     1      -0.747  -0.449  25.539  0.00  0.00    +0.031 A 
ATOM     22  C   UNL     1      -0.567  -1.058  25.010  0.00  0.00    +0.142 A 
ATOM     23  F   UNL     1      -0.655  -1.844  25.243  0.00  0.00    -0.204 F 
ATOM     24  C   UNL     1      -0.301  -0.879  24.250  0.00  0.00    +0.061 A 
ATOM     25  C   UNL     1      -0.213  -0.092  24.019  0.00  0.00    +0.158 A 
ATOM     26  F   UNL     1       0.054   0.086  23.259  0.00  0.00    -0.203 F 
ENDBRANCH  18  19
ENDBRANCH  14  15
BRANCH  12  10
ATOM      9  N   UNL     1      -3.790   2.869  25.180  0.00  0.00    -0.194 NA
ATOM     10  C   UNL     1      -3.459   3.493  24.752  0.00  0.00    +0.261 C 
ATOM     11  O   UNL     1      -3.940   3.965  24.275  0.00  0.00    -0.269 OA
BRANCH   9   8
ATOM      8  C   UNL     1      -4.600   2.719  25.131  0.00  0.00    +0.179 C 
BRANCH   8  32
ATOM     32  C   UNL     1      -5.123   3.103  25.640  0.00  0.00    +0.281 C 
ATOM     33  N   UNL     1      -5.807   3.455  25.340  0.00  0.00    -0.086 NA
ATOM     34  O   UNL     1      -4.963   3.136  26.449  0.00  0.00    -0.270 OA
ENDBRANCH   8  32
BRANCH   8   7
ATOM      7  C   UNL     1      -4.887   2.184  24.572  0.00  0.00    +0.057 C 
BRANCH   7   6
ATOM      3  C   UNL     1      -4.346  -0.222  24.767  0.00  0.00    +0.139 A 
ATOM      4  C   UNL     1      -4.205   0.175  24.059  0.00  0.00    +0.037 A 
ATOM      5  C   UNL     1      -4.385   0.978  23.994  0.00  0.00    -0.001 A 
ATOM      6  C   UNL     1      -4.707   1.382  24.638  0.00  0.00    -0.020 A 
ATOM     35  C   UNL     1      -4.848   0.984  25.346  0.00  0.00    -0.001 A 
ATOM     36  C   UNL     1      -4.668   0.181  25.411  0.00  0.00    +0.037 A 
BRANCH   3   2
ATOM      1  C   UNL     1      -4.092  -1.488  24.153  0.00  0.00    +0.252 C 
ATOM      2  O   UNL     1      -4.166  -1.026  24.832  0.00  0.00    -0.471 OA
ENDBRANCH   3   2
ENDBRANCH   7   6
ENDBRANCH   8   7
ENDBRANCH   9   8
ENDBRANCH  12  10
TORSDOF 8
ENDMDL
MODEL 6
REMARK VINA RESULT:     -11.7      1.870      4.029
REMARK  Name = 
REMARK  8 active torsions:
REMARK  status: ('A' for Active; 'I' for Inactive)
REMARK    1  A    between atoms: O_2  and  C_3
REMARK    2  A    between atoms: C_6  and  C_7
REMARK    3  A    between atoms: C_7  and  C_8
REMARK    4  A    between atoms: C_8  and  N_9
REMARK    5  A    between atoms: C_8  and  C_32
REMARK    6  A    between atoms: C_10  and  C_12
REMARK    7  A    between atoms: C_14  and  N_15
REMARK    8  A    between atoms: N_18  and  C_19
REMARK                            x       y       z     vdW  Elec       q    Type
REMARK                         _______ _______ _______ _____ _____    ______ ____
ROOT
ATOM     12  C   UNL     1      -2.057  -0.579  24.663  0.00  0.00    +0.033 C 
ATOM     13  C   UNL     1      -2.697  -0.111  24.436  0.00  0.00    -0.002 C 
ATOM     14  C   UNL     1      -3.463  -0.418  24.461  0.00  0.00    +0.152 C 
ATOM     27  C   UNL     1      -3.587  -1.194  24.713  0.00  0.00    +0.206 C 
ATOM     28  O   UNL     1      -4.353  -1.501  24.738  0.00  0.00    -0.218 OA
ATOM     29  C   UNL     1      -2.947  -1.662  24.940  0.00  0.00    +0.189 C 
ATOM     30  O   UNL     1      -3.072  -2.437  25.193  0.00  0.00    -0.220 OA
ATOM     31  C   UNL     1      -2.183  -1.354  24.915  0.00  0.00    +0.066 C 
ENDROOT
BRANCH  14  15
ATOM     15  N   UNL     1      -4.103   0.049  24.234  0.00  0.00    -0.181 NA
ATOM     16  C   UNL     1      -4.244   0.768  24.613  0.00  0.00    +0.344 C 
ATOM     17  O   UNL     1      -3.744   1.018  25.219  0.00  0.00    -0.249 OA
ATOM     18  N   UNL     1      -4.884   1.236  24.386  0.00  0.00    -0.159 NA
BRANCH  18  19
ATOM     19  C   UNL     1      -5.025   1.954  24.765  0.00  0.00    +0.102 A 
ATOM     20  C   UNL     1      -4.451   2.547  24.751  0.00  0.00    +0.021 A 
ATOM     21  C   UNL     1      -4.591   3.267  25.131  0.00  0.00    +0.031 A 
ATOM     22  C   UNL     1      -5.306   3.393  25.525  0.00  0.00    +0.142 A 
ATOM     23  F   UNL     1      -5.446   4.112  25.904  0.00  0.00    -0.204 F 
ATOM     24  C   UNL     1      -5.879   2.800  25.539  0.00  0.00    +0.061 A 
ATOM     25  C   UNL     1      -5.738   2.081  25.159  0.00  0.00    +0.158 A 
ATOM     26  F   UNL     1      -6.312   1.488  25.174  0.00  0.00    -0.203 F 
ENDBRANCH  18  19
ENDBRANCH  14  15
BRANCH  12  10
ATOM      9  N   UNL     1      -1.164   0.491  24.346  0.00  0.00    -0.194 NA
ATOM     10  C   UNL     1      -1.293  -0.271  24.637  0.00  0.00    +0.261 C 
ATOM     11  O   UNL     1      -0.656  -0.725  24.902  0.00  0.00    -0.269 OA
BRANCH   9   8
ATOM      8  C   UNL     1      -0.398   0.798  24.321  0.00  0.00    +0.179 C 
BRANCH   8  32
ATOM     32  C   UNL     1       0.082   0.657  23.667  0.00  0.00    +0.281 C 
ATOM     33  N   UNL     1       0.865   0.417  23.773  0.00  0.00    -0.086 NA
ATOM     34  O   UNL     1      -0.218   0.754  22.904  0.00  0.00    -0.270 OA
ENDBRANCH   8  32
BRANCH   8   7
ATOM      7  C   UNL     1      -0.114   1.248  24.952  0.00  0.00    +0.057 C 
BRANCH   7   6
ATOM      3  C   UNL     1      -0.949   3.549  25.311  0.00  0.00    +0.139 A 
ATOM      4  C   UNL     1      -0.906   3.023  25.944  0.00  0.00    +0.037 A 
ATOM      5  C   UNL     1      -0.628   2.256  25.825  0.00  0.00    -0.001 A 
ATOM      6  C   UNL     1      -0.392   2.015  25.071  0.00  0.00    -0.020 A 
ATOM     35  C   UNL     1      -0.435   2.541  24.438  0.00  0.00    -0.001 A 
ATOM     36  C   UNL     1      -0.713   3.309  24.558  0.00  0.00    +0.037 A 
BRANCH   3   2
ATOM      1  C   UNL     1      -0.972   4.930  24.941  0.00  0.00    +0.252 C 
ATOM      2  O   UNL     1      -1.228   4.317  25.431  0.00  0.00    -0.471 OA
ENDBRANCH   3   2
ENDBRANCH   7   6
ENDBRANCH   8   7
ENDBRANCH   9   8
ENDBRANCH  12  10
TORSDOF 8
ENDMDL
MODEL 7
REMARK VINA RESULT:     -11.7      2.279      5.651
REMARK  Name = 
REMARK  8 active torsions:
REMARK  status: ('A' for Active; 'I' for Inactive)
REMARK    1  A    between atoms: O_2  and  C_3
REMARK    2  A    between atoms: C_6  and  C_7
REMARK    3  A    between atoms: C_7  and  C_8
REMARK    4  A    between atoms: C_8  and  N_9
REMARK    5  A    between atoms: C_8  and  C_32
REMARK    6  A    between atoms: C_10  and  C_12
REMARK    7  A    between atoms: C_14  and  N_15
REMARK    8  A    between atoms: N_18  and  C_19
REMARK                            x       y       z     vdW  Elec       q    Type
REMARK                         _______ _______ _______ _____ _____    ______ ____
ROOT
ATOM     12  C   UNL     1      -0.955  -0.305  24.694  0.00  0.00    +0.033 C 
ATOM     13  C   UNL     1      -0.791   0.433  25.026  0.00  0.00    -0.002 C 
ATOM     14  C   UNL     1      -0.184   0.899  24.717  0.00  0.00    +0.152 C 
ATOM     27  C   UNL     1       0.259   0.627  24.077  0.00  0.00    +0.206 C 
ATOM     28  O   UNL     1       0.866   1.093  23.769  0.00  0.00    -0.218 OA
ATOM     29  C   UNL     1       0.096  -0.111  23.745  0.00  0.00    +0.189 C 
ATOM     30  O   UNL     1       0.539  -0.382  23.105  0.00  0.00    -0.220 OA
ATOM     31  C   UNL     1      -0.511  -0.576  24.053  0.00  0.00    +0.066 C 
ENDROOT
BRANCH  14  15
ATOM     15  N   UNL     1      -0.020   1.635  25.048  0.00  0.00    -0.181 NA
ATOM     16  C   UNL     1      -0.609   2.213  25.083  0.00  0.00    +0.344 C 
ATOM     17  O   UNL     1      -1.361   2.052  24.785  0.00  0.00    -0.249 OA
ATOM     18  N   UNL     1      -0.445   2.950  25.415  0.00  0.00    -0.159 NA
BRANCH  18  19
ATOM     19  C   UNL     1      -1.033   3.526  25.449  0.00  0.00    +0.102 A 
ATOM     20  C   UNL     1      -1.745   3.366  25.834  0.00  0.00    +0.021 A 
ATOM     21  C   UNL     1      -2.335   3.944  25.868  0.00  0.00    +0.031 A 
ATOM     22  C   UNL     1      -2.212   4.681  25.516  0.00  0.00    +0.142 A 
ATOM     23  F   UNL     1      -2.801   5.257  25.551  0.00  0.00    -0.204 F 
ATOM     24  C   UNL     1      -1.500   4.840  25.131  0.00  0.00    +0.061 A 
ATOM     25  C   UNL     1      -0.911   4.263  25.098  0.00  0.00    +0.158 A 
ATOM     26  F   UNL     1      -0.199   4.423  24.713  0.00  0.00    -0.203 F 
ENDBRANCH  18  19
ENDBRANCH  14  15
BRANCH  12  10
ATOM      9  N   UNL     1      -2.303  -0.776  24.637  0.00  0.00    -0.194 NA
ATOM     10  C   UNL     1      -1.562  -0.770  25.002  0.00  0.00    +0.261 C 
ATOM     11  O   UNL     1      -1.429  -1.229  25.675  0.00  0.00    -0.269 OA
BRANCH   9   8
ATOM      8  C   UNL     1      -2.910  -1.242  24.946  0.00  0.00    +0.179 C 
BRANCH   8  32
ATOM     32  C   UNL     1      -2.984  -2.030  24.716  0.00  0.00    +0.281 C 
ATOM     33  N   UNL     1      -3.138  -2.613  25.281  0.00  0.00    -0.086 NA
ATOM     34  O   UNL     1      -2.904  -2.238  23.921  0.00  0.00    -0.270 OA
ENDBRANCH   8  32
BRANCH   8   7
ATOM      7  C   UNL     1      -3.443  -0.919  25.486  0.00  0.00    +0.057 C 
BRANCH   7   6
ATOM      3  C   UNL     1      -4.978   0.889  24.779  0.00  0.00    +0.139 A 
ATOM      4  C   UNL     1      -4.819   0.260  24.270  0.00  0.00    +0.037 A 
ATOM      5  C   UNL     1      -4.308  -0.342  24.505  0.00  0.00    -0.001 A 
ATOM      6  C   UNL     1      -3.955  -0.316  25.251  0.00  0.00    -0.020 A 
ATOM     35  C   UNL     1      -4.113   0.313  25.760  0.00  0.00    -0.001 A 
ATOM     36  C   UNL     1      -4.626   0.916  25.524  0.00  0.00    +0.037 A 
BRANCH   3   2
ATOM      1  C   UNL     1      -5.552   2.181  24.993  0.00  0.00    +0.252 C 
ATOM      2  O   UNL     1      -5.490   1.492  24.543  0.00  0.00    -0.471 OA
ENDBRANCH   3   2
ENDBRANCH   7   6
ENDBRANCH   8   7
ENDBRANCH   9   8
ENDBRANCH  12  10
TORSDOF 8
ENDMDL
MODEL 8
REMARK VINA RESULT:     -11.5      1.921      4.417
REMARK  Name = 
REMARK  8 active torsions:
REMARK  status: ('A' for Active; 'I' for Inactive)
REMARK    1  A    between atoms: O_2  and  C_3
REMARK    2  A    between atoms: C_6  and  C_7
REMARK    3  A    between atoms: C_7  and  C_8
REMARK    4  A    between atoms: C_8  and  N_9
REMARK    5  A    between atoms: C_8  and  C_32
REMARK    6  A    between atoms: C_10  and  C_12
REMARK    7  A    between atoms: C_14  and  N_15
REMARK    8  A    between atoms: N_18  and  C_19
REMARK                            x       y       z     vdW  Elec       q    Type
REMARK                         _______ _______ _______ _____ _____    ______ ____
ROOT
ATOM     12  C   UNL     1      -4.173  -0.253  24.743  0.00  0.00    +0.033 C 
ATOM     13  C   UNL     1      -3.424  -0.085  25.045  0.00  0.00    -0.002 C 
ATOM     14  C   UNL     1      -2.869  -0.690  25.134  0.00  0.00    +0.152 C 
ATOM     27  C   UNL     1      -3.065  -1.462  24.921  0.00  0.00    +0.206 C 
ATOM     28  O   UNL     1      -2.510  -2.066  25.010  0.00  0.00    -0.218 OA
ATOM     29  C   UNL     1      -3.814  -1.630  24.619  0.00  0.00    +0.189 C 
ATOM     30  O   UNL     1      -4.008  -2.403  24.406  0.00  0.00    -0.220 OA
ATOM     31  C   UNL     1      -4.367  -1.026  24.530  0.00  0.00    +0.066 C 
ENDROOT
BRANCH  14  15
ATOM     15  N   UNL     1      -2.121  -0.522  25.436  0.00  0.00    -0.181 NA
ATOM     16  C   UNL     1      -1.656   0.062  25.085  0.00  0.00    +0.344 C 
ATOM     17  O   UNL     1      -1.940   0.477  24.432  0.00  0.00    -0.249 OA
ATOM     18  N   UNL     1      -0.907   0.230  25.387  0.00  0.00    -0.159 NA
BRANCH  18  19
ATOM     19  C   UNL     1      -0.442   0.813  25.036  0.00  0.00    +0.102 A 
ATOM     20  C   UNL     1      -0.156   0.707  24.270  0.00  0.00    +0.021 A 
ATOM     21  C   UNL     1       0.309   1.291  23.918  0.00  0.00    +0.031 A 
ATOM     22  C   UNL     1       0.488   1.982  24.333  0.00  0.00    +0.142 A 
ATOM     23  F   UNL     1       0.953   2.565  23.981  0.00  0.00    -0.204 F 
ATOM     24  C   UNL     1       0.201   2.089  25.099  0.00  0.00    +0.061 A 
ATOM     25  C   UNL     1      -0.264   1.505  25.450  0.00  0.00    +0.158 A 
ATOM     26  F   UNL     1      -0.550   1.611  26.216  0.00  0.00    -0.203 F 
ENDBRANCH  18  19
ENDBRANCH  14  15
BRANCH  12  10
ATOM      9  N   UNL     1      -4.627   1.065  25.058  0.00  0.00    -0.194 NA
ATOM     10  C   UNL     1      -4.727   0.352  24.654  0.00  0.00    +0.261 C 
ATOM     11  O   UNL     1      -5.381   0.244  24.163  0.00  0.00    -0.269 OA
BRANCH   9   8
ATOM      8  C   UNL     1      -5.181   1.670  24.969  0.00  0.00    +0.179 C 
BRANCH   8  32
ATOM     32  C   UNL     1      -5.875   1.663  25.414  0.00  0.00    +0.281 C 
ATOM     33  N   UNL     1      -6.605   1.770  25.042  0.00  0.00    -0.086 NA
ATOM     34  O   UNL     1      -5.841   1.550  26.231  0.00  0.00    -0.270 OA
ENDBRANCH   8  32
BRANCH   8   7
ATOM      7  C   UNL     1      -5.041   2.282  24.433  0.00  0.00    +0.057 C 
BRANCH   7   6
ATOM      3  C   UNL     1      -3.172   3.858  24.812  0.00  0.00    +0.139 A 
ATOM      4  C   UNL     1      -3.279   3.517  24.070  0.00  0.00    +0.037 A 
ATOM      5  C   UNL     1      -3.902   2.991  23.943  0.00  0.00    -0.001 A 
ATOM      6  C   UNL     1      -4.418   2.807  24.560  0.00  0.00    -0.020 A 
ATOM     35  C   UNL     1      -4.311   3.148  25.303  0.00  0.00    -0.001 A 
ATOM     36  C   UNL     1      -3.687   3.674  25.430  0.00  0.00    +0.037 A 
BRANCH   3   2
ATOM      1  C   UNL     1      -2.273   4.521  25.705  0.00  0.00    +0.252 C 
ATOM      2  O   UNL     1      -2.548   4.383  24.939  0.00  0.00    -0.471 OA
ENDBRANCH   3   2
ENDBRANCH   7   6
ENDBRANCH   8   7
ENDBRANCH   9   8
ENDBRANCH  12  10
TORSDOF 8
ENDMDL
