MODEL 1
REMARK VINA RESULT:     -11.2      0.000      0.000
REMARK  Name = 
REMARK  3 active torsions:
REMARK  status: ('A' for Active; 'I' for Inactive)
REMARK    1  A    between atoms: C_2  and  C_5
REMARK    2  A    between atoms: C_5  and  C_6
REMARK    3  A    between atoms: C_20  and  C_23
REMARK                            x       y       z     vdW  Elec       q    Type
REMARK                         _______ _______ _______ _____ _____    ______ ____
ROOT
ATOM      6  C   UNL     1      -4.456   2.253  24.635  0.00  0.00    +0.226 C 
ATOM      7  O   UNL     1      -4.741   2.965  24.328  0.00  0.00    -0.275 OA
ATOM      8  N   UNL     1      -3.706   1.983  24.423  0.00  0.00    -0.276 N 
ATOM      9  C   UNL     1      -3.240   2.424  23.904  0.00  0.00    +0.115 C 
ATOM     10  C   UNL     1      -2.490   2.155  23.692  0.00  0.00    +0.116 C 
ATOM     11  N   UNL     1      -2.206   1.443  23.999  0.00  0.00    -0.266 N 
ATOM     12  C   UNL     1      -2.672   1.003  24.517  0.00  0.00    +0.174 C 
ATOM     13  C   UNL     1      -3.421   1.272  24.730  0.00  0.00    +0.123 C 
ATOM     14  C   UNL     1      -2.495   0.285  24.883  0.00  0.00    +0.265 C 
ATOM     15  O   UNL     1      -3.081  -0.019  25.377  0.00  0.00    -0.271 OA
ATOM     16  N   UNL     1      -1.809  -0.169  24.821  0.00  0.00    -0.178 NA
ATOM     17  C   UNL     1      -1.130  -0.017  24.377  0.00  0.00    +0.078 A 
ATOM     18  C   UNL     1      -0.970   0.625  23.887  0.00  0.00    +0.069 A 
ATOM     19  C   UNL     1      -0.248   0.671  23.489  0.00  0.00    +0.006 A 
ATOM     20  C   UNL     1       0.312   0.073  23.582  0.00  0.00    +0.000 A 
ATOM     21  C   UNL     1       0.152  -0.570  24.073  0.00  0.00    +0.001 A 
ATOM     22  C   UNL     1      -0.569  -0.616  24.471  0.00  0.00    +0.017 A 
ATOM     32  C   UNL     1      -1.449   1.276  23.718  0.00  0.00    +0.251 C 
ATOM     33  O   UNL     1      -1.127   1.832  23.200  0.00  0.00    -0.270 OA
ENDROOT
BRANCH  20  23
ATOM     23  C   UNL     1       1.034   0.119  23.184  0.00  0.00    +0.003 A 
ATOM     24  C   UNL     1       1.640   0.591  23.483  0.00  0.00    +0.040 A 
ATOM     25  C   UNL     1       2.362   0.637  23.085  0.00  0.00    +0.176 A 
ATOM     26  C   UNL     1       2.477   0.210  22.388  0.00  0.00    +0.176 A 
ATOM     27  O   UNL     1       3.242   0.363  22.119  0.00  0.00    -0.435 OA
ATOM     28  C   UNL     1       3.599   0.883  22.648  0.00  0.00    +0.429 C 
ATOM     29  O   UNL     1       3.056   1.053  23.246  0.00  0.00    -0.435 OA
ATOM     30  C   UNL     1       1.870  -0.263  22.089  0.00  0.00    +0.040 A 
ATOM     31  C   UNL     1       1.149  -0.308  22.487  0.00  0.00    +0.003 A 
ENDBRANCH  20  23
BRANCH   6   5
ATOM      5  C   UNL     1      -4.922   1.812  25.154  0.00  0.00    +0.085 C 
BRANCH   5   2
ATOM      1  C   UNL     1      -6.430   2.342  25.564  0.00  0.00    +0.000 C 
ATOM      2  C   UNL     1      -5.675   2.077  25.359  0.00  0.00    +0.009 C 
ATOM      3  C   UNL     1      -6.005   1.587  24.783  0.00  0.00    +0.000 C 
ATOM      4  C   UNL     1      -5.347   2.567  25.935  0.00  0.00    +0.000 C 
ENDBRANCH   5   2
ENDBRANCH   6   5
TORSDOF 3
ENDMDL
MODEL 2
REMARK VINA RESULT:      -9.4      2.817      4.913
REMARK  Name = 
REMARK  3 active torsions:
REMARK  status: ('A' for Active; 'I' for Inactive)
REMARK    1  A    between atoms: C_2  and  C_5
REMARK    2  A    between atoms: C_5  and  C_6
REMARK    3  A    between atoms: C_20  and  C_23
REMARK                            x       y       z     vdW  Elec       q    Type
REMARK                         _______ _______ _______ _____ _____    ______ ____
ROOT
ATOM      6  C   UNL     1      -1.165   4.111  24.948  0.00  0.00    +0.226 C 
ATOM      7  O   UNL     1      -0.342   4.179  24.936  0.00  0.00    -0.275 OA
ATOM      8  N   UNL     1      -1.519   3.370  24.871  0.00  0.00    -0.276 N 
ATOM      9  C   UNL     1      -1.051   2.696  24.782  0.00  0.00    +0.115 C 
ATOM     10  C   UNL     1      -1.404   1.956  24.705  0.00  0.00    +0.116 C 
ATOM     11  N   UNL     1      -2.226   1.888  24.717  0.00  0.00    -0.266 N 
ATOM     12  C   UNL     1      -2.694   2.561  24.806  0.00  0.00    +0.174 C 
ATOM     13  C   UNL     1      -2.341   3.302  24.883  0.00  0.00    +0.123 C 
ATOM     14  C   UNL     1      -3.517   2.615  24.832  0.00  0.00    +0.265 C 
ATOM     15  O   UNL     1      -3.822   3.375  24.927  0.00  0.00    -0.271 OA
ATOM     16  N   UNL     1      -4.075   2.011  24.775  0.00  0.00    -0.178 NA
ATOM     17  C   UNL     1      -3.947   1.201  24.679  0.00  0.00    +0.078 A 
ATOM     18  C   UNL     1      -3.231   0.797  24.615  0.00  0.00    +0.069 A 
ATOM     19  C   UNL     1      -3.227  -0.023  24.520  0.00  0.00    +0.006 A 
ATOM     20  C   UNL     1      -3.939  -0.438  24.490  0.00  0.00    +0.000 A 
ATOM     21  C   UNL     1      -4.655  -0.034  24.553  0.00  0.00    +0.001 A 
ATOM     22  C   UNL     1      -4.660   0.785  24.648  0.00  0.00    +0.017 A 
ATOM     32  C   UNL     1      -2.465   1.103  24.632  0.00  0.00    +0.251 C 
ATOM     33  O   UNL     1      -1.857   0.550  24.554  0.00  0.00    -0.270 OA
ENDROOT
BRANCH  20  23
ATOM     23  C   UNL     1      -3.934  -1.258  24.395  0.00  0.00    +0.003 A 
ATOM     24  C   UNL     1      -3.558  -1.735  24.953  0.00  0.00    +0.040 A 
ATOM     25  C   UNL     1      -3.554  -2.555  24.858  0.00  0.00    +0.176 A 
ATOM     26  C   UNL     1      -3.925  -2.897  24.206  0.00  0.00    +0.176 A 
ATOM     27  O   UNL     1      -3.830  -3.715  24.259  0.00  0.00    -0.435 OA
ATOM     28  C   UNL     1      -3.401  -3.878  24.943  0.00  0.00    +0.429 C 
ATOM     29  O   UNL     1      -3.230  -3.162  25.314  0.00  0.00    -0.435 OA
ATOM     30  C   UNL     1      -4.301  -2.419  23.647  0.00  0.00    +0.040 A 
ATOM     31  C   UNL     1      -4.306  -1.600  23.742  0.00  0.00    +0.003 A 
ENDBRANCH  20  23
BRANCH   6   5
ATOM      5  C   UNL     1      -1.633   4.785  25.037  0.00  0.00    +0.085 C 
BRANCH   5   2
ATOM      1  C   UNL     1      -0.963   6.284  24.878  0.00  0.00    +0.000 C 
ATOM      2  C   UNL     1      -1.298   5.534  24.957  0.00  0.00    +0.009 C 
ATOM      3  C   UNL     1      -1.892   5.850  25.435  0.00  0.00    +0.000 C 
ATOM      4  C   UNL     1      -0.704   5.218  24.480  0.00  0.00    +0.000 C 
ENDBRANCH   5   2
ENDBRANCH   6   5
TORSDOF 3
ENDMDL
MODEL 3
REMARK VINA RESULT:      -9.3      2.884      4.504
REMARK  Name = 
REMARK  3 active torsions:
REMARK  status: ('A' for Active; 'I' for Inactive)
REMARK    1  A    between atoms: C_2  and  C_5
REMARK    2  A    between atoms: C_5  and  C_6
REMARK    3  A    between atoms: C_20  and  C_23
REMARK                            x       y       z     vdW  Elec       q    Type
REMARK                         _______ _______ _______ _____ _____    ______ ____
ROOT
ATOM      6  C   UNL     1      -3.617  -1.679  24.265  0.00  0.00    +0.226 C 
ATOM      7  O   UNL     1      -4.350  -1.763  23.895  0.00  0.00    -0.275 OA
ATOM      8  N   UNL     1      -3.285  -0.929  24.358  0.00  0.00    -0.276 N 
ATOM      9  C   UNL     1      -3.685  -0.263  24.081  0.00  0.00    +0.115 C 
ATOM     10  C   UNL     1      -3.354   0.486  24.174  0.00  0.00    +0.116 C 
ATOM     11  N   UNL     1      -2.621   0.569  24.544  0.00  0.00    -0.266 N 
ATOM     12  C   UNL     1      -2.221  -0.097  24.821  0.00  0.00    +0.174 C 
ATOM     13  C   UNL     1      -2.552  -0.846  24.729  0.00  0.00    +0.123 C 
ATOM     14  C   UNL     1      -1.491  -0.135  25.203  0.00  0.00    +0.265 C 
ATOM     15  O   UNL     1      -1.237  -0.891  25.414  0.00  0.00    -0.271 OA
ATOM     16  N   UNL     1      -0.981   0.481  25.402  0.00  0.00    -0.178 NA
ATOM     17  C   UNL     1      -1.075   1.290  25.268  0.00  0.00    +0.078 A 
ATOM     18  C   UNL     1      -1.702   1.681  24.903  0.00  0.00    +0.069 A 
ATOM     19  C   UNL     1      -1.686   2.503  24.824  0.00  0.00    +0.006 A 
ATOM     20  C   UNL     1      -1.043   2.932  25.111  0.00  0.00    +0.000 A 
ATOM     21  C   UNL     1      -0.417   2.541  25.477  0.00  0.00    +0.001 A 
ATOM     22  C   UNL     1      -0.432   1.720  25.556  0.00  0.00    +0.017 A 
ATOM     32  C   UNL     1      -2.391   1.360  24.580  0.00  0.00    +0.251 C 
ATOM     33  O   UNL     1      -2.917   1.903  24.250  0.00  0.00    -0.270 OA
ENDROOT
BRANCH  20  23
ATOM     23  C   UNL     1      -1.028   3.754  25.033  0.00  0.00    +0.003 A 
ATOM     24  C   UNL     1      -1.663   4.205  25.305  0.00  0.00    +0.040 A 
ATOM     25  C   UNL     1      -1.647   5.027  25.226  0.00  0.00    +0.176 A 
ATOM     26  C   UNL     1      -0.998   5.396  24.876  0.00  0.00    +0.176 A 
ATOM     27  O   UNL     1      -1.137   6.209  24.873  0.00  0.00    -0.435 OA
ATOM     28  C   UNL     1      -1.872   6.342  25.222  0.00  0.00    +0.429 C 
ATOM     29  O   UNL     1      -2.188   5.612  25.440  0.00  0.00    -0.435 OA
ATOM     30  C   UNL     1      -0.363   4.944  24.604  0.00  0.00    +0.040 A 
ATOM     31  C   UNL     1      -0.379   4.123  24.682  0.00  0.00    +0.003 A 
ENDBRANCH  20  23
BRANCH   6   5
ATOM      5  C   UNL     1      -3.217  -2.345  24.543  0.00  0.00    +0.085 C 
BRANCH   5   2
ATOM      1  C   UNL     1      -3.879  -3.844  24.355  0.00  0.00    +0.000 C 
ATOM      2  C   UNL     1      -3.548  -3.094  24.449  0.00  0.00    +0.009 C 
ATOM      3  C   UNL     1      -3.640  -3.156  25.266  0.00  0.00    +0.000 C 
ATOM      4  C   UNL     1      -3.456  -3.033  23.632  0.00  0.00    +0.000 C 
ENDBRANCH   5   2
ENDBRANCH   6   5
TORSDOF 3
ENDMDL
MODEL 4
REMARK VINA RESULT:      -9.2      1.347      6.345
REMARK  Name = 
REMARK  3 active torsions:
REMARK  status: ('A' for Active; 'I' for Inactive)
REMARK    1  A    between atoms: C_2  and  C_5
REMARK    2  A    between atoms: C_5  and  C_6
REMARK    3  A    between atoms: C_20  and  C_23
REMARK                            x       y       z     vdW  Elec       q    Type
REMARK                         _______ _______ _______ _____ _____    ______ ____
ROOT
ATOM      6  C   UNL     1       2.276   0.207  22.892  0.00  0.00    +0.226 C 
ATOM      7  O   UNL     1       2.436  -0.471  22.451  0.00  0.00    -0.275 OA
ATOM      8  N   UNL     1       1.506   0.363  23.146  0.00  0.00    -0.276 N 
ATOM      9  C   UNL     1       0.896  -0.160  22.958  0.00  0.00    +0.115 C 
ATOM     10  C   UNL     1       0.127  -0.005  23.211  0.00  0.00    +0.116 C 
ATOM     11  N   UNL     1      -0.032   0.674  23.653  0.00  0.00    -0.266 N 
ATOM     12  C   UNL     1       0.578   1.196  23.841  0.00  0.00    +0.174 C 
ATOM     13  C   UNL     1       1.347   1.041  23.588  0.00  0.00    +0.123 C 
ATOM     14  C   UNL     1       0.538   1.898  24.272  0.00  0.00    +0.265 C 
ATOM     15  O   UNL     1       1.252   2.301  24.366  0.00  0.00    -0.271 OA
ATOM     16  N   UNL     1      -0.120   2.252  24.622  0.00  0.00    -0.178 NA
ATOM     17  C   UNL     1      -0.902   1.989  24.626  0.00  0.00    +0.078 A 
ATOM     18  C   UNL     1      -1.219   1.310  24.283  0.00  0.00    +0.069 A 
ATOM     19  C   UNL     1      -2.026   1.149  24.354  0.00  0.00    +0.006 A 
ATOM     20  C   UNL     1      -2.514   1.668  24.768  0.00  0.00    +0.000 A 
ATOM     21  C   UNL     1      -2.198   2.347  25.112  0.00  0.00    +0.001 A 
ATOM     22  C   UNL     1      -1.392   2.509  25.041  0.00  0.00    +0.017 A 
ATOM     32  C   UNL     1      -0.832   0.724  23.850  0.00  0.00    +0.251 C 
ATOM     33  O   UNL     1      -1.307   0.107  23.577  0.00  0.00    -0.270 OA
ENDROOT
BRANCH  20  23
ATOM     23  C   UNL     1      -3.321   1.507  24.839  0.00  0.00    +0.003 A 
ATOM     24  C   UNL     1      -3.873   2.109  24.722  0.00  0.00    +0.040 A 
ATOM     25  C   UNL     1      -4.679   1.948  24.793  0.00  0.00    +0.176 A 
ATOM     26  C   UNL     1      -4.933   1.186  24.981  0.00  0.00    +0.176 A 
ATOM     27  O   UNL     1      -5.758   1.192  25.013  0.00  0.00    -0.435 OA
ATOM     28  C   UNL     1      -6.013   1.958  24.846  0.00  0.00    +0.429 C 
ATOM     29  O   UNL     1      -5.347   2.426  24.710  0.00  0.00    -0.435 OA
ATOM     30  C   UNL     1      -4.380   0.584  25.098  0.00  0.00    +0.040 A 
ATOM     31  C   UNL     1      -3.575   0.745  25.027  0.00  0.00    +0.003 A 
ENDBRANCH  20  23
BRANCH   6   5
ATOM      5  C   UNL     1       2.886   0.730  23.080  0.00  0.00    +0.085 C 
BRANCH   5   2
ATOM      1  C   UNL     1       4.425   0.418  22.576  0.00  0.00    +0.000 C 
ATOM      2  C   UNL     1       3.655   0.574  22.828  0.00  0.00    +0.009 C 
ATOM      3  C   UNL     1       3.785   0.120  23.505  0.00  0.00    +0.000 C 
ATOM      4  C   UNL     1       3.526   1.028  22.152  0.00  0.00    +0.000 C 
ENDBRANCH   5   2
ENDBRANCH   6   5
TORSDOF 3
ENDMDL
MODEL 5
REMARK VINA RESULT:      -8.6      1.400      2.174
REMARK  Name = 
REMARK  3 active torsions:
REMARK  status: ('A' for Active; 'I' for Inactive)
REMARK    1  A    between atoms: C_2  and  C_5
REMARK    2  A    between atoms: C_5  and  C_6
REMARK    3  A    between atoms: C_20  and  C_23
REMARK                            x       y       z     vdW  Elec       q    Type
REMARK                         _______ _______ _______ _____ _____    ______ ____
ROOT
ATOM      6  C   UNL     1      -2.454   2.620  24.754  0.00  0.00    +0.226 C 
ATOM      7  O   UNL     1      -2.520   3.329  25.172  0.00  0.00    -0.275 OA
ATOM      8  N   UNL     1      -1.710   2.338  24.535  0.00  0.00    -0.276 N 
ATOM      9  C   UNL     1      -1.033   2.764  24.732  0.00  0.00    +0.115 C 
ATOM     10  C   UNL     1      -0.289   2.483  24.513  0.00  0.00    +0.116 C 
ATOM     11  N   UNL     1      -0.224   1.773  24.095  0.00  0.00    -0.266 N 
ATOM     12  C   UNL     1      -0.902   1.347  23.898  0.00  0.00    +0.174 C 
ATOM     13  C   UNL     1      -1.645   1.629  24.117  0.00  0.00    +0.123 C 
ATOM     14  C   UNL     1      -0.959   0.634  23.487  0.00  0.00    +0.265 C 
ATOM     15  O   UNL     1      -1.724   0.345  23.377  0.00  0.00    -0.271 OA
ATOM     16  N   UNL     1      -0.353   0.171  23.173  0.00  0.00    -0.178 NA
ATOM     17  C   UNL     1       0.460   0.308  23.192  0.00  0.00    +0.078 A 
ATOM     18  C   UNL     1       0.868   0.939  23.529  0.00  0.00    +0.069 A 
ATOM     19  C   UNL     1       1.692   0.970  23.485  0.00  0.00    +0.006 A 
ATOM     20  C   UNL     1       2.106   0.367  23.103  0.00  0.00    +0.000 A 
ATOM     21  C   UNL     1       1.699  -0.265  22.766  0.00  0.00    +0.001 A 
ATOM     22  C   UNL     1       0.876  -0.295  22.810  0.00  0.00    +0.017 A 
ATOM     32  C   UNL     1       0.564   1.593  23.931  0.00  0.00    +0.251 C 
ATOM     33  O   UNL     1       1.121   2.135  24.205  0.00  0.00    -0.270 OA
ENDROOT
BRANCH  20  23
ATOM     23  C   UNL     1       2.930   0.398  23.059  0.00  0.00    +0.003 A 
ATOM     24  C   UNL     1       3.385  -0.164  23.458  0.00  0.00    +0.040 A 
ATOM     25  C   UNL     1       4.209  -0.134  23.414  0.00  0.00    +0.176 A 
ATOM     26  C   UNL     1       4.577   0.458  22.972  0.00  0.00    +0.176 A 
ATOM     27  O   UNL     1       5.393   0.349  23.030  0.00  0.00    -0.435 OA
ATOM     28  C   UNL     1       5.528  -0.309  23.507  0.00  0.00    +0.429 C 
ATOM     29  O   UNL     1       4.797  -0.608  23.745  0.00  0.00    -0.435 OA
ATOM     30  C   UNL     1       4.122   1.020  22.574  0.00  0.00    +0.040 A 
ATOM     31  C   UNL     1       3.299   0.989  22.618  0.00  0.00    +0.003 A 
ENDBRANCH  20  23
BRANCH   6   5
ATOM      5  C   UNL     1      -3.132   2.194  24.557  0.00  0.00    +0.085 C 
BRANCH   5   2
ATOM      1  C   UNL     1      -4.624   2.810  24.898  0.00  0.00    +0.000 C 
ATOM      2  C   UNL     1      -3.878   2.502  24.727  0.00  0.00    +0.009 C 
ATOM      3  C   UNL     1      -3.900   2.062  25.425  0.00  0.00    +0.000 C 
ATOM      4  C   UNL     1      -3.856   2.941  24.030  0.00  0.00    +0.000 C 
ENDBRANCH   5   2
ENDBRANCH   6   5
TORSDOF 3
ENDMDL
