MODEL 1
REMARK VINA RESULT:      -9.0      0.000      0.000
REMARK  Name = 
REMARK  7 active torsions:
REMARK  status: ('A' for Active; 'I' for Inactive)
REMARK    1  A    between atoms: C_4  and  C_30
REMARK    2  A    between atoms: C_6  and  C_7
REMARK    3  A    between atoms: C_14  and  C_15
REMARK    4  A    between atoms: C_15  and  N_16
REMARK    5  A    between atoms: N_16  and  S_17
REMARK    6  A    between atoms: S_17  and  C_20
REMARK    7  A    between atoms: C_23  and  N_24
REMARK                            x       y       z     vdW  Elec       q    Type
REMARK                         _______ _______ _______ _____ _____    ______ ____
ROOT
ATOM      7  C   UNL     1      -1.917   1.567  23.948  0.00  0.00    +0.056 C 
ATOM      8  C   UNL     1      -1.361   2.079  23.768  0.00  0.00    +0.078 C 
ATOM      9  N   UNL     1      -1.251   1.278  23.930  0.00  0.00    -0.272 NA
ATOM     10  C   UNL     1      -2.195   0.871  24.134  0.00  0.00    +0.072 C 
ATOM     11  C   UNL     1      -2.572   0.361  24.292  0.00  0.00    +0.018 C 
ATOM     12  C   UNL     1      -1.802   0.781  24.106  0.00  0.00    +0.010 C 
ATOM     13  C   UNL     1      -1.078   0.286  24.126  0.00  0.00    +0.018 C 
ATOM     14  C   UNL     1      -0.502   0.756  23.953  0.00  0.00    +0.077 C 
ENDROOT
BRANCH   7   6
ATOM      1  C   UNL     1      -2.860   2.231  22.572  0.00  0.00    +0.153 C 
ATOM      2  N   UNL     1      -3.126   2.153  23.349  0.00  0.00    -0.253 N 
ATOM      3  N   UNL     1      -3.872   2.366  23.630  0.00  0.00    -0.166 NA
ATOM      4  C   UNL     1      -3.900   2.193  24.436  0.00  0.00    +0.136 A 
ATOM      5  C   UNL     1      -3.172   1.872  24.653  0.00  0.00    +0.038 A 
ATOM      6  C   UNL     1      -2.694   1.848  23.981  0.00  0.00    +0.058 A 
BRANCH   4  30
ATOM     30  C   UNL     1      -4.544   2.318  24.937  0.00  0.00    +0.165 A 
ATOM     31  C   UNL     1      -4.686   2.996  25.384  0.00  0.00    +0.042 A 
ATOM     32  C   UNL     1      -5.388   2.883  25.801  0.00  0.00    +0.044 A 
ATOM     33  C   UNL     1      -5.680   2.136  25.612  0.00  0.00    +0.180 A 
ATOM     34  O   UNL     1      -5.159   1.785  25.078  0.00  0.00    -0.449 OA
ENDBRANCH   4  30
ENDBRANCH   7   6
BRANCH  14  15
ATOM     15  C   UNL     1       0.315   0.779  23.848  0.00  0.00    +0.131 C 
BRANCH  15  16
ATOM     16  N   UNL     1       0.651   0.493  23.150  0.00  0.00    -0.076 NA
BRANCH  16  17
ATOM     17  S   UNL     1       1.470   0.433  23.082  0.00  0.00    +0.077 S 
ATOM     18  O   UNL     1       1.560   1.093  23.568  0.00  0.00    -0.152 OA
ATOM     19  O   UNL     1       1.380  -0.227  22.595  0.00  0.00    -0.152 OA
BRANCH  17  20
ATOM     20  C   UNL     1       2.290   0.373  23.013  0.00  0.00    +0.124 A 
ATOM     21  C   UNL     1       2.658  -0.362  23.092  0.00  0.00    +0.021 A 
ATOM     22  C   UNL     1       3.478  -0.422  23.023  0.00  0.00    +0.018 A 
ATOM     23  C   UNL     1       3.931   0.252  22.875  0.00  0.00    +0.073 A 
ATOM     28  C   UNL     1       3.563   0.986  22.796  0.00  0.00    +0.018 A 
ATOM     29  C   UNL     1       2.743   1.047  22.865  0.00  0.00    +0.021 A 
BRANCH  23  24
ATOM     24  N   UNL     1       4.750   0.192  22.805  0.00  0.00    -0.179 NA
ATOM     25  C   UNL     1       5.226   0.249  23.476  0.00  0.00    +0.246 C 
ATOM     26  C   UNL     1       6.046   0.189  23.406  0.00  0.00    +0.097 C 
ATOM     27  O   UNL     1       4.883   0.367  24.217  0.00  0.00    -0.273 OA
ENDBRANCH  23  24
ENDBRANCH  17  20
ENDBRANCH  16  17
ENDBRANCH  15  16
ENDBRANCH  14  15
TORSDOF 7
ENDMDL
MODEL 2
REMARK VINA RESULT:      -7.8      1.524      7.099
REMARK  Name = 
REMARK  7 active torsions:
REMARK  status: ('A' for Active; 'I' for Inactive)
REMARK    1  A    between atoms: C_4  and  C_30
REMARK    2  A    between atoms: C_6  and  C_7
REMARK    3  A    between atoms: C_14  and  C_15
REMARK    4  A    between atoms: C_15  and  N_16
REMARK    5  A    between atoms: N_16  and  S_17
REMARK    6  A    between atoms: S_17  and  C_20
REMARK    7  A    between atoms: C_23  and  N_24
REMARK                            x       y       z     vdW  Elec       q    Type
REMARK                         _______ _______ _______ _____ _____    ______ ____
ROOT
ATOM      7  C   UNL     1       0.656   0.321  23.288  0.00  0.00    +0.056 C 
ATOM      8  C   UNL     1       0.294   0.990  23.122  0.00  0.00    +0.078 C 
ATOM      9  N   UNL     1       0.006   0.387  23.607  0.00  0.00    -0.272 NA
ATOM     10  C   UNL     1       0.731  -0.371  23.622  0.00  0.00    +0.072 C 
ATOM     11  C   UNL     1       0.937  -0.956  23.828  0.00  0.00    +0.018 C 
ATOM     12  C   UNL     1       0.367  -0.266  23.765  0.00  0.00    +0.010 C 
ATOM     13  C   UNL     1      -0.382  -0.342  24.216  0.00  0.00    +0.018 C 
ATOM     14  C   UNL     1      -0.770   0.301  24.079  0.00  0.00    +0.077 C 
ENDROOT
BRANCH   7   6
ATOM      1  C   UNL     1       0.970  -0.314  21.637  0.00  0.00    +0.153 C 
ATOM      2  N   UNL     1       1.542  -0.093  22.189  0.00  0.00    -0.253 N 
ATOM      3  N   UNL     1       2.360  -0.124  22.080  0.00  0.00    -0.166 NA
ATOM      4  C   UNL     1       2.720   0.148  22.770  0.00  0.00    +0.136 A 
ATOM      5  C   UNL     1       2.126   0.347  23.306  0.00  0.00    +0.038 A 
ATOM      6  C   UNL     1       1.398   0.199  22.947  0.00  0.00    +0.058 A 
BRANCH   4  30
ATOM     30  C   UNL     1       3.533   0.209  22.900  0.00  0.00    +0.165 A 
ATOM     31  C   UNL     1       3.989   0.890  22.810  0.00  0.00    +0.042 A 
ATOM     32  C   UNL     1       4.769   0.701  22.998  0.00  0.00    +0.044 A 
ATOM     33  C   UNL     1       4.795  -0.097  23.204  0.00  0.00    +0.180 A 
ATOM     34  O   UNL     1       4.032  -0.402  23.144  0.00  0.00    -0.449 OA
ENDBRANCH   4  30
ENDBRANCH   7   6
BRANCH  14  15
ATOM     15  C   UNL     1      -1.476   0.689  24.255  0.00  0.00    +0.131 C 
BRANCH  15  16
ATOM     16  N   UNL     1      -2.194   0.288  24.193  0.00  0.00    -0.076 NA
BRANCH  16  17
ATOM     17  S   UNL     1      -2.901   0.681  24.357  0.00  0.00    +0.077 S 
ATOM     18  O   UNL     1      -3.150   0.558  23.581  0.00  0.00    -0.152 OA
ATOM     19  O   UNL     1      -2.651   0.804  25.134  0.00  0.00    -0.152 OA
BRANCH  17  20
ATOM     20  C   UNL     1      -3.607   1.074  24.521  0.00  0.00    +0.124 A 
ATOM     21  C   UNL     1      -4.174   0.719  25.003  0.00  0.00    +0.021 A 
ATOM     22  C   UNL     1      -4.881   1.112  25.168  0.00  0.00    +0.018 A 
ATOM     23  C   UNL     1      -5.020   1.861  24.850  0.00  0.00    +0.073 A 
ATOM     28  C   UNL     1      -4.453   2.216  24.368  0.00  0.00    +0.018 A 
ATOM     29  C   UNL     1      -3.747   1.823  24.204  0.00  0.00    +0.021 A 
BRANCH  23  24
ATOM     24  N   UNL     1      -5.726   2.254  25.015  0.00  0.00    -0.179 NA
ATOM     25  C   UNL     1      -5.749   2.834  25.601  0.00  0.00    +0.246 C 
ATOM     26  C   UNL     1      -6.456   3.227  25.764  0.00  0.00    +0.097 C 
ATOM     27  O   UNL     1      -5.065   3.021  26.023  0.00  0.00    -0.273 OA
ENDBRANCH  23  24
ENDBRANCH  17  20
ENDBRANCH  16  17
ENDBRANCH  15  16
ENDBRANCH  14  15
TORSDOF 7
ENDMDL
MODEL 3
REMARK VINA RESULT:      -7.5      1.955      2.668
REMARK  Name = 
REMARK  7 active torsions:
REMARK  status: ('A' for Active; 'I' for Inactive)
REMARK    1  A    between atoms: C_4  and  C_30
REMARK    2  A    between atoms: C_6  and  C_7
REMARK    3  A    between atoms: C_14  and  C_15
REMARK    4  A    between atoms: C_15  and  N_16
REMARK    5  A    between atoms: N_16  and  S_17
REMARK    6  A    between atoms: S_17  and  C_20
REMARK    7  A    between atoms: C_23  and  N_24
REMARK                            x       y       z     vdW  Elec       q    Type
REMARK                         _______ _______ _______ _____ _____    ______ ____
ROOT
ATOM      7  C   UNL     1      -1.075  -0.293  24.482  0.00  0.00    +0.056 C 
ATOM      8  C   UNL     1      -0.392  -0.625  24.650  0.00  0.00    +0.078 C 
ATOM      9  N   UNL     1      -0.501   0.098  24.267  0.00  0.00    -0.272 NA
ATOM     10  C   UNL     1      -1.535   0.257  24.195  0.00  0.00    +0.072 C 
ATOM     11  C   UNL     1      -2.042   0.624  24.006  0.00  0.00    +0.018 C 
ATOM     12  C   UNL     1      -1.175   0.417  24.105  0.00  0.00    +0.010 C 
ATOM     13  C   UNL     1      -0.600   1.000  23.787  0.00  0.00    +0.018 C 
ATOM     14  C   UNL     1       0.090   0.708  23.934  0.00  0.00    +0.077 C 
ENDROOT
BRANCH   7   6
ATOM      1  C   UNL     1      -1.658  -0.530  26.164  0.00  0.00    +0.153 C 
ATOM      2  N   UNL     1      -2.025  -0.808  25.480  0.00  0.00    -0.253 N 
ATOM      3  N   UNL     1      -2.726  -1.243  25.448  0.00  0.00    -0.166 NA
ATOM      4  C   UNL     1      -2.891  -1.404  24.656  0.00  0.00    +0.136 A 
ATOM      5  C   UNL     1      -2.293  -1.067  24.198  0.00  0.00    +0.038 A 
ATOM      6  C   UNL     1      -1.758  -0.699  24.707  0.00  0.00    +0.058 A 
BRANCH   4  30
ATOM     30  C   UNL     1      -3.540  -1.826  24.373  0.00  0.00    +0.165 A 
ATOM     31  C   UNL     1      -3.582  -2.644  24.277  0.00  0.00    +0.042 A 
ATOM     32  C   UNL     1      -4.330  -2.828  23.980  0.00  0.00    +0.044 A 
ATOM     33  C   UNL     1      -4.749  -2.123  23.893  0.00  0.00    +0.180 A 
ATOM     34  O   UNL     1      -4.262  -1.504  24.136  0.00  0.00    -0.449 OA
ENDBRANCH   4  30
ENDBRANCH   7   6
BRANCH  14  15
ATOM     15  C   UNL     1       0.896   0.858  23.844  0.00  0.00    +0.131 C 
BRANCH  15  16
ATOM     16  N   UNL     1       1.251   0.774  23.104  0.00  0.00    -0.076 NA
BRANCH  16  17
ATOM     17  S   UNL     1       2.063   0.639  23.051  0.00  0.00    +0.077 S 
ATOM     18  O   UNL     1       2.201   1.243  23.595  0.00  0.00    -0.152 OA
ATOM     19  O   UNL     1       1.926   0.035  22.506  0.00  0.00    -0.152 OA
BRANCH  17  20
ATOM     20  C   UNL     1       2.875   0.504  22.997  0.00  0.00    +0.124 A 
ATOM     21  C   UNL     1       3.387   1.128  22.828  0.00  0.00    +0.021 A 
ATOM     22  C   UNL     1       4.200   0.992  22.774  0.00  0.00    +0.018 A 
ATOM     23  C   UNL     1       4.500   0.232  22.888  0.00  0.00    +0.073 A 
ATOM     28  C   UNL     1       3.988  -0.392  23.057  0.00  0.00    +0.018 A 
ATOM     29  C   UNL     1       3.175  -0.256  23.111  0.00  0.00    +0.021 A 
BRANCH  23  24
ATOM     24  N   UNL     1       5.311   0.096  22.834  0.00  0.00    -0.179 NA
ATOM     25  C   UNL     1       5.759  -0.007  23.519  0.00  0.00    +0.246 C 
ATOM     26  C   UNL     1       6.571  -0.143  23.463  0.00  0.00    +0.097 C 
ATOM     27  O   UNL     1       5.395   0.026  24.259  0.00  0.00    -0.273 OA
ENDBRANCH  23  24
ENDBRANCH  17  20
ENDBRANCH  16  17
ENDBRANCH  15  16
ENDBRANCH  14  15
TORSDOF 7
ENDMDL
MODEL 4
REMARK VINA RESULT:      -5.7     17.357     18.201
REMARK  Name = 
REMARK  7 active torsions:
REMARK  status: ('A' for Active; 'I' for Inactive)
REMARK    1  A    between atoms: C_4  and  C_30
REMARK    2  A    between atoms: C_6  and  C_7
REMARK    3  A    between atoms: C_14  and  C_15
REMARK    4  A    between atoms: C_15  and  N_16
REMARK    5  A    between atoms: N_16  and  S_17
REMARK    6  A    between atoms: S_17  and  C_20
REMARK    7  A    between atoms: C_23  and  N_24
REMARK                            x       y       z     vdW  Elec       q    Type
REMARK                         _______ _______ _______ _____ _____    ______ ____
ROOT
ATOM      7  C   UNL     1      -7.930  -8.730   9.531  0.00  0.00    +0.056 C 
ATOM      8  C   UNL     1      -7.698  -8.783  10.272  0.00  0.00    +0.078 C 
ATOM      9  N   UNL     1      -7.302  -9.087   9.614  0.00  0.00    -0.272 NA
ATOM     10  C   UNL     1      -7.875  -8.847   8.770  0.00  0.00    +0.072 C 
ATOM     11  C   UNL     1      -7.969  -8.864   8.124  0.00  0.00    +0.018 C 
ATOM     12  C   UNL     1      -7.536  -9.031   8.891  0.00  0.00    +0.010 C 
ATOM     13  C   UNL     1      -6.783  -9.477   8.820  0.00  0.00    +0.018 C 
ATOM     14  C   UNL     1      -6.521  -9.551   9.533  0.00  0.00    +0.077 C 
ENDROOT
BRANCH   7   6
ATOM      1  C   UNL     1      -9.578  -9.337   9.907  0.00  0.00    +0.153 C 
ATOM      2  N   UNL     1      -9.396  -8.612   9.557  0.00  0.00    -0.253 N 
ATOM      3  N   UNL     1      -9.939  -8.038   9.319  0.00  0.00    -0.166 NA
ATOM      4  C   UNL     1      -9.518  -7.405   8.999  0.00  0.00    +0.136 A 
ATOM      5  C   UNL     1      -8.715  -7.587   9.040  0.00  0.00    +0.038 A 
ATOM      6  C   UNL     1      -8.639  -8.333   9.385  0.00  0.00    +0.058 A 
BRANCH   4  30
ATOM     30  C   UNL     1      -9.844  -6.712   8.693  0.00  0.00    +0.165 A 
ATOM     31  C   UNL     1     -10.642  -6.582   8.529  0.00  0.00    +0.042 A 
ATOM     32  C   UNL     1     -10.719  -5.816   8.231  0.00  0.00    +0.044 A 
ATOM     33  C   UNL     1      -9.970  -5.474   8.212  0.00  0.00    +0.180 A 
ATOM     34  O   UNL     1      -9.428  -6.026   8.497  0.00  0.00    -0.449 OA
ENDBRANCH   4  30
ENDBRANCH   7   6
BRANCH  14  15
ATOM     15  C   UNL     1      -5.897  -9.866   9.971  0.00  0.00    +0.131 C 
BRANCH  15  16
ATOM     16  N   UNL     1      -5.138  -9.554   9.892  0.00  0.00    -0.076 NA
BRANCH  16  17
ATOM     17  S   UNL     1      -4.547  -9.766  10.427  0.00  0.00    +0.077 S 
ATOM     18  O   UNL     1      -4.706 -10.563  10.287  0.00  0.00    -0.152 OA
ATOM     19  O   UNL     1      -4.389  -8.969  10.568  0.00  0.00    -0.152 OA
BRANCH  17  20
ATOM     20  C   UNL     1      -3.956  -9.978  10.963  0.00  0.00    +0.124 A 
ATOM     21  C   UNL     1      -4.153 -10.378  11.657  0.00  0.00    +0.021 A 
ATOM     22  C   UNL     1      -3.562 -10.590  12.193  0.00  0.00    +0.018 A 
ATOM     23  C   UNL     1      -2.775 -10.402  12.034  0.00  0.00    +0.073 A 
ATOM     28  C   UNL     1      -2.578 -10.002  11.340  0.00  0.00    +0.018 A 
ATOM     29  C   UNL     1      -3.169  -9.790  10.804  0.00  0.00    +0.021 A 
BRANCH  23  24
ATOM     24  N   UNL     1      -2.184 -10.613  12.569  0.00  0.00    -0.179 NA
ATOM     25  C   UNL     1      -2.326 -10.569  13.381  0.00  0.00    +0.246 C 
ATOM     26  C   UNL     1      -1.735 -10.781  13.915  0.00  0.00    +0.097 C 
ATOM     27  O   UNL     1      -3.060 -10.313  13.657  0.00  0.00    -0.273 OA
ENDBRANCH  23  24
ENDBRANCH  17  20
ENDBRANCH  16  17
ENDBRANCH  15  16
ENDBRANCH  14  15
TORSDOF 7
ENDMDL
MODEL 5
REMARK VINA RESULT:      -5.2     17.212     18.964
REMARK  Name = 
REMARK  7 active torsions:
REMARK  status: ('A' for Active; 'I' for Inactive)
REMARK    1  A    between atoms: C_4  and  C_30
REMARK    2  A    between atoms: C_6  and  C_7
REMARK    3  A    between atoms: C_14  and  C_15
REMARK    4  A    between atoms: C_15  and  N_16
REMARK    5  A    between atoms: N_16  and  S_17
REMARK    6  A    between atoms: S_17  and  C_20
REMARK    7  A    between atoms: C_23  and  N_24
REMARK                            x       y       z     vdW  Elec       q    Type
REMARK                         _______ _______ _______ _____ _____    ______ ____
ROOT
ATOM      7  C   UNL     1      -4.279  -9.270  10.145  0.00  0.00    +0.056 C 
ATOM      8  C   UNL     1      -4.618  -8.579  10.254  0.00  0.00    +0.078 C 
ATOM      9  N   UNL     1      -4.869  -9.169   9.734  0.00  0.00    -0.272 NA
ATOM     10  C   UNL     1      -4.199  -9.969   9.827  0.00  0.00    +0.072 C 
ATOM     11  C   UNL     1      -4.002 -10.568   9.656  0.00  0.00    +0.018 C 
ATOM     12  C   UNL     1      -4.531  -9.844   9.633  0.00  0.00    +0.010 C 
ATOM     13  C   UNL     1      -5.209  -9.880   9.077  0.00  0.00    +0.018 C 
ATOM     14  C   UNL     1      -5.572  -9.213   9.154  0.00  0.00    +0.077 C 
ENDROOT
BRANCH   7   6
ATOM      1  C   UNL     1      -2.588  -8.887   9.678  0.00  0.00    +0.153 C 
ATOM      2  N   UNL     1      -2.826  -9.257  10.376  0.00  0.00    -0.253 N 
ATOM      3  N   UNL     1      -2.329  -9.516  10.982  0.00  0.00    -0.166 NA
ATOM      4  C   UNL     1      -2.799  -9.852  11.571  0.00  0.00    +0.136 A 
ATOM      5  C   UNL     1      -3.586  -9.801  11.329  0.00  0.00    +0.038 A 
ATOM      6  C   UNL     1      -3.602  -9.433  10.591  0.00  0.00    +0.058 A 
BRANCH   4  30
ATOM     30  C   UNL     1      -2.528 -10.182  12.277  0.00  0.00    +0.165 A 
ATOM     31  C   UNL     1      -1.742 -10.228  12.521  0.00  0.00    +0.042 A 
ATOM     32  C   UNL     1      -1.725 -10.598  13.258  0.00  0.00    +0.044 A 
ATOM     33  C   UNL     1      -2.501 -10.780  13.469  0.00  0.00    +0.180 A 
ATOM     34  O   UNL     1      -2.998 -10.523  12.864  0.00  0.00    -0.449 OA
ENDBRANCH   4  30
ENDBRANCH   7   6
BRANCH  14  15
ATOM     15  C   UNL     1      -6.220  -8.785   8.876  0.00  0.00    +0.131 C 
BRANCH  15  16
ATOM     16  N   UNL     1      -6.904  -8.727   9.333  0.00  0.00    -0.076 NA
BRANCH  16  17
ATOM     17  S   UNL     1      -7.511  -8.218   9.103  0.00  0.00    +0.077 S 
ATOM     18  O   UNL     1      -7.136  -8.095   8.379  0.00  0.00    -0.152 OA
ATOM     19  O   UNL     1      -7.886  -8.340   9.828  0.00  0.00    -0.152 OA
BRANCH  17  20
ATOM     20  C   UNL     1      -8.118  -7.708   8.875  0.00  0.00    +0.124 A 
ATOM     21  C   UNL     1      -7.962  -7.088   8.354  0.00  0.00    +0.021 A 
ATOM     22  C   UNL     1      -8.569  -6.578   8.125  0.00  0.00    +0.018 A 
ATOM     23  C   UNL     1      -9.333  -6.688   8.417  0.00  0.00    +0.073 A 
ATOM     28  C   UNL     1      -9.489  -7.308   8.939  0.00  0.00    +0.018 A 
ATOM     29  C   UNL     1      -8.882  -7.818   9.167  0.00  0.00    +0.021 A 
BRANCH  23  24
ATOM     24  N   UNL     1      -9.940  -6.179   8.189  0.00  0.00    -0.179 NA
ATOM     25  C   UNL     1      -9.909  -5.381   8.395  0.00  0.00    +0.246 C 
ATOM     26  C   UNL     1     -10.517  -4.873   8.166  0.00  0.00    +0.097 C 
ATOM     27  O   UNL     1      -9.270  -5.092   8.829  0.00  0.00    -0.273 OA
ENDBRANCH  23  24
ENDBRANCH  17  20
ENDBRANCH  16  17
ENDBRANCH  15  16
ENDBRANCH  14  15
TORSDOF 7
ENDMDL
MODEL 6
REMARK VINA RESULT:      -5.2     14.960     16.880
REMARK  Name = 
REMARK  7 active torsions:
REMARK  status: ('A' for Active; 'I' for Inactive)
REMARK    1  A    between atoms: C_4  and  C_30
REMARK    2  A    between atoms: C_6  and  C_7
REMARK    3  A    between atoms: C_14  and  C_15
REMARK    4  A    between atoms: C_15  and  N_16
REMARK    5  A    between atoms: N_16  and  S_17
REMARK    6  A    between atoms: S_17  and  C_20
REMARK    7  A    between atoms: C_23  and  N_24
REMARK                            x       y       z     vdW  Elec       q    Type
REMARK                         _______ _______ _______ _____ _____    ______ ____
ROOT
ATOM      7  C   UNL     1      -3.739 -10.213  12.875  0.00  0.00    +0.056 C 
ATOM      8  C   UNL     1      -4.463  -9.957  12.748  0.00  0.00    +0.078 C 
ATOM      9  N   UNL     1      -4.183 -10.304  13.443  0.00  0.00    -0.272 NA
ATOM     10  C   UNL     1      -3.173 -10.535  13.288  0.00  0.00    +0.072 C 
ATOM     11  C   UNL     1      -2.607 -10.781  13.503  0.00  0.00    +0.018 C 
ATOM     12  C   UNL     1      -3.472 -10.553  13.559  0.00  0.00    +0.010 C 
ATOM     13  C   UNL     1      -3.870 -10.732  14.321  0.00  0.00    +0.018 C 
ATOM     14  C   UNL     1      -4.590 -10.492  14.238  0.00  0.00    +0.077 C 
ENDROOT
BRANCH   7   6
ATOM      1  C   UNL     1      -3.973 -10.768  11.183  0.00  0.00    +0.153 C 
ATOM      2  N   UNL     1      -3.305 -10.387  11.480  0.00  0.00    -0.253 N 
ATOM      3  N   UNL     1      -2.625 -10.195  11.053  0.00  0.00    -0.166 NA
ATOM      4  C   UNL     1      -2.098  -9.821  11.565  0.00  0.00    +0.136 A 
ATOM      5  C   UNL     1      -2.451  -9.783  12.310  0.00  0.00    +0.038 A 
ATOM      6  C   UNL     1      -3.197 -10.133  12.257  0.00  0.00    +0.058 A 
BRANCH   4  30
ATOM     30  C   UNL     1      -1.350  -9.536  11.368  0.00  0.00    +0.165 A 
ATOM     31  C   UNL     1      -1.121  -8.744  11.352  0.00  0.00    +0.042 A 
ATOM     32  C   UNL     1      -0.328  -8.712  11.125  0.00  0.00    +0.044 A 
ATOM     33  C   UNL     1      -0.068  -9.485  11.002  0.00  0.00    +0.180 A 
ATOM     34  O   UNL     1      -0.699  -9.994  11.151  0.00  0.00    -0.449 OA
ENDBRANCH   4  30
ENDBRANCH   7   6
BRANCH  14  15
ATOM     15  C   UNL     1      -5.311 -10.437  14.634  0.00  0.00    +0.131 C 
BRANCH  15  16
ATOM     16  N   UNL     1      -5.326 -10.359  15.455  0.00  0.00    -0.076 NA
BRANCH  16  17
ATOM     17  S   UNL     1      -6.048 -10.339  15.853  0.00  0.00    +0.077 S 
ATOM     18  O   UNL     1      -5.675 -10.586  16.546  0.00  0.00    -0.152 OA
ATOM     19  O   UNL     1      -6.422 -10.092  15.161  0.00  0.00    -0.152 OA
BRANCH  17  20
ATOM     20  C   UNL     1      -6.771 -10.319  16.251  0.00  0.00    +0.124 A 
ATOM     21  C   UNL     1      -6.792 -10.154  17.059  0.00  0.00    +0.021 A 
ATOM     22  C   UNL     1      -7.515 -10.133  17.457  0.00  0.00    +0.018 A 
ATOM     23  C   UNL     1      -8.216 -10.278  17.047  0.00  0.00    +0.073 A 
ATOM     28  C   UNL     1      -8.195 -10.443  16.239  0.00  0.00    +0.018 A 
ATOM     29  C   UNL     1      -7.472 -10.463  15.841  0.00  0.00    +0.021 A 
BRANCH  23  24
ATOM     24  N   UNL     1      -8.938 -10.258  17.444  0.00  0.00    -0.179 NA
ATOM     25  C   UNL     1      -9.339  -9.542  17.536  0.00  0.00    +0.246 C 
ATOM     26  C   UNL     1     -10.062  -9.523  17.933  0.00  0.00    +0.097 C 
ATOM     27  O   UNL     1      -9.018  -8.847  17.230  0.00  0.00    -0.273 OA
ENDBRANCH  23  24
ENDBRANCH  17  20
ENDBRANCH  16  17
ENDBRANCH  15  16
ENDBRANCH  14  15
TORSDOF 7
ENDMDL
MODEL 7
REMARK VINA RESULT:      -5.0     16.337     18.042
REMARK  Name = 
REMARK  7 active torsions:
REMARK  status: ('A' for Active; 'I' for Inactive)
REMARK    1  A    between atoms: C_4  and  C_30
REMARK    2  A    between atoms: C_6  and  C_7
REMARK    3  A    between atoms: C_14  and  C_15
REMARK    4  A    between atoms: C_15  and  N_16
REMARK    5  A    between atoms: N_16  and  S_17
REMARK    6  A    between atoms: S_17  and  C_20
REMARK    7  A    between atoms: C_23  and  N_24
REMARK                            x       y       z     vdW  Elec       q    Type
REMARK                         _______ _______ _______ _____ _____    ______ ____
ROOT
ATOM      7  C   UNL     1      -3.401 -10.232  12.626  0.00  0.00    +0.056 C 
ATOM      8  C   UNL     1      -3.424  -9.967  11.895  0.00  0.00    +0.078 C 
ATOM      9  N   UNL     1      -4.061 -10.269  12.324  0.00  0.00    -0.272 NA
ATOM     10  C   UNL     1      -3.698 -10.537  13.270  0.00  0.00    +0.072 C 
ATOM     11  C   UNL     1      -3.797 -10.781  13.868  0.00  0.00    +0.018 C 
ATOM     12  C   UNL     1      -4.031 -10.527  13.040  0.00  0.00    +0.010 C 
ATOM     13  C   UNL     1      -4.875 -10.639  12.827  0.00  0.00    +0.018 C 
ATOM     14  C   UNL     1      -4.940 -10.388  12.109  0.00  0.00    +0.077 C 
ENDROOT
BRANCH   7   6
ATOM      1  C   UNL     1      -1.787 -10.235  11.840  0.00  0.00    +0.153 C 
ATOM      2  N   UNL     1      -1.931 -10.212  12.652  0.00  0.00    -0.253 N 
ATOM      3  N   UNL     1      -1.358 -10.186  13.246  0.00  0.00    -0.166 NA
ATOM      4  C   UNL     1      -1.746 -10.169  13.974  0.00  0.00    +0.136 A 
ATOM      5  C   UNL     1      -2.558 -10.184  13.830  0.00  0.00    +0.038 A 
ATOM      6  C   UNL     1      -2.672 -10.211  13.014  0.00  0.00    +0.058 A 
BRANCH   4  30
ATOM     30  C   UNL     1      -1.384 -10.142  14.715  0.00  0.00    +0.165 A 
ATOM     31  C   UNL     1      -1.064  -9.472  15.074  0.00  0.00    +0.042 A 
ATOM     32  C   UNL     1      -0.761  -9.697  15.808  0.00  0.00    +0.044 A 
ATOM     33  C   UNL     1      -0.895 -10.505  15.902  0.00  0.00    +0.180 A 
ATOM     34  O   UNL     1      -1.279 -10.781  15.227  0.00  0.00    -0.449 OA
ENDBRANCH   4  30
ENDBRANCH   7   6
BRANCH  14  15
ATOM     15  C   UNL     1      -5.484 -10.286  11.498  0.00  0.00    +0.131 C 
BRANCH  15  16
ATOM     16  N   UNL     1      -6.022  -9.661  11.525  0.00  0.00    -0.076 NA
BRANCH  16  17
ATOM     17  S   UNL     1      -6.599  -9.588  10.940  0.00  0.00    +0.077 S 
ATOM     18  O   UNL     1      -6.550  -8.767  10.992  0.00  0.00    -0.152 OA
ATOM     19  O   UNL     1      -6.648 -10.410  10.887  0.00  0.00    -0.152 OA
BRANCH  17  20
ATOM     20  C   UNL     1      -7.175  -9.516  10.354  0.00  0.00    +0.124 A 
ATOM     21  C   UNL     1      -7.165  -8.869   9.842  0.00  0.00    +0.021 A 
ATOM     22  C   UNL     1      -7.741  -8.797   9.256  0.00  0.00    +0.018 A 
ATOM     23  C   UNL     1      -8.328  -9.372   9.182  0.00  0.00    +0.073 A 
ATOM     28  C   UNL     1      -8.339 -10.019   9.694  0.00  0.00    +0.018 A 
ATOM     29  C   UNL     1      -7.762 -10.091  10.279  0.00  0.00    +0.021 A 
BRANCH  23  24
ATOM     24  N   UNL     1      -8.905  -9.300   8.597  0.00  0.00    -0.179 NA
ATOM     25  C   UNL     1      -9.671  -9.068   8.797  0.00  0.00    +0.246 C 
ATOM     26  C   UNL     1     -10.246  -8.997   8.211  0.00  0.00    +0.097 C 
ATOM     27  O   UNL     1      -9.860  -8.908   9.584  0.00  0.00    -0.273 OA
ENDBRANCH  23  24
ENDBRANCH  17  20
ENDBRANCH  16  17
ENDBRANCH  15  16
ENDBRANCH  14  15
TORSDOF 7
ENDMDL
