MODEL 1
REMARK VINA RESULT:     -13.4      0.000      0.000
REMARK  Name = 
REMARK  7 active torsions:
REMARK  status: ('A' for Active; 'I' for Inactive)
REMARK    1  A    between atoms: C_2  and  C_3
REMARK    2  A    between atoms: C_2  and  C_24
REMARK    3  A    between atoms: C_10  and  N_11
REMARK    4  A    between atoms: C_12  and  C_14
REMARK    5  A    between atoms: C_14  and  C_15
REMARK    6  A    between atoms: N_26  and  C_27
REMARK    7  A    between atoms: C_27  and  C_28
REMARK                            x       y       z     vdW  Elec       q    Type
REMARK                         _______ _______ _______ _____ _____    ______ ____
ROOT
ATOM      3  C   UNL     1      -4.157   2.887  24.566  0.00  0.00    +0.039 C 
ATOM      4  C   UNL     1      -4.764   2.852  25.122  0.00  0.00    +0.003 C 
ATOM      5  C   UNL     1      -5.107   2.128  25.315  0.00  0.00    +0.000 C 
ATOM      6  C   UNL     1      -4.842   1.436  24.950  0.00  0.00    +0.002 C 
ATOM      7  C   UNL     1      -5.450   1.402  25.507  0.00  0.00    +0.000 C 
ATOM      8  C   UNL     1      -5.185   0.711  25.143  0.00  0.00    +0.002 C 
ATOM      9  C   UNL     1      -4.921   0.020  24.779  0.00  0.00    +0.022 C 
ATOM     10  C   UNL     1      -4.312   0.053  24.221  0.00  0.00    +0.095 C 
ATOM     19  C   UNL     1      -3.970   0.779  24.029  0.00  0.00    +0.022 C 
ATOM     20  C   UNL     1      -3.362   0.812  23.472  0.00  0.00    +0.002 C 
ATOM     21  C   UNL     1      -4.235   1.470  24.394  0.00  0.00    +0.032 C 
ATOM     22  C   UNL     1      -3.892   2.195  24.201  0.00  0.00    +0.152 C 
ATOM     23  O   UNL     1      -3.284   2.229  23.644  0.00  0.00    -0.223 OA
ENDROOT
BRANCH  10  11
ATOM     11  N   UNL     1      -4.048  -0.637  23.857  0.00  0.00    -0.207 NA
ATOM     12  C   UNL     1      -3.839  -1.291  24.315  0.00  0.00    +0.241 C 
ATOM     13  O   UNL     1      -3.895  -1.254  25.138  0.00  0.00    -0.273 OA
BRANCH  12  14
ATOM     14  C   UNL     1      -3.574  -1.983  23.951  0.00  0.00    +0.087 C 
BRANCH  14  15
ATOM     15  C   UNL     1      -3.427  -2.656  24.404  0.00  0.00    +0.009 C 
ATOM     16  C   UNL     1      -3.280  -3.331  24.856  0.00  0.00    +0.000 C 
ATOM     17  C   UNL     1      -2.678  -2.367  24.591  0.00  0.00    +0.000 C 
ATOM     18  C   UNL     1      -4.177  -2.946  24.216  0.00  0.00    +0.000 C 
ENDBRANCH  14  15
ENDBRANCH  12  14
ENDBRANCH  10  11
BRANCH   3   2
ATOM      1  C   UNL     1      -4.025   3.995  23.674  0.00  0.00    +0.010 C 
ATOM      2  C   UNL     1      -3.813   3.612  24.373  0.00  0.00    +0.081 C 
BRANCH   2  24
ATOM     24  C   UNL     1      -3.259   3.954  24.878  0.00  0.00    +0.241 C 
ATOM     25  O   UNL     1      -3.491   4.545  25.406  0.00  0.00    -0.273 OA
ATOM     26  N   UNL     1      -2.473   3.705  24.858  0.00  0.00    -0.201 NA
BRANCH  26  27
ATOM     27  C   UNL     1      -1.918   4.047  25.363  0.00  0.00    +0.141 C 
BRANCH  27  28
ATOM     28  C   UNL     1      -1.226   3.640  25.554  0.00  0.00    -0.000 A 
ATOM     29  C   UNL     1      -0.562   3.706  25.070  0.00  0.00    -0.000 A 
ATOM     30  C   UNL     1       0.130   3.299  25.260  0.00  0.00    +0.029 A 
ATOM     31  C   UNL     1       0.157   2.826  25.936  0.00  0.00    +0.140 A 
ATOM     32  F   UNL     1       0.849   2.418  26.127  0.00  0.00    -0.204 F 
ATOM     33  C   UNL     1      -0.508   2.759  26.420  0.00  0.00    +0.029 A 
ATOM     34  C   UNL     1      -1.199   3.167  26.229  0.00  0.00    -0.000 A 
ENDBRANCH  27  28
ENDBRANCH  26  27
ENDBRANCH   2  24
ENDBRANCH   3   2
TORSDOF 7
ENDMDL
MODEL 2
REMARK VINA RESULT:     -13.2      2.206      3.646
REMARK  Name = 
REMARK  7 active torsions:
REMARK  status: ('A' for Active; 'I' for Inactive)
REMARK    1  A    between atoms: C_2  and  C_3
REMARK    2  A    between atoms: C_2  and  C_24
REMARK    3  A    between atoms: C_10  and  N_11
REMARK    4  A    between atoms: C_12  and  C_14
REMARK    5  A    between atoms: C_14  and  C_15
REMARK    6  A    between atoms: N_26  and  C_27
REMARK    7  A    between atoms: C_27  and  C_28
REMARK                            x       y       z     vdW  Elec       q    Type
REMARK                         _______ _______ _______ _____ _____    ______ ____
ROOT
ATOM      3  C   UNL     1      -0.253   1.931  25.177  0.00  0.00    +0.039 C 
ATOM      4  C   UNL     1       0.147   1.921  24.457  0.00  0.00    +0.003 C 
ATOM      5  C   UNL     1       0.166   1.232  24.005  0.00  0.00    +0.000 C 
ATOM      6  C   UNL     1      -0.217   0.551  24.274  0.00  0.00    +0.002 C 
ATOM      7  C   UNL     1       0.185   0.541  23.552  0.00  0.00    +0.000 C 
ATOM      8  C   UNL     1      -0.198  -0.138  23.821  0.00  0.00    +0.002 C 
ATOM      9  C   UNL     1      -0.580  -0.818  24.090  0.00  0.00    +0.022 C 
ATOM     10  C   UNL     1      -0.982  -0.808  24.812  0.00  0.00    +0.095 C 
ATOM     19  C   UNL     1      -1.000  -0.118  25.263  0.00  0.00    +0.022 C 
ATOM     20  C   UNL     1      -1.401  -0.109  25.984  0.00  0.00    +0.002 C 
ATOM     21  C   UNL     1      -0.617   0.562  24.994  0.00  0.00    +0.032 C 
ATOM     22  C   UNL     1      -0.636   1.251  25.446  0.00  0.00    +0.152 C 
ATOM     23  O   UNL     1      -1.037   1.262  26.167  0.00  0.00    -0.223 OA
ENDROOT
BRANCH  10  11
ATOM     11  N   UNL     1      -1.364  -1.487  25.080  0.00  0.00    -0.207 NA
ATOM     12  C   UNL     1      -2.010  -1.789  24.664  0.00  0.00    +0.241 C 
ATOM     13  O   UNL     1      -2.274  -1.410  23.980  0.00  0.00    -0.273 OA
BRANCH  12  14
ATOM     14  C   UNL     1      -2.393  -2.469  24.933  0.00  0.00    +0.087 C 
BRANCH  14  15
ATOM     15  C   UNL     1      -3.118  -2.690  24.607  0.00  0.00    +0.009 C 
ATOM     16  C   UNL     1      -3.842  -2.912  24.280  0.00  0.00    +0.000 C 
ATOM     17  C   UNL     1      -3.512  -2.263  25.192  0.00  0.00    +0.000 C 
ATOM     18  C   UNL     1      -2.723  -3.117  24.021  0.00  0.00    +0.000 C 
ENDBRANCH  14  15
ENDBRANCH  12  14
ENDBRANCH  10  11
BRANCH   3   2
ATOM      1  C   UNL     1       0.157   2.664  26.333  0.00  0.00    +0.010 C 
ATOM      2  C   UNL     1      -0.272   2.621  25.630  0.00  0.00    +0.081 C 
BRANCH   2  24
ATOM     24  C   UNL     1      -0.719   3.267  25.380  0.00  0.00    +0.241 C 
ATOM     25  O   UNL     1      -0.368   3.862  24.928  0.00  0.00    -0.273 OA
ATOM     26  N   UNL     1      -1.518   3.319  25.581  0.00  0.00    -0.201 NA
BRANCH  26  27
ATOM     27  C   UNL     1      -1.965   3.965  25.331  0.00  0.00    +0.141 C 
BRANCH  27  28
ATOM     28  C   UNL     1      -2.789   3.927  25.343  0.00  0.00    -0.000 A 
ATOM     29  C   UNL     1      -3.195   4.004  26.057  0.00  0.00    -0.000 A 
ATOM     30  C   UNL     1      -4.020   3.965  26.070  0.00  0.00    +0.029 A 
ATOM     31  C   UNL     1      -4.438   3.850  25.368  0.00  0.00    +0.140 A 
ATOM     32  F   UNL     1      -5.261   3.812  25.379  0.00  0.00    -0.204 F 
ATOM     33  C   UNL     1      -4.031   3.773  24.653  0.00  0.00    +0.029 A 
ATOM     34  C   UNL     1      -3.207   3.811  24.642  0.00  0.00    -0.000 A 
ENDBRANCH  27  28
ENDBRANCH  26  27
ENDBRANCH   2  24
ENDBRANCH   3   2
TORSDOF 7
ENDMDL
MODEL 3
REMARK VINA RESULT:     -11.9      2.214      5.254
REMARK  Name = 
REMARK  7 active torsions:
REMARK  status: ('A' for Active; 'I' for Inactive)
REMARK    1  A    between atoms: C_2  and  C_3
REMARK    2  A    between atoms: C_2  and  C_24
REMARK    3  A    between atoms: C_10  and  N_11
REMARK    4  A    between atoms: C_12  and  C_14
REMARK    5  A    between atoms: C_14  and  C_15
REMARK    6  A    between atoms: N_26  and  C_27
REMARK    7  A    between atoms: C_27  and  C_28
REMARK                            x       y       z     vdW  Elec       q    Type
REMARK                         _______ _______ _______ _____ _____    ______ ____
ROOT
ATOM      3  C   UNL     1      -0.507   0.917  24.437  0.00  0.00    +0.039 C 
ATOM      4  C   UNL     1      -0.075   1.203  25.078  0.00  0.00    +0.003 C 
ATOM      5  C   UNL     1      -0.338   1.867  25.490  0.00  0.00    +0.000 C 
ATOM      6  C   UNL     1      -1.036   2.245  25.261  0.00  0.00    +0.002 C 
ATOM      7  C   UNL     1      -0.602   2.531  25.903  0.00  0.00    +0.000 C 
ATOM      8  C   UNL     1      -1.299   2.909  25.674  0.00  0.00    +0.002 C 
ATOM      9  C   UNL     1      -1.996   3.287  25.445  0.00  0.00    +0.022 C 
ATOM     10  C   UNL     1      -2.429   3.001  24.804  0.00  0.00    +0.095 C 
ATOM     19  C   UNL     1      -2.165   2.337  24.392  0.00  0.00    +0.022 C 
ATOM     20  C   UNL     1      -2.599   2.051  23.751  0.00  0.00    +0.002 C 
ATOM     21  C   UNL     1      -1.468   1.959  24.621  0.00  0.00    +0.032 C 
ATOM     22  C   UNL     1      -1.205   1.295  24.208  0.00  0.00    +0.152 C 
ATOM     23  O   UNL     1      -1.638   1.008  23.567  0.00  0.00    -0.223 OA
ENDROOT
BRANCH  10  11
ATOM     11  N   UNL     1      -3.125   3.378  24.575  0.00  0.00    -0.207 NA
ATOM     12  C   UNL     1      -3.766   3.412  25.095  0.00  0.00    +0.241 C 
ATOM     13  O   UNL     1      -3.710   3.068  25.843  0.00  0.00    -0.273 OA
BRANCH  12  14
ATOM     14  C   UNL     1      -4.463   3.790  24.866  0.00  0.00    +0.087 C 
BRANCH  14  15
ATOM     15  C   UNL     1      -5.157   3.671  25.297  0.00  0.00    +0.009 C 
ATOM     16  C   UNL     1      -5.850   3.553  25.728  0.00  0.00    +0.000 C 
ATOM     17  C   UNL     1      -5.296   2.972  24.882  0.00  0.00    +0.000 C 
ATOM     18  C   UNL     1      -5.017   4.371  25.713  0.00  0.00    +0.000 C 
ENDBRANCH  14  15
ENDBRANCH  12  14
ENDBRANCH  10  11
BRANCH   3   2
ATOM      1  C   UNL     1       0.099   0.340  23.279  0.00  0.00    +0.010 C 
ATOM      2  C   UNL     1      -0.244   0.253  24.024  0.00  0.00    +0.081 C 
BRANCH   2  24
ATOM     24  C   UNL     1      -0.323  -0.498  24.356  0.00  0.00    +0.241 C 
ATOM     25  O   UNL     1       0.333  -0.874  24.688  0.00  0.00    -0.273 OA
ATOM     26  N   UNL     1      -1.057  -0.874  24.357  0.00  0.00    -0.201 NA
BRANCH  26  27
ATOM     27  C   UNL     1      -1.137  -1.624  24.688  0.00  0.00    +0.141 C 
BRANCH  27  28
ATOM     28  C   UNL     1      -1.877  -1.989  24.715  0.00  0.00    -0.000 A 
ATOM     29  C   UNL     1      -2.063  -2.584  24.177  0.00  0.00    -0.000 A 
ATOM     30  C   UNL     1      -2.803  -2.949  24.203  0.00  0.00    +0.029 A 
ATOM     31  C   UNL     1      -3.356  -2.716  24.769  0.00  0.00    +0.140 A 
ATOM     32  F   UNL     1      -4.096  -3.080  24.797  0.00  0.00    -0.204 F 
ATOM     33  C   UNL     1      -3.170  -2.120  25.309  0.00  0.00    +0.029 A 
ATOM     34  C   UNL     1      -2.430  -1.757  25.281  0.00  0.00    -0.000 A 
ENDBRANCH  27  28
ENDBRANCH  26  27
ENDBRANCH   2  24
ENDBRANCH   3   2
TORSDOF 7
ENDMDL
MODEL 4
REMARK VINA RESULT:     -11.4      1.412      4.792
REMARK  Name = 
REMARK  7 active torsions:
REMARK  status: ('A' for Active; 'I' for Inactive)
REMARK    1  A    between atoms: C_2  and  C_3
REMARK    2  A    between atoms: C_2  and  C_24
REMARK    3  A    between atoms: C_10  and  N_11
REMARK    4  A    between atoms: C_12  and  C_14
REMARK    5  A    between atoms: C_14  and  C_15
REMARK    6  A    between atoms: N_26  and  C_27
REMARK    7  A    between atoms: C_27  and  C_28
REMARK                            x       y       z     vdW  Elec       q    Type
REMARK                         _______ _______ _______ _____ _____    ______ ____
ROOT
ATOM      3  C   UNL     1      -4.351   0.355  24.513  0.00  0.00    +0.039 C 
ATOM      4  C   UNL     1      -4.952   0.537  25.048  0.00  0.00    +0.003 C 
ATOM      5  C   UNL     1      -5.057   1.314  25.302  0.00  0.00    +0.000 C 
ATOM      6  C   UNL     1      -4.561   1.911  25.020  0.00  0.00    +0.002 C 
ATOM      7  C   UNL     1      -5.163   2.093  25.556  0.00  0.00    +0.000 C 
ATOM      8  C   UNL     1      -4.667   2.689  25.274  0.00  0.00    +0.002 C 
ATOM      9  C   UNL     1      -4.172   3.286  24.993  0.00  0.00    +0.022 C 
ATOM     10  C   UNL     1      -3.570   3.104  24.457  0.00  0.00    +0.095 C 
ATOM     19  C   UNL     1      -3.465   2.326  24.204  0.00  0.00    +0.022 C 
ATOM     20  C   UNL     1      -2.864   2.146  23.669  0.00  0.00    +0.002 C 
ATOM     21  C   UNL     1      -3.961   1.730  24.485  0.00  0.00    +0.032 C 
ATOM     22  C   UNL     1      -3.855   0.953  24.232  0.00  0.00    +0.152 C 
ATOM     23  O   UNL     1      -3.254   0.771  23.696  0.00  0.00    -0.223 OA
ENDROOT
BRANCH  10  11
ATOM     11  N   UNL     1      -3.075   3.700  24.176  0.00  0.00    -0.207 NA
ATOM     12  C   UNL     1      -2.576   4.102  24.697  0.00  0.00    +0.241 C 
ATOM     13  O   UNL     1      -2.573   3.907  25.499  0.00  0.00    -0.273 OA
BRANCH  12  14
ATOM     14  C   UNL     1      -2.080   4.699  24.416  0.00  0.00    +0.087 C 
BRANCH  14  15
ATOM     15  C   UNL     1      -1.424   4.932  24.858  0.00  0.00    +0.009 C 
ATOM     16  C   UNL     1      -0.767   5.164  25.300  0.00  0.00    +0.000 C 
ATOM     17  C   UNL     1      -1.888   5.485  25.256  0.00  0.00    +0.000 C 
ATOM     18  C   UNL     1      -0.959   4.378  24.459  0.00  0.00    +0.000 C 
ENDBRANCH  14  15
ENDBRANCH  12  14
ENDBRANCH  10  11
BRANCH   3   2
ATOM      1  C   UNL     1      -4.495  -0.647  23.506  0.00  0.00    +0.010 C 
ATOM      2  C   UNL     1      -4.245  -0.422  24.259  0.00  0.00    +0.081 C 
BRANCH   2  24
ATOM     24  C   UNL     1      -3.890  -0.975  24.757  0.00  0.00    +0.241 C 
ATOM     25  O   UNL     1      -4.339  -1.359  25.335  0.00  0.00    -0.273 OA
ATOM     26  N   UNL     1      -3.086  -1.145  24.680  0.00  0.00    -0.201 NA
BRANCH  26  27
ATOM     27  C   UNL     1      -2.731  -1.697  25.178  0.00  0.00    +0.141 C 
BRANCH  27  28
ATOM     28  C   UNL     1      -1.909  -1.768  25.198  0.00  0.00    -0.000 A 
ATOM     29  C   UNL     1      -1.464  -1.274  25.685  0.00  0.00    -0.000 A 
ATOM     30  C   UNL     1      -0.642  -1.345  25.705  0.00  0.00    +0.029 A 
ATOM     31  C   UNL     1      -0.266  -1.910  25.236  0.00  0.00    +0.140 A 
ATOM     32  F   UNL     1       0.556  -1.982  25.255  0.00  0.00    -0.204 F 
ATOM     33  C   UNL     1      -0.711  -2.405  24.748  0.00  0.00    +0.029 A 
ATOM     34  C   UNL     1      -1.533  -2.333  24.729  0.00  0.00    -0.000 A 
ENDBRANCH  27  28
ENDBRANCH  26  27
ENDBRANCH   2  24
ENDBRANCH   3   2
TORSDOF 7
ENDMDL
MODEL 5
REMARK VINA RESULT:     -11.3      3.318      5.095
REMARK  Name = 
REMARK  7 active torsions:
REMARK  status: ('A' for Active; 'I' for Inactive)
REMARK    1  A    between atoms: C_2  and  C_3
REMARK    2  A    between atoms: C_2  and  C_24
REMARK    3  A    between atoms: C_10  and  N_11
REMARK    4  A    between atoms: C_12  and  C_14
REMARK    5  A    between atoms: C_14  and  C_15
REMARK    6  A    between atoms: N_26  and  C_27
REMARK    7  A    between atoms: C_27  and  C_28
REMARK                            x       y       z     vdW  Elec       q    Type
REMARK                         _______ _______ _______ _____ _____    ______ ____
ROOT
ATOM      3  C   UNL     1      -0.073   0.788  23.920  0.00  0.00    +0.039 C 
ATOM      4  C   UNL     1       0.357   1.423  24.221  0.00  0.00    +0.003 C 
ATOM      5  C   UNL     1      -0.028   2.121  24.429  0.00  0.00    +0.000 C 
ATOM      6  C   UNL     1      -0.847   2.184  24.336  0.00  0.00    +0.002 C 
ATOM      7  C   UNL     1      -0.415   2.820  24.637  0.00  0.00    +0.000 C 
ATOM      8  C   UNL     1      -1.232   2.884  24.544  0.00  0.00    +0.002 C 
ATOM      9  C   UNL     1      -2.050   2.947  24.451  0.00  0.00    +0.022 C 
ATOM     10  C   UNL     1      -2.481   2.311  24.149  0.00  0.00    +0.095 C 
ATOM     19  C   UNL     1      -2.094   1.612  23.941  0.00  0.00    +0.022 C 
ATOM     20  C   UNL     1      -2.526   0.977  23.640  0.00  0.00    +0.002 C 
ATOM     21  C   UNL     1      -1.277   1.549  24.035  0.00  0.00    +0.032 C 
ATOM     22  C   UNL     1      -0.891   0.851  23.827  0.00  0.00    +0.152 C 
ATOM     23  O   UNL     1      -1.322   0.215  23.525  0.00  0.00    -0.223 OA
ENDROOT
BRANCH  10  11
ATOM     11  N   UNL     1      -3.297   2.374  24.056  0.00  0.00    -0.207 NA
ATOM     12  C   UNL     1      -3.764   2.647  24.680  0.00  0.00    +0.241 C 
ATOM     13  O   UNL     1      -3.413   2.856  25.397  0.00  0.00    -0.273 OA
BRANCH  12  14
ATOM     14  C   UNL     1      -4.582   2.710  24.587  0.00  0.00    +0.087 C 
BRANCH  14  15
ATOM     15  C   UNL     1      -5.067   2.793  25.249  0.00  0.00    +0.009 C 
ATOM     16  C   UNL     1      -5.552   2.876  25.911  0.00  0.00    +0.000 C 
ATOM     17  C   UNL     1      -4.911   3.603  25.261  0.00  0.00    +0.000 C 
ATOM     18  C   UNL     1      -5.222   1.983  25.237  0.00  0.00    +0.000 C 
ENDBRANCH  14  15
ENDBRANCH  12  14
ENDBRANCH  10  11
BRANCH   3   2
ATOM      1  C   UNL     1       0.154  -0.608  24.125  0.00  0.00    +0.010 C 
ATOM      2  C   UNL     1       0.313   0.089  23.712  0.00  0.00    +0.081 C 
BRANCH   2  24
ATOM     24  C   UNL     1       0.856   0.086  23.092  0.00  0.00    +0.241 C 
ATOM     25  O   UNL     1       0.590   0.054  22.310  0.00  0.00    -0.273 OA
ATOM     26  N   UNL     1       1.665   0.114  23.251  0.00  0.00    -0.201 NA
BRANCH  26  27
ATOM     27  C   UNL     1       2.208   0.111  22.631  0.00  0.00    +0.141 C 
BRANCH  27  28
ATOM     28  C   UNL     1       3.013   0.208  22.785  0.00  0.00    -0.000 A 
ATOM     29  C   UNL     1       3.381   0.926  22.618  0.00  0.00    -0.000 A 
ATOM     30  C   UNL     1       4.186   1.024  22.773  0.00  0.00    +0.029 A 
ATOM     31  C   UNL     1       4.622   0.402  23.095  0.00  0.00    +0.140 A 
ATOM     32  F   UNL     1       5.426   0.498  23.250  0.00  0.00    -0.204 F 
ATOM     33  C   UNL     1       4.253  -0.318  23.263  0.00  0.00    +0.029 A 
ATOM     34  C   UNL     1       3.448  -0.414  23.107  0.00  0.00    -0.000 A 
ENDBRANCH  27  28
ENDBRANCH  26  27
ENDBRANCH   2  24
ENDBRANCH   3   2
TORSDOF 7
ENDMDL
MODEL 6
REMARK VINA RESULT:     -11.1      2.418      6.083
REMARK  Name = 
REMARK  7 active torsions:
REMARK  status: ('A' for Active; 'I' for Inactive)
REMARK    1  A    between atoms: C_2  and  C_3
REMARK    2  A    between atoms: C_2  and  C_24
REMARK    3  A    between atoms: C_10  and  N_11
REMARK    4  A    between atoms: C_12  and  C_14
REMARK    5  A    between atoms: C_14  and  C_15
REMARK    6  A    between atoms: N_26  and  C_27
REMARK    7  A    between atoms: C_27  and  C_28
REMARK                            x       y       z     vdW  Elec       q    Type
REMARK                         _______ _______ _______ _____ _____    ______ ____
ROOT
ATOM      3  C   UNL     1      -0.436  -0.739  24.747  0.00  0.00    +0.039 C 
ATOM      4  C   UNL     1      -0.128  -0.712  23.982  0.00  0.00    +0.003 C 
ATOM      5  C   UNL     1       0.079   0.012  23.647  0.00  0.00    +0.000 C 
ATOM      6  C   UNL     1      -0.021   0.710  24.076  0.00  0.00    +0.002 C 
ATOM      7  C   UNL     1       0.287   0.737  23.311  0.00  0.00    +0.000 C 
ATOM      8  C   UNL     1       0.187   1.434  23.740  0.00  0.00    +0.002 C 
ATOM      9  C   UNL     1       0.087   2.132  24.169  0.00  0.00    +0.022 C 
ATOM     10  C   UNL     1      -0.221   2.105  24.935  0.00  0.00    +0.095 C 
ATOM     19  C   UNL     1      -0.428   1.380  25.270  0.00  0.00    +0.022 C 
ATOM     20  C   UNL     1      -0.736   1.354  26.035  0.00  0.00    +0.002 C 
ATOM     21  C   UNL     1      -0.328   0.683  24.841  0.00  0.00    +0.032 C 
ATOM     22  C   UNL     1      -0.536  -0.041  25.176  0.00  0.00    +0.152 C 
ATOM     23  O   UNL     1      -0.844  -0.068  25.941  0.00  0.00    -0.223 OA
ENDROOT
BRANCH  10  11
ATOM     11  N   UNL     1      -0.321   2.802  25.363  0.00  0.00    -0.207 NA
ATOM     12  C   UNL     1      -0.746   3.430  25.037  0.00  0.00    +0.241 C 
ATOM     13  O   UNL     1      -1.070   3.360  24.281  0.00  0.00    -0.273 OA
BRANCH  12  14
ATOM     14  C   UNL     1      -0.846   4.128  25.466  0.00  0.00    +0.087 C 
BRANCH  14  15
ATOM     15  C   UNL     1      -1.271   4.755  25.139  0.00  0.00    +0.009 C 
ATOM     16  C   UNL     1      -1.697   5.381  24.813  0.00  0.00    +0.000 C 
ATOM     17  C   UNL     1      -0.583   5.036  24.782  0.00  0.00    +0.000 C 
ATOM     18  C   UNL     1      -1.960   4.473  25.497  0.00  0.00    +0.000 C 
ENDBRANCH  14  15
ENDBRANCH  12  14
ENDBRANCH  10  11
BRANCH   3   2
ATOM      1  C   UNL     1      -0.228  -1.748  25.736  0.00  0.00    +0.010 C 
ATOM      2  C   UNL     1      -0.644  -1.463  25.083  0.00  0.00    +0.081 C 
BRANCH   2  24
ATOM     24  C   UNL     1      -1.266  -1.902  24.767  0.00  0.00    +0.241 C 
ATOM     25  O   UNL     1      -1.111  -2.513  24.233  0.00  0.00    -0.273 OA
ATOM     26  N   UNL     1      -2.044  -1.731  24.984  0.00  0.00    -0.201 NA
BRANCH  26  27
ATOM     27  C   UNL     1      -2.666  -2.170  24.668  0.00  0.00    +0.141 C 
BRANCH  27  28
ATOM     28  C   UNL     1      -3.391  -1.806  24.512  0.00  0.00    -0.000 A 
ATOM     29  C   UNL     1      -3.646  -1.177  24.980  0.00  0.00    -0.000 A 
ATOM     30  C   UNL     1      -4.370  -0.814  24.824  0.00  0.00    +0.029 A 
ATOM     31  C   UNL     1      -4.839  -1.081  24.200  0.00  0.00    +0.140 A 
ATOM     32  F   UNL     1      -5.564  -0.719  24.044  0.00  0.00    -0.204 F 
ATOM     33  C   UNL     1      -4.584  -1.711  23.732  0.00  0.00    +0.029 A 
ATOM     34  C   UNL     1      -3.860  -2.073  23.888  0.00  0.00    -0.000 A 
ENDBRANCH  27  28
ENDBRANCH  26  27
ENDBRANCH   2  24
ENDBRANCH   3   2
TORSDOF 7
ENDMDL
MODEL 7
REMARK VINA RESULT:     -11.0      2.160      3.791
REMARK  Name = 
REMARK  7 active torsions:
REMARK  status: ('A' for Active; 'I' for Inactive)
REMARK    1  A    between atoms: C_2  and  C_3
REMARK    2  A    between atoms: C_2  and  C_24
REMARK    3  A    between atoms: C_10  and  N_11
REMARK    4  A    between atoms: C_12  and  C_14
REMARK    5  A    between atoms: C_14  and  C_15
REMARK    6  A    between atoms: N_26  and  C_27
REMARK    7  A    between atoms: C_27  and  C_28
REMARK                            x       y       z     vdW  Elec       q    Type
REMARK                         _______ _______ _______ _____ _____    ______ ____
ROOT
ATOM      3  C   UNL     1      -1.844   3.493  25.249  0.00  0.00    +0.039 C 
ATOM      4  C   UNL     1      -1.373   3.610  25.915  0.00  0.00    +0.003 C 
ATOM      5  C   UNL     1      -0.838   3.028  26.149  0.00  0.00    +0.000 C 
ATOM      6  C   UNL     1      -0.774   2.328  25.716  0.00  0.00    +0.002 C 
ATOM      7  C   UNL     1      -0.302   2.445  26.383  0.00  0.00    +0.000 C 
ATOM      8  C   UNL     1      -0.239   1.745  25.950  0.00  0.00    +0.002 C 
ATOM      9  C   UNL     1      -0.175   1.046  25.517  0.00  0.00    +0.022 C 
ATOM     10  C   UNL     1      -0.647   0.929  24.850  0.00  0.00    +0.095 C 
ATOM     19  C   UNL     1      -1.182   1.512  24.616  0.00  0.00    +0.022 C 
ATOM     20  C   UNL     1      -1.653   1.394  23.950  0.00  0.00    +0.002 C 
ATOM     21  C   UNL     1      -1.246   2.211  25.049  0.00  0.00    +0.032 C 
ATOM     22  C   UNL     1      -1.780   2.793  24.816  0.00  0.00    +0.152 C 
ATOM     23  O   UNL     1      -2.252   2.677  24.149  0.00  0.00    -0.223 OA
ENDROOT
BRANCH  10  11
ATOM     11  N   UNL     1      -0.584   0.230  24.417  0.00  0.00    -0.207 NA
ATOM     12  C   UNL     1      -0.736  -0.496  24.781  0.00  0.00    +0.241 C 
ATOM     13  O   UNL     1      -0.952  -0.521  25.577  0.00  0.00    -0.273 OA
BRANCH  12  14
ATOM     14  C   UNL     1      -0.672  -1.195  24.348  0.00  0.00    +0.087 C 
BRANCH  14  15
ATOM     15  C   UNL     1      -0.994  -1.894  24.645  0.00  0.00    +0.009 C 
ATOM     16  C   UNL     1      -1.314  -2.594  24.944  0.00  0.00    +0.000 C 
ATOM     17  C   UNL     1      -1.665  -1.784  24.180  0.00  0.00    +0.000 C 
ATOM     18  C   UNL     1      -0.321  -2.004  25.111  0.00  0.00    +0.000 C 
ENDBRANCH  14  15
ENDBRANCH  12  14
ENDBRANCH  10  11
BRANCH   3   2
ATOM      1  C   UNL     1      -2.190   4.584  24.393  0.00  0.00    +0.010 C 
ATOM      2  C   UNL     1      -2.380   4.076  25.015  0.00  0.00    +0.081 C 
BRANCH   2  24
ATOM     24  C   UNL     1      -3.104   4.150  25.401  0.00  0.00    +0.241 C 
ATOM     25  O   UNL     1      -3.176   4.657  26.049  0.00  0.00    -0.273 OA
ATOM     26  N   UNL     1      -3.758   3.719  25.140  0.00  0.00    -0.201 NA
BRANCH  26  27
ATOM     27  C   UNL     1      -4.482   3.794  25.527  0.00  0.00    +0.141 C 
BRANCH  27  28
ATOM     28  C   UNL     1      -5.046   3.194  25.467  0.00  0.00    -0.000 A 
ATOM     29  C   UNL     1      -5.269   2.909  24.726  0.00  0.00    -0.000 A 
ATOM     30  C   UNL     1      -5.832   2.310  24.666  0.00  0.00    +0.029 A 
ATOM     31  C   UNL     1      -6.174   1.995  25.348  0.00  0.00    +0.140 A 
ATOM     32  F   UNL     1      -6.738   1.396  25.290  0.00  0.00    -0.204 F 
ATOM     33  C   UNL     1      -5.951   2.281  26.091  0.00  0.00    +0.029 A 
ATOM     34  C   UNL     1      -5.387   2.880  26.149  0.00  0.00    -0.000 A 
ENDBRANCH  27  28
ENDBRANCH  26  27
ENDBRANCH   2  24
ENDBRANCH   3   2
TORSDOF 7
ENDMDL
MODEL 8
REMARK VINA RESULT:     -10.9      3.350      5.485
REMARK  Name = 
REMARK  7 active torsions:
REMARK  status: ('A' for Active; 'I' for Inactive)
REMARK    1  A    between atoms: C_2  and  C_3
REMARK    2  A    between atoms: C_2  and  C_24
REMARK    3  A    between atoms: C_10  and  N_11
REMARK    4  A    between atoms: C_12  and  C_14
REMARK    5  A    between atoms: C_14  and  C_15
REMARK    6  A    between atoms: N_26  and  C_27
REMARK    7  A    between atoms: C_27  and  C_28
REMARK                            x       y       z     vdW  Elec       q    Type
REMARK                         _______ _______ _______ _____ _____    ______ ____
ROOT
ATOM      3  C   UNL     1      -1.547   0.477  24.844  0.00  0.00    +0.039 C 
ATOM      4  C   UNL     1      -1.460   1.253  25.110  0.00  0.00    +0.003 C 
ATOM      5  C   UNL     1      -0.789   1.686  24.907  0.00  0.00    +0.000 C 
ATOM      6  C   UNL     1      -0.202   1.343  24.438  0.00  0.00    +0.002 C 
ATOM      7  C   UNL     1      -0.116   2.120  24.704  0.00  0.00    +0.000 C 
ATOM      8  C   UNL     1       0.470   1.777  24.235  0.00  0.00    +0.002 C 
ATOM      9  C   UNL     1       1.056   1.434  23.766  0.00  0.00    +0.022 C 
ATOM     10  C   UNL     1       0.970   0.658  23.500  0.00  0.00    +0.095 C 
ATOM     19  C   UNL     1       0.297   0.225  23.703  0.00  0.00    +0.022 C 
ATOM     20  C   UNL     1       0.212  -0.551  23.436  0.00  0.00    +0.002 C 
ATOM     21  C   UNL     1      -0.288   0.568  24.172  0.00  0.00    +0.032 C 
ATOM     22  C   UNL     1      -0.960   0.134  24.374  0.00  0.00    +0.152 C 
ATOM     23  O   UNL     1      -1.047  -0.642  24.108  0.00  0.00    -0.223 OA
ENDROOT
BRANCH  10  11
ATOM     11  N   UNL     1       1.555   0.315  23.031  0.00  0.00    -0.207 NA
ATOM     12  C   UNL     1       2.327   0.607  23.056  0.00  0.00    +0.241 C 
ATOM     13  O   UNL     1       2.512   1.242  23.550  0.00  0.00    -0.273 OA
BRANCH  12  14
ATOM     14  C   UNL     1       2.913   0.264  22.587  0.00  0.00    +0.087 C 
BRANCH  14  15
ATOM     15  C   UNL     1       3.708   0.361  22.785  0.00  0.00    +0.009 C 
ATOM     16  C   UNL     1       4.503   0.456  22.984  0.00  0.00    +0.000 C 
ATOM     17  C   UNL     1       3.714   1.093  22.407  0.00  0.00    +0.000 C 
ATOM     18  C   UNL     1       3.702  -0.373  23.164  0.00  0.00    +0.000 C 
ENDBRANCH  14  15
ENDBRANCH  12  14
ENDBRANCH  10  11
BRANCH   3   2
ATOM      1  C   UNL     1      -2.170  -0.548  25.619  0.00  0.00    +0.010 C 
ATOM      2  C   UNL     1      -2.219   0.043  25.046  0.00  0.00    +0.081 C 
BRANCH   2  24
ATOM     24  C   UNL     1      -2.938   0.200  24.676  0.00  0.00    +0.241 C 
ATOM     25  O   UNL     1      -3.153  -0.218  23.997  0.00  0.00    -0.273 OA
ATOM     26  N   UNL     1      -3.445   0.775  24.984  0.00  0.00    -0.201 NA
BRANCH  26  27
ATOM     27  C   UNL     1      -4.165   0.932  24.614  0.00  0.00    +0.141 C 
BRANCH  27  28
ATOM     28  C   UNL     1      -4.632   1.561  24.871  0.00  0.00    -0.000 A 
ATOM     29  C   UNL     1      -5.238   1.431  25.414  0.00  0.00    -0.000 A 
ATOM     30  C   UNL     1      -5.706   2.060  25.671  0.00  0.00    +0.029 A 
ATOM     31  C   UNL     1      -5.567   2.821  25.382  0.00  0.00    +0.140 A 
ATOM     32  F   UNL     1      -6.034   3.451  25.638  0.00  0.00    -0.204 F 
ATOM     33  C   UNL     1      -4.961   2.952  24.838  0.00  0.00    +0.029 A 
ATOM     34  C   UNL     1      -4.494   2.322  24.582  0.00  0.00    -0.000 A 
ENDBRANCH  27  28
ENDBRANCH  26  27
ENDBRANCH   2  24
ENDBRANCH   3   2
TORSDOF 7
ENDMDL
MODEL 9
REMARK VINA RESULT:     -10.8      2.149      4.301
REMARK  Name = 
REMARK  7 active torsions:
REMARK  status: ('A' for Active; 'I' for Inactive)
REMARK    1  A    between atoms: C_2  and  C_3
REMARK    2  A    between atoms: C_2  and  C_24
REMARK    3  A    between atoms: C_10  and  N_11
REMARK    4  A    between atoms: C_12  and  C_14
REMARK    5  A    between atoms: C_14  and  C_15
REMARK    6  A    between atoms: N_26  and  C_27
REMARK    7  A    between atoms: C_27  and  C_28
REMARK                            x       y       z     vdW  Elec       q    Type
REMARK                         _______ _______ _______ _____ _____    ______ ____
ROOT
ATOM      3  C   UNL     1      -0.950   2.900  24.586  0.00  0.00    +0.039 C 
ATOM      4  C   UNL     1      -0.740   3.405  25.203  0.00  0.00    +0.003 C 
ATOM      5  C   UNL     1      -1.325   3.794  25.634  0.00  0.00    +0.000 C 
ATOM      6  C   UNL     1      -2.121   3.678  25.448  0.00  0.00    +0.002 C 
ATOM      7  C   UNL     1      -1.911   4.183  26.066  0.00  0.00    +0.000 C 
ATOM      8  C   UNL     1      -2.707   4.068  25.881  0.00  0.00    +0.002 C 
ATOM      9  C   UNL     1      -3.502   3.952  25.695  0.00  0.00    +0.022 C 
ATOM     10  C   UNL     1      -3.712   3.446  25.077  0.00  0.00    +0.095 C 
ATOM     19  C   UNL     1      -3.127   3.057  24.645  0.00  0.00    +0.022 C 
ATOM     20  C   UNL     1      -3.337   2.553  24.028  0.00  0.00    +0.002 C 
ATOM     21  C   UNL     1      -2.331   3.173  24.831  0.00  0.00    +0.032 C 
ATOM     22  C   UNL     1      -1.746   2.784  24.400  0.00  0.00    +0.152 C 
ATOM     23  O   UNL     1      -1.956   2.279  23.782  0.00  0.00    -0.223 OA
ENDROOT
BRANCH  10  11
ATOM     11  N   UNL     1      -4.507   3.331  24.891  0.00  0.00    -0.207 NA
ATOM     12  C   UNL     1      -5.020   3.012  25.454  0.00  0.00    +0.241 C 
ATOM     13  O   UNL     1      -4.737   2.810  26.203  0.00  0.00    -0.273 OA
BRANCH  12  14
ATOM     14  C   UNL     1      -5.816   2.896  25.268  0.00  0.00    +0.087 C 
BRANCH  14  15
ATOM     15  C   UNL     1      -6.213   2.231  25.553  0.00  0.00    +0.009 C 
ATOM     16  C   UNL     1      -6.610   1.567  25.839  0.00  0.00    +0.000 C 
ATOM     17  C   UNL     1      -6.185   1.892  24.802  0.00  0.00    +0.000 C 
ATOM     18  C   UNL     1      -6.240   2.571  26.305  0.00  0.00    +0.000 C 
ENDBRANCH  14  15
ENDBRANCH  12  14
ENDBRANCH  10  11
BRANCH   3   2
ATOM      1  C   UNL     1      -0.155   2.785  23.404  0.00  0.00    +0.010 C 
ATOM      2  C   UNL     1      -0.365   2.511  24.153  0.00  0.00    +0.081 C 
BRANCH   2  24
ATOM     24  C   UNL     1       0.010   1.848  24.469  0.00  0.00    +0.241 C 
ATOM     25  O   UNL     1       0.719   1.933  24.884  0.00  0.00    -0.273 OA
ATOM     26  N   UNL     1      -0.323   1.099  24.372  0.00  0.00    -0.201 NA
BRANCH  26  27
ATOM     27  C   UNL     1       0.051   0.436  24.688  0.00  0.00    +0.141 C 
BRANCH  27  28
ATOM     28  C   UNL     1      -0.354  -0.280  24.744  0.00  0.00    -0.000 A 
ATOM     29  C   UNL     1      -0.775  -0.465  25.428  0.00  0.00    -0.000 A 
ATOM     30  C   UNL     1      -1.180  -1.182  25.483  0.00  0.00    +0.029 A 
ATOM     31  C   UNL     1      -1.164  -1.714  24.852  0.00  0.00    +0.140 A 
ATOM     32  F   UNL     1      -1.568  -2.431  24.906  0.00  0.00    -0.204 F 
ATOM     33  C   UNL     1      -0.742  -1.529  24.167  0.00  0.00    +0.029 A 
ATOM     34  C   UNL     1      -0.338  -0.812  24.113  0.00  0.00    -0.000 A 
ENDBRANCH  27  28
ENDBRANCH  26  27
ENDBRANCH   2  24
ENDBRANCH   3   2
TORSDOF 7
ENDMDL
