MODEL 1
REMARK VINA RESULT:     -11.0      0.000      0.000
REMARK  Name = 
REMARK  9 active torsions:
REMARK  status: ('A' for Active; 'I' for Inactive)
REMARK    1  A    between atoms: C_4  and  C_26
REMARK    2  A    between atoms: C_6  and  C_8
REMARK    3  A    between atoms: C_15  and  C_16
REMARK    4  A    between atoms: C_16  and  N_17
REMARK    5  A    between atoms: C_18  and  C_20
REMARK    6  A    between atoms: C_20  and  C_21
REMARK    7  A    between atoms: C_21  and  C_22
REMARK    8  A    between atoms: C_22  and  C_23
REMARK    9  A    between atoms: C_29  and  C_32
REMARK                            x       y       z     vdW  Elec       q    Type
REMARK                         _______ _______ _______ _____ _____    ______ ____
ROOT
ATOM      8  C   UNL     1      -0.714   2.491  24.342  0.00  0.00    +0.056 C 
ATOM      9  C   UNL     1      -0.665   2.318  23.585  0.00  0.00    +0.078 C 
ATOM     10  N   UNL     1      -0.171   2.034  24.183  0.00  0.00    -0.272 NA
ATOM     11  C   UNL     1      -0.503   2.456  25.084  0.00  0.00    +0.072 C 
ATOM     12  C   UNL     1      -0.448   2.528  25.731  0.00  0.00    +0.018 C 
ATOM     13  C   UNL     1      -0.226   2.209  24.923  0.00  0.00    +0.010 C 
ATOM     14  C   UNL     1       0.461   1.663  24.900  0.00  0.00    +0.018 C 
ATOM     15  C   UNL     1       0.544   1.468  24.166  0.00  0.00    +0.079 C 
ENDROOT
BRANCH   8   6
ATOM      1  C   UNL     1      -1.562   5.089  25.180  0.00  0.00    +0.074 C 
ATOM      2  C   UNL     1      -1.739   4.305  24.992  0.00  0.00    +0.139 A 
ATOM      3  N   UNL     1      -2.518   4.038  25.036  0.00  0.00    -0.231 NA
ATOM      4  C   UNL     1      -2.696   3.254  24.848  0.00  0.00    +0.084 A 
ATOM      5  C   UNL     1      -2.095   2.739  24.617  0.00  0.00    +0.034 A 
ATOM      6  C   UNL     1      -1.316   3.007  24.574  0.00  0.00    +0.063 A 
ATOM      7  N   UNL     1      -1.138   3.790  24.761  0.00  0.00    -0.235 NA
BRANCH   4  26
ATOM     26  C   UNL     1      -3.475   2.985  24.892  0.00  0.00    +0.018 A 
ATOM     27  C   UNL     1      -3.884   3.021  25.607  0.00  0.00    +0.001 A 
ATOM     28  C   UNL     1      -4.664   2.753  25.651  0.00  0.00    +0.004 A 
ATOM     29  C   UNL     1      -5.033   2.449  24.979  0.00  0.00    +0.071 A 
ATOM     30  C   UNL     1      -4.624   2.412  24.264  0.00  0.00    +0.004 A 
ATOM     31  C   UNL     1      -3.845   2.681  24.220  0.00  0.00    +0.001 A 
BRANCH  29  32
ATOM     32  C   UNL     1      -5.812   2.180  25.024  0.00  0.00    +0.419 C 
ATOM     33  F   UNL     1      -6.590   1.911  25.068  0.00  0.00    -0.166 F 
ATOM     34  F   UNL     1      -5.559   1.419  24.831  0.00  0.00    -0.166 F 
ATOM     35  F   UNL     1      -6.064   2.941  25.216  0.00  0.00    -0.166 F 
ENDBRANCH  29  32
ENDBRANCH   4  26
ENDBRANCH   8   6
BRANCH  15  16
ATOM     16  C   UNL     1       1.007   1.012  23.659  0.00  0.00    +0.131 C 
BRANCH  16  17
ATOM     17  N   UNL     1       1.788   1.229  23.505  0.00  0.00    -0.204 NA
ATOM     18  C   UNL     1       2.258   0.759  23.017  0.00  0.00    +0.241 C 
ATOM     19  O   UNL     1       1.947   0.072  22.682  0.00  0.00    -0.273 OA
BRANCH  18  20
ATOM     20  C   UNL     1       3.039   0.976  22.864  0.00  0.00    +0.087 C 
BRANCH  20  21
ATOM     21  C   UNL     1       3.659   0.497  23.123  0.00  0.00    +0.021 C 
BRANCH  21  22
ATOM     22  C   UNL     1       4.440   0.729  22.997  0.00  0.00    +0.115 C 
BRANCH  22  23
ATOM     23  C   UNL     1       5.051   0.366  23.414  0.00  0.00    +0.365 C 
ATOM     24  O   UNL     1       5.414  -0.310  23.110  0.00  0.00    -0.246 OA
ATOM     25  O   UNL     1       5.300   0.678  24.136  0.00  0.00    -0.246 OA
ENDBRANCH  22  23
ENDBRANCH  21  22
ENDBRANCH  20  21
ENDBRANCH  18  20
ENDBRANCH  16  17
ENDBRANCH  15  16
TORSDOF 9
ENDMDL
MODEL 2
REMARK VINA RESULT:     -10.7      3.637      4.815
REMARK  Name = 
REMARK  9 active torsions:
REMARK  status: ('A' for Active; 'I' for Inactive)
REMARK    1  A    between atoms: C_4  and  C_26
REMARK    2  A    between atoms: C_6  and  C_8
REMARK    3  A    between atoms: C_15  and  C_16
REMARK    4  A    between atoms: C_16  and  N_17
REMARK    5  A    between atoms: C_18  and  C_20
REMARK    6  A    between atoms: C_20  and  C_21
REMARK    7  A    between atoms: C_21  and  C_22
REMARK    8  A    between atoms: C_22  and  C_23
REMARK    9  A    between atoms: C_29  and  C_32
REMARK                            x       y       z     vdW  Elec       q    Type
REMARK                         _______ _______ _______ _____ _____    ______ ____
ROOT
ATOM      8  C   UNL     1      -4.234   1.102  25.055  0.00  0.00    +0.056 C 
ATOM      9  C   UNL     1      -3.985   0.646  25.634  0.00  0.00    +0.078 C 
ATOM     10  N   UNL     1      -4.192   0.400  24.873  0.00  0.00    -0.272 NA
ATOM     11  C   UNL     1      -4.483   1.254  24.340  0.00  0.00    +0.072 C 
ATOM     12  C   UNL     1      -4.697   1.535  23.790  0.00  0.00    +0.018 C 
ATOM     13  C   UNL     1      -4.435   0.854  24.311  0.00  0.00    +0.010 C 
ATOM     14  C   UNL     1      -4.440   0.059  23.938  0.00  0.00    +0.018 C 
ATOM     15  C   UNL     1      -4.199  -0.423  24.479  0.00  0.00    +0.079 C 
ENDROOT
BRANCH   8   6
ATOM      1  C   UNL     1      -5.821   3.358  25.805  0.00  0.00    +0.074 C 
ATOM      2  C   UNL     1      -5.093   3.037  25.587  0.00  0.00    +0.139 A 
ATOM      3  N   UNL     1      -4.430   3.525  25.527  0.00  0.00    -0.231 NA
ATOM      4  C   UNL     1      -3.702   3.205  25.309  0.00  0.00    +0.084 A 
ATOM      5  C   UNL     1      -3.636   2.398  25.152  0.00  0.00    +0.034 A 
ATOM      6  C   UNL     1      -4.300   1.911  25.212  0.00  0.00    +0.063 A 
ATOM      7  N   UNL     1      -5.028   2.230  25.430  0.00  0.00    -0.235 NA
BRANCH   4  26
ATOM     26  C   UNL     1      -3.038   3.692  25.248  0.00  0.00    +0.018 A 
ATOM     27  C   UNL     1      -2.477   3.701  25.853  0.00  0.00    +0.001 A 
ATOM     28  C   UNL     1      -1.814   4.188  25.793  0.00  0.00    +0.004 A 
ATOM     29  C   UNL     1      -1.712   4.665  25.127  0.00  0.00    +0.071 A 
ATOM     30  C   UNL     1      -2.273   4.655  24.522  0.00  0.00    +0.004 A 
ATOM     31  C   UNL     1      -2.936   4.168  24.583  0.00  0.00    +0.001 A 
BRANCH  29  32
ATOM     32  C   UNL     1      -1.048   5.152  25.067  0.00  0.00    +0.419 C 
ATOM     33  F   UNL     1      -0.384   5.637  25.007  0.00  0.00    -0.166 F 
ATOM     34  F   UNL     1      -0.610   4.516  24.775  0.00  0.00    -0.166 F 
ATOM     35  F   UNL     1      -1.486   5.786  25.359  0.00  0.00    -0.166 F 
ENDBRANCH  29  32
ENDBRANCH   4  26
ENDBRANCH   8   6
BRANCH  15  16
ATOM     16  C   UNL     1      -4.040  -1.219  24.622  0.00  0.00    +0.131 C 
BRANCH  16  17
ATOM     17  N   UNL     1      -3.280  -1.517  24.499  0.00  0.00    -0.204 NA
ATOM     18  C   UNL     1      -3.096  -2.285  24.737  0.00  0.00    +0.241 C 
ATOM     19  O   UNL     1      -3.670  -2.755  25.097  0.00  0.00    -0.273 OA
BRANCH  18  20
ATOM     20  C   UNL     1      -2.336  -2.583  24.615  0.00  0.00    +0.087 C 
BRANCH  20  21
ATOM     21  C   UNL     1      -1.689  -2.230  24.985  0.00  0.00    +0.021 C 
BRANCH  21  22
ATOM     22  C   UNL     1      -0.936  -2.303  24.658  0.00  0.00    +0.115 C 
BRANCH  22  23
ATOM     23  C   UNL     1      -0.311  -1.857  24.958  0.00  0.00    +0.365 C 
ATOM     24  O   UNL     1       0.099  -2.116  25.626  0.00  0.00    -0.246 OA
ATOM     25  O   UNL     1      -0.095  -1.150  24.591  0.00  0.00    -0.246 OA
ENDBRANCH  22  23
ENDBRANCH  21  22
ENDBRANCH  20  21
ENDBRANCH  18  20
ENDBRANCH  16  17
ENDBRANCH  15  16
TORSDOF 9
ENDMDL
MODEL 3
REMARK VINA RESULT:     -10.6      2.694      3.857
REMARK  Name = 
REMARK  9 active torsions:
REMARK  status: ('A' for Active; 'I' for Inactive)
REMARK    1  A    between atoms: C_4  and  C_26
REMARK    2  A    between atoms: C_6  and  C_8
REMARK    3  A    between atoms: C_15  and  C_16
REMARK    4  A    between atoms: C_16  and  N_17
REMARK    5  A    between atoms: C_18  and  C_20
REMARK    6  A    between atoms: C_20  and  C_21
REMARK    7  A    between atoms: C_21  and  C_22
REMARK    8  A    between atoms: C_22  and  C_23
REMARK    9  A    between atoms: C_29  and  C_32
REMARK                            x       y       z     vdW  Elec       q    Type
REMARK                         _______ _______ _______ _____ _____    ______ ____
ROOT
ATOM      8  C   UNL     1      -1.119   1.852  24.821  0.00  0.00    +0.056 C 
ATOM      9  C   UNL     1      -1.118   1.383  25.443  0.00  0.00    +0.078 C 
ATOM     10  N   UNL     1      -0.858   1.187  24.685  0.00  0.00    -0.272 NA
ATOM     11  C   UNL     1      -0.992   2.034  24.082  0.00  0.00    +0.072 C 
ATOM     12  C   UNL     1      -0.945   2.332  23.503  0.00  0.00    +0.018 C 
ATOM     13  C   UNL     1      -0.861   1.652  24.080  0.00  0.00    +0.010 C 
ATOM     14  C   UNL     1      -0.526   0.909  23.755  0.00  0.00    +0.018 C 
ATOM     15  C   UNL     1      -0.508   0.418  24.339  0.00  0.00    +0.079 C 
ENDROOT
BRANCH   8   6
ATOM      1  C   UNL     1      -0.651   4.664  25.032  0.00  0.00    +0.074 C 
ATOM      2  C   UNL     1      -1.172   4.024  25.031  0.00  0.00    +0.139 A 
ATOM      3  N   UNL     1      -1.980   4.151  25.136  0.00  0.00    -0.231 NA
ATOM      4  C   UNL     1      -2.502   3.511  25.135  0.00  0.00    +0.084 A 
ATOM      5  C   UNL     1      -2.215   2.745  25.031  0.00  0.00    +0.034 A 
ATOM      6  C   UNL     1      -1.406   2.619  24.926  0.00  0.00    +0.063 A 
ATOM      7  N   UNL     1      -0.885   3.258  24.927  0.00  0.00    -0.235 NA
BRANCH   4  26
ATOM     26  C   UNL     1      -3.311   3.638  25.240  0.00  0.00    +0.018 A 
ATOM     27  C   UNL     1      -3.806   3.700  24.583  0.00  0.00    +0.001 A 
ATOM     28  C   UNL     1      -4.615   3.827  24.688  0.00  0.00    +0.004 A 
ATOM     29  C   UNL     1      -4.927   3.891  25.449  0.00  0.00    +0.071 A 
ATOM     30  C   UNL     1      -4.432   3.829  26.105  0.00  0.00    +0.004 A 
ATOM     31  C   UNL     1      -3.623   3.702  26.001  0.00  0.00    +0.001 A 
BRANCH  29  32
ATOM     32  C   UNL     1      -5.736   4.017  25.552  0.00  0.00    +0.419 C 
ATOM     33  F   UNL     1      -6.545   4.145  25.656  0.00  0.00    -0.166 F 
ATOM     34  F   UNL     1      -5.620   4.829  25.456  0.00  0.00    -0.166 F 
ATOM     35  F   UNL     1      -5.852   3.207  25.648  0.00  0.00    -0.166 F 
ENDBRANCH  29  32
ENDBRANCH   4  26
ENDBRANCH   8   6
BRANCH  15  16
ATOM     16  C   UNL     1      -0.298  -0.353  24.540  0.00  0.00    +0.131 C 
BRANCH  16  17
ATOM     17  N   UNL     1      -0.797  -0.981  24.349  0.00  0.00    -0.204 NA
ATOM     18  C   UNL     1      -0.762  -1.682  24.782  0.00  0.00    +0.241 C 
ATOM     19  O   UNL     1      -0.228  -1.756  25.406  0.00  0.00    -0.273 OA
BRANCH  18  20
ATOM     20  C   UNL     1      -1.262  -2.310  24.591  0.00  0.00    +0.087 C 
BRANCH  20  21
ATOM     21  C   UNL     1      -2.059  -2.282  24.802  0.00  0.00    +0.021 C 
BRANCH  21  22
ATOM     22  C   UNL     1      -2.591  -2.823  24.478  0.00  0.00    +0.115 C 
BRANCH  22  23
ATOM     23  C   UNL     1      -3.397  -2.760  24.642  0.00  0.00    +0.365 C 
ATOM     24  O   UNL     1      -3.944  -2.739  24.026  0.00  0.00    -0.246 OA
ATOM     25  O   UNL     1      -3.655  -2.717  25.425  0.00  0.00    -0.246 OA
ENDBRANCH  22  23
ENDBRANCH  21  22
ENDBRANCH  20  21
ENDBRANCH  18  20
ENDBRANCH  16  17
ENDBRANCH  15  16
TORSDOF 9
ENDMDL
MODEL 4
REMARK VINA RESULT:     -10.3      1.904      2.409
REMARK  Name = 
REMARK  9 active torsions:
REMARK  status: ('A' for Active; 'I' for Inactive)
REMARK    1  A    between atoms: C_4  and  C_26
REMARK    2  A    between atoms: C_6  and  C_8
REMARK    3  A    between atoms: C_15  and  C_16
REMARK    4  A    between atoms: C_16  and  N_17
REMARK    5  A    between atoms: C_18  and  C_20
REMARK    6  A    between atoms: C_20  and  C_21
REMARK    7  A    between atoms: C_21  and  C_22
REMARK    8  A    between atoms: C_22  and  C_23
REMARK    9  A    between atoms: C_29  and  C_32
REMARK                            x       y       z     vdW  Elec       q    Type
REMARK                         _______ _______ _______ _____ _____    ______ ____
ROOT
ATOM      8  C   UNL     1      -1.458   0.029  24.146  0.00  0.00    +0.056 C 
ATOM      9  C   UNL     1      -1.404   0.086  23.371  0.00  0.00    +0.078 C 
ATOM     10  N   UNL     1      -0.774   0.002  23.899  0.00  0.00    -0.272 NA
ATOM     11  C   UNL     1      -1.183  -0.047  24.863  0.00  0.00    +0.072 C 
ATOM     12  C   UNL     1      -1.108  -0.103  25.510  0.00  0.00    +0.018 C 
ATOM     13  C   UNL     1      -0.835  -0.054  24.657  0.00  0.00    +0.010 C 
ATOM     14  C   UNL     1       0.031  -0.103  24.526  0.00  0.00    +0.018 C 
ATOM     15  C   UNL     1       0.128  -0.049  23.770  0.00  0.00    +0.079 C 
ENDROOT
BRANCH   8   6
ATOM      1  C   UNL     1      -3.689  -1.308  25.331  0.00  0.00    +0.074 C 
ATOM      2  C   UNL     1      -3.329  -0.614  25.067  0.00  0.00    +0.139 A 
ATOM      3  N   UNL     1      -3.727   0.106  25.132  0.00  0.00    -0.231 NA
ATOM      4  C   UNL     1      -3.368   0.800  24.868  0.00  0.00    +0.084 A 
ATOM      5  C   UNL     1      -2.612   0.775  24.540  0.00  0.00    +0.034 A 
ATOM      6  C   UNL     1      -2.215   0.054  24.475  0.00  0.00    +0.063 A 
ATOM      7  N   UNL     1      -2.573  -0.640  24.738  0.00  0.00    -0.235 NA
BRANCH   4  26
ATOM     26  C   UNL     1      -3.766   1.521  24.933  0.00  0.00    +0.018 A 
ATOM     27  C   UNL     1      -3.444   2.130  25.387  0.00  0.00    +0.001 A 
ATOM     28  C   UNL     1      -3.841   2.850  25.452  0.00  0.00    +0.004 A 
ATOM     29  C   UNL     1      -4.560   2.961  25.062  0.00  0.00    +0.071 A 
ATOM     30  C   UNL     1      -4.882   2.352  24.608  0.00  0.00    +0.004 A 
ATOM     31  C   UNL     1      -4.484   1.632  24.543  0.00  0.00    +0.001 A 
BRANCH  29  32
ATOM     32  C   UNL     1      -4.956   3.681  25.127  0.00  0.00    +0.419 C 
ATOM     33  F   UNL     1      -5.353   4.402  25.193  0.00  0.00    -0.166 F 
ATOM     34  F   UNL     1      -5.470   3.347  25.680  0.00  0.00    -0.166 F 
ATOM     35  F   UNL     1      -4.443   4.015  24.576  0.00  0.00    -0.166 F 
ENDBRANCH  29  32
ENDBRANCH   4  26
ENDBRANCH   8   6
BRANCH  15  16
ATOM     16  C   UNL     1       0.707  -0.042  23.183  0.00  0.00    +0.131 C 
BRANCH  16  17
ATOM     17  N   UNL     1       1.395   0.400  23.288  0.00  0.00    -0.204 NA
ATOM     18  C   UNL     1       2.014   0.331  22.747  0.00  0.00    +0.241 C 
ATOM     19  O   UNL     1       1.946  -0.179  22.102  0.00  0.00    -0.273 OA
BRANCH  18  20
ATOM     20  C   UNL     1       2.703   0.773  22.851  0.00  0.00    +0.087 C 
BRANCH  20  21
ATOM     21  C   UNL     1       3.435   0.395  22.888  0.00  0.00    +0.021 C 
BRANCH  21  22
ATOM     22  C   UNL     1       4.130   0.840  22.911  0.00  0.00    +0.115 C 
BRANCH  22  23
ATOM     23  C   UNL     1       4.822   0.509  23.212  0.00  0.00    +0.365 C 
ATOM     24  O   UNL     1       5.261  -0.018  22.752  0.00  0.00    -0.246 OA
ATOM     25  O   UNL     1       5.077   0.704  23.971  0.00  0.00    -0.246 OA
ENDBRANCH  22  23
ENDBRANCH  21  22
ENDBRANCH  20  21
ENDBRANCH  18  20
ENDBRANCH  16  17
ENDBRANCH  15  16
TORSDOF 9
ENDMDL
MODEL 5
REMARK VINA RESULT:     -10.0      3.082      4.812
REMARK  Name = 
REMARK  9 active torsions:
REMARK  status: ('A' for Active; 'I' for Inactive)
REMARK    1  A    between atoms: C_4  and  C_26
REMARK    2  A    between atoms: C_6  and  C_8
REMARK    3  A    between atoms: C_15  and  C_16
REMARK    4  A    between atoms: C_16  and  N_17
REMARK    5  A    between atoms: C_18  and  C_20
REMARK    6  A    between atoms: C_20  and  C_21
REMARK    7  A    between atoms: C_21  and  C_22
REMARK    8  A    between atoms: C_22  and  C_23
REMARK    9  A    between atoms: C_29  and  C_32
REMARK                            x       y       z     vdW  Elec       q    Type
REMARK                         _______ _______ _______ _____ _____    ______ ____
ROOT
ATOM      8  C   UNL     1      -3.970   2.517  24.913  0.00  0.00    +0.056 C 
ATOM      9  C   UNL     1      -3.444   2.651  25.471  0.00  0.00    +0.078 C 
ATOM     10  N   UNL     1      -3.568   3.111  24.797  0.00  0.00    -0.272 NA
ATOM     11  C   UNL     1      -4.344   2.662  24.253  0.00  0.00    +0.072 C 
ATOM     12  C   UNL     1      -4.741   2.650  23.734  0.00  0.00    +0.018 C 
ATOM     13  C   UNL     1      -4.086   2.974  24.255  0.00  0.00    +0.010 C 
ATOM     14  C   UNL     1      -3.695   3.707  23.971  0.00  0.00    +0.018 C 
ATOM     15  C   UNL     1      -3.166   3.874  24.496  0.00  0.00    +0.079 C 
ENDROOT
BRANCH   8   6
ATOM      1  C   UNL     1      -6.506   1.363  25.550  0.00  0.00    +0.074 C 
ATOM      2  C   UNL     1      -5.719   1.276  25.318  0.00  0.00    +0.139 A 
ATOM      3  N   UNL     1      -5.414   0.523  25.174  0.00  0.00    -0.231 NA
ATOM      4  C   UNL     1      -4.627   0.435  24.942  0.00  0.00    +0.084 A 
ATOM      5  C   UNL     1      -4.146   1.099  24.855  0.00  0.00    +0.034 A 
ATOM      6  C   UNL     1      -4.452   1.852  25.000  0.00  0.00    +0.063 A 
ATOM      7  N   UNL     1      -5.238   1.940  25.231  0.00  0.00    -0.235 NA
BRANCH   4  26
ATOM     26  C   UNL     1      -4.321  -0.318  24.797  0.00  0.00    +0.018 A 
ATOM     27  C   UNL     1      -4.461  -0.687  24.073  0.00  0.00    +0.001 A 
ATOM     28  C   UNL     1      -4.155  -1.440  23.928  0.00  0.00    +0.004 A 
ATOM     29  C   UNL     1      -3.709  -1.822  24.508  0.00  0.00    +0.071 A 
ATOM     30  C   UNL     1      -3.570  -1.453  25.232  0.00  0.00    +0.004 A 
ATOM     31  C   UNL     1      -3.876  -0.700  25.377  0.00  0.00    +0.001 A 
BRANCH  29  32
ATOM     32  C   UNL     1      -3.404  -2.574  24.362  0.00  0.00    +0.419 C 
ATOM     33  F   UNL     1      -3.099  -3.327  24.217  0.00  0.00    -0.166 F 
ATOM     34  F   UNL     1      -4.156  -2.898  24.462  0.00  0.00    -0.166 F 
ATOM     35  F   UNL     1      -2.652  -2.251  24.263  0.00  0.00    -0.166 F 
ENDBRANCH  29  32
ENDBRANCH   4  26
ENDBRANCH   8   6
BRANCH  15  16
ATOM     16  C   UNL     1      -2.578   4.421  24.681  0.00  0.00    +0.131 C 
BRANCH  16  17
ATOM     17  N   UNL     1      -1.788   4.185  24.708  0.00  0.00    -0.204 NA
ATOM     18  C   UNL     1      -1.213   4.703  24.993  0.00  0.00    +0.241 C 
ATOM     19  O   UNL     1      -1.428   5.456  25.252  0.00  0.00    -0.273 OA
BRANCH  18  20
ATOM     20  C   UNL     1      -0.423   4.467  25.020  0.00  0.00    +0.087 C 
BRANCH  20  21
ATOM     21  C   UNL     1      -0.197   3.835  25.499  0.00  0.00    +0.021 C 
BRANCH  21  22
ATOM     22  C   UNL     1       0.302   3.249  25.200  0.00  0.00    +0.115 C 
BRANCH  22  23
ATOM     23  C   UNL     1       0.440   2.563  25.637  0.00  0.00    +0.365 C 
ATOM     24  O   UNL     1       0.563   2.609  26.451  0.00  0.00    -0.246 OA
ATOM     25  O   UNL     1       0.456   1.830  25.258  0.00  0.00    -0.246 OA
ENDBRANCH  22  23
ENDBRANCH  21  22
ENDBRANCH  20  21
ENDBRANCH  18  20
ENDBRANCH  16  17
ENDBRANCH  15  16
TORSDOF 9
ENDMDL
MODEL 6
REMARK VINA RESULT:      -9.6      3.684      5.900
REMARK  Name = 
REMARK  9 active torsions:
REMARK  status: ('A' for Active; 'I' for Inactive)
REMARK    1  A    between atoms: C_4  and  C_26
REMARK    2  A    between atoms: C_6  and  C_8
REMARK    3  A    between atoms: C_15  and  C_16
REMARK    4  A    between atoms: C_16  and  N_17
REMARK    5  A    between atoms: C_18  and  C_20
REMARK    6  A    between atoms: C_20  and  C_21
REMARK    7  A    between atoms: C_21  and  C_22
REMARK    8  A    between atoms: C_22  and  C_23
REMARK    9  A    between atoms: C_29  and  C_32
REMARK                            x       y       z     vdW  Elec       q    Type
REMARK                         _______ _______ _______ _____ _____    ______ ____
ROOT
ATOM      8  C   UNL     1      -1.022   1.448  24.807  0.00  0.00    +0.056 C 
ATOM      9  C   UNL     1      -1.520   1.897  24.412  0.00  0.00    +0.078 C 
ATOM     10  N   UNL     1      -1.131   2.099  25.111  0.00  0.00    -0.272 NA
ATOM     11  C   UNL     1      -0.536   1.280  25.384  0.00  0.00    +0.072 C 
ATOM     12  C   UNL     1      -0.112   0.997  25.792  0.00  0.00    +0.018 C 
ATOM     13  C   UNL     1      -0.644   1.654  25.493  0.00  0.00    +0.010 C 
ATOM     14  C   UNL     1      -0.665   2.385  25.980  0.00  0.00    +0.018 C 
ATOM     15  C   UNL     1      -1.148   2.856  25.622  0.00  0.00    +0.079 C 
ENDROOT
BRANCH   8   6
ATOM      1  C   UNL     1       0.695  -0.333  23.375  0.00  0.00    +0.074 C 
ATOM      2  C   UNL     1      -0.007  -0.192  23.786  0.00  0.00    +0.139 A 
ATOM      3  N   UNL     1      -0.551  -0.803  23.891  0.00  0.00    -0.231 NA
ATOM      4  C   UNL     1      -1.253  -0.663  24.302  0.00  0.00    +0.084 A 
ATOM      5  C   UNL     1      -1.410   0.087  24.607  0.00  0.00    +0.034 A 
ATOM      6  C   UNL     1      -0.865   0.697  24.501  0.00  0.00    +0.063 A 
ATOM      7  N   UNL     1      -0.164   0.558  24.091  0.00  0.00    -0.235 NA
BRANCH   4  26
ATOM     26  C   UNL     1      -1.798  -1.274  24.407  0.00  0.00    +0.018 A 
ATOM     27  C   UNL     1      -1.541  -2.020  24.647  0.00  0.00    +0.001 A 
ATOM     28  C   UNL     1      -2.086  -2.630  24.753  0.00  0.00    +0.004 A 
ATOM     29  C   UNL     1      -2.888  -2.494  24.618  0.00  0.00    +0.071 A 
ATOM     30  C   UNL     1      -3.146  -1.748  24.379  0.00  0.00    +0.004 A 
ATOM     31  C   UNL     1      -2.601  -1.137  24.273  0.00  0.00    +0.001 A 
BRANCH  29  32
ATOM     32  C   UNL     1      -3.433  -3.105  24.724  0.00  0.00    +0.419 C 
ATOM     33  F   UNL     1      -3.977  -3.716  24.829  0.00  0.00    -0.166 F 
ATOM     34  F   UNL     1      -3.365  -3.302  23.926  0.00  0.00    -0.166 F 
ATOM     35  F   UNL     1      -3.500  -2.908  25.522  0.00  0.00    -0.166 F 
ENDBRANCH  29  32
ENDBRANCH   4  26
ENDBRANCH   8   6
BRANCH  15  16
ATOM     16  C   UNL     1      -1.485   3.606  25.669  0.00  0.00    +0.131 C 
BRANCH  16  17
ATOM     17  N   UNL     1      -2.281   3.690  25.870  0.00  0.00    -0.204 NA
ATOM     18  C   UNL     1      -2.671   4.401  25.722  0.00  0.00    +0.241 C 
ATOM     19  O   UNL     1      -2.265   5.030  25.374  0.00  0.00    -0.273 OA
BRANCH  18  20
ATOM     20  C   UNL     1      -3.467   4.485  25.923  0.00  0.00    +0.087 C 
BRANCH  20  21
ATOM     21  C   UNL     1      -4.035   4.004  25.567  0.00  0.00    +0.021 C 
BRANCH  21  22
ATOM     22  C   UNL     1      -4.813   4.013  25.839  0.00  0.00    +0.115 C 
BRANCH  22  23
ATOM     23  C   UNL     1      -5.306   3.366  25.705  0.00  0.00    +0.365 C 
ATOM     24  O   UNL     1      -5.439   3.101  24.935  0.00  0.00    -0.246 OA
ATOM     25  O   UNL     1      -5.665   2.983  26.341  0.00  0.00    -0.246 OA
ENDBRANCH  22  23
ENDBRANCH  21  22
ENDBRANCH  20  21
ENDBRANCH  18  20
ENDBRANCH  16  17
ENDBRANCH  15  16
TORSDOF 9
ENDMDL
