MODEL 1
REMARK VINA RESULT:     -11.5      0.000      0.000
REMARK  Name = 
REMARK  6 active torsions:
REMARK  status: ('A' for Active; 'I' for Inactive)
REMARK    1  A    between atoms: C_5  and  S_8
REMARK    2  A    between atoms: S_8  and  C_11
REMARK    3  A    between atoms: C_11  and  C_12
REMARK    4  A    between atoms: C_15  and  C_17
REMARK    5  A    between atoms: N_22  and  C_23
REMARK    6  A    between atoms: C_23  and  C_24
REMARK                            x       y       z     vdW  Elec       q    Type
REMARK                         _______ _______ _______ _____ _____    ______ ____
ROOT
ATOM     12  C   UNL     1      -4.547   1.554  24.768  0.00  0.00    +0.205 A 
ATOM     13  N   UNL     1      -4.892   1.239  25.449  0.00  0.00    -0.059 NA
ATOM     14  O   UNL     1      -4.740   0.427  25.459  0.00  0.00    -0.336 OA
ATOM     15  C   UNL     1      -4.302   0.241  24.786  0.00  0.00    +0.251 A 
ATOM     16  N   UNL     1      -4.183   0.937  24.359  0.00  0.00    -0.192 NA
ENDROOT
BRANCH  15  17
ATOM     17  C   UNL     1      -4.031  -0.509  24.575  0.00  0.00    +0.140 C 
ATOM     18  C   UNL     1      -4.455  -1.076  24.152  0.00  0.00    +0.060 C 
ATOM     19  C   UNL     1      -3.976  -1.742  24.066  0.00  0.00    +0.170 C 
ATOM     20  O   UNL     1      -4.180  -2.440  23.678  0.00  0.00    -0.222 OA
ATOM     21  C   UNL     1      -3.254  -1.586  24.436  0.00  0.00    +0.106 C 
ATOM     22  N   UNL     1      -3.289  -0.823  24.751  0.00  0.00    -0.260 NA
BRANCH  22  23
ATOM     23  C   UNL     1      -2.688  -0.443  25.168  0.00  0.00    +0.101 C 
BRANCH  23  24
ATOM     24  C   UNL     1      -1.903  -0.676  25.064  0.00  0.00    +0.013 A 
ATOM     25  C   UNL     1      -1.437  -0.311  24.490  0.00  0.00    +0.000 A 
ATOM     26  C   UNL     1      -0.652  -0.544  24.386  0.00  0.00    +0.020 A 
ATOM     27  C   UNL     1      -0.334  -1.141  24.857  0.00  0.00    +0.099 A 
ATOM     28  N   UNL     1      -0.800  -1.506  25.432  0.00  0.00    -0.243 NA
ATOM     29  C   UNL     1      -1.584  -1.273  25.536  0.00  0.00    +0.096 A 
ENDBRANCH  23  24
ENDBRANCH  22  23
ENDBRANCH  15  17
BRANCH  12  11
ATOM     11  C   UNL     1      -4.563   2.346  24.539  0.00  0.00    +0.224 C 
BRANCH  11   8
ATOM      8  S   UNL     1      -3.919   2.835  24.700  0.00  0.00    +0.016 S 
ATOM      9  O   UNL     1      -3.651   2.736  23.926  0.00  0.00    -0.168 OA
ATOM     10  O   UNL     1      -4.187   2.934  25.473  0.00  0.00    -0.168 OA
BRANCH   8   5
ATOM      1  C   UNL     1      -1.338   4.791  25.339  0.00  0.00    +0.031 C 
ATOM      2  C   UNL     1      -1.984   4.302  25.180  0.00  0.00    -0.022 A 
ATOM      3  C   UNL     1      -2.664   4.352  25.643  0.00  0.00    -0.003 A 
ATOM      4  C   UNL     1      -3.309   3.863  25.484  0.00  0.00    +0.018 A 
ATOM      5  C   UNL     1      -3.274   3.324  24.860  0.00  0.00    +0.106 A 
ATOM      6  C   UNL     1      -2.593   3.274  24.396  0.00  0.00    +0.018 A 
ATOM      7  C   UNL     1      -1.949   3.763  24.556  0.00  0.00    -0.003 A 
ENDBRANCH   8   5
ENDBRANCH  11   8
ENDBRANCH  12  11
TORSDOF 6
ENDMDL
MODEL 2
REMARK VINA RESULT:     -11.4      2.077      5.324
REMARK  Name = 
REMARK  6 active torsions:
REMARK  status: ('A' for Active; 'I' for Inactive)
REMARK    1  A    between atoms: C_5  and  S_8
REMARK    2  A    between atoms: S_8  and  C_11
REMARK    3  A    between atoms: C_11  and  C_12
REMARK    4  A    between atoms: C_15  and  C_17
REMARK    5  A    between atoms: N_22  and  C_23
REMARK    6  A    between atoms: C_23  and  C_24
REMARK                            x       y       z     vdW  Elec       q    Type
REMARK                         _______ _______ _______ _____ _____    ______ ____
ROOT
ATOM     12  C   UNL     1      -0.835   0.836  24.815  0.00  0.00    +0.205 A 
ATOM     13  N   UNL     1      -0.729   1.025  24.018  0.00  0.00    -0.059 NA
ATOM     14  O   UNL     1      -0.910   1.824  23.920  0.00  0.00    -0.336 OA
ATOM     15  C   UNL     1      -1.127   2.129  24.655  0.00  0.00    +0.251 A 
ATOM     16  N   UNL     1      -1.081   1.518  25.208  0.00  0.00    -0.192 NA
ENDROOT
BRANCH  15  17
ATOM     17  C   UNL     1      -1.352   2.907  24.810  0.00  0.00    +0.140 C 
ATOM     18  C   UNL     1      -0.844   3.531  24.992  0.00  0.00    +0.060 C 
ATOM     19  C   UNL     1      -1.301   4.208  25.105  0.00  0.00    +0.170 C 
ATOM     20  O   UNL     1      -1.017   4.959  25.296  0.00  0.00    -0.222 OA
ATOM     21  C   UNL     1      -2.092   4.003  24.993  0.00  0.00    +0.106 C 
ATOM     22  N   UNL     1      -2.124   3.198  24.810  0.00  0.00    -0.260 NA
BRANCH  22  23
ATOM     23  C   UNL     1      -2.807   2.763  24.656  0.00  0.00    +0.101 C 
BRANCH  23  24
ATOM     24  C   UNL     1      -3.546   3.070  24.855  0.00  0.00    +0.013 A 
ATOM     25  C   UNL     1      -3.879   2.900  25.590  0.00  0.00    +0.000 A 
ATOM     26  C   UNL     1      -4.619   3.208  25.789  0.00  0.00    +0.020 A 
ATOM     27  C   UNL     1      -5.025   3.685  25.252  0.00  0.00    +0.099 A 
ATOM     28  N   UNL     1      -4.691   3.854  24.517  0.00  0.00    -0.243 NA
ATOM     29  C   UNL     1      -3.952   3.547  24.318  0.00  0.00    +0.096 A 
ENDBRANCH  23  24
ENDBRANCH  22  23
ENDBRANCH  15  17
BRANCH  12  11
ATOM     11  C   UNL     1      -0.716   0.095  25.158  0.00  0.00    +0.224 C 
BRANCH  11   8
ATOM      8  S   UNL     1      -1.290  -0.492  25.079  0.00  0.00    +0.016 S 
ATOM      9  O   UNL     1      -1.566  -0.323  25.839  0.00  0.00    -0.168 OA
ATOM     10  O   UNL     1      -1.014  -0.662  24.321  0.00  0.00    -0.168 OA
BRANCH   8   5
ATOM      1  C   UNL     1      -3.587  -2.842  24.770  0.00  0.00    +0.031 C 
ATOM      2  C   UNL     1      -3.013  -2.254  24.848  0.00  0.00    -0.022 A 
ATOM      3  C   UNL     1      -3.196  -1.546  25.228  0.00  0.00    -0.003 A 
ATOM      4  C   UNL     1      -2.622  -0.958  25.306  0.00  0.00    +0.018 A 
ATOM      5  C   UNL     1      -1.865  -1.079  25.002  0.00  0.00    +0.106 A 
ATOM      6  C   UNL     1      -1.681  -1.788  24.621  0.00  0.00    +0.018 A 
ATOM      7  C   UNL     1      -2.255  -2.375  24.544  0.00  0.00    -0.003 A 
ENDBRANCH   8   5
ENDBRANCH  11   8
ENDBRANCH  12  11
TORSDOF 6
ENDMDL
MODEL 3
REMARK VINA RESULT:     -11.3      1.636      4.343
REMARK  Name = 
REMARK  6 active torsions:
REMARK  status: ('A' for Active; 'I' for Inactive)
REMARK    1  A    between atoms: C_5  and  S_8
REMARK    2  A    between atoms: S_8  and  C_11
REMARK    3  A    between atoms: C_11  and  C_12
REMARK    4  A    between atoms: C_15  and  C_17
REMARK    5  A    between atoms: N_22  and  C_23
REMARK    6  A    between atoms: C_23  and  C_24
REMARK                            x       y       z     vdW  Elec       q    Type
REMARK                         _______ _______ _______ _____ _____    ______ ____
ROOT
ATOM     12  C   UNL     1      -4.509   1.662  24.766  0.00  0.00    +0.205 A 
ATOM     13  N   UNL     1      -4.637   2.101  24.079  0.00  0.00    -0.059 NA
ATOM     14  O   UNL     1      -4.104   2.732  24.077  0.00  0.00    -0.336 OA
ATOM     15  C   UNL     1      -3.648   2.682  24.762  0.00  0.00    +0.251 A 
ATOM     16  N   UNL     1      -3.898   2.020  25.188  0.00  0.00    -0.192 NA
ENDROOT
BRANCH  15  17
ATOM     17  C   UNL     1      -3.047   3.201  24.984  0.00  0.00    +0.140 C 
ATOM     18  C   UNL     1      -3.141   3.894  25.422  0.00  0.00    +0.060 C 
ATOM     19  C   UNL     1      -2.399   4.241  25.515  0.00  0.00    +0.170 C 
ATOM     20  O   UNL     1      -2.238   4.942  25.918  0.00  0.00    -0.222 OA
ATOM     21  C   UNL     1      -1.844   3.762  25.135  0.00  0.00    +0.106 C 
ATOM     22  N   UNL     1      -2.245   3.120  24.806  0.00  0.00    -0.260 NA
BRANCH  22  23
ATOM     23  C   UNL     1      -1.904   2.504  24.376  0.00  0.00    +0.101 C 
BRANCH  23  24
ATOM     24  C   UNL     1      -1.120   2.290  24.513  0.00  0.00    +0.013 A 
ATOM     25  C   UNL     1      -0.940   1.732  25.094  0.00  0.00    +0.000 A 
ATOM     26  C   UNL     1      -0.155   1.517  25.231  0.00  0.00    +0.020 A 
ATOM     27  C   UNL     1       0.450   1.862  24.788  0.00  0.00    +0.099 A 
ATOM     28  N   UNL     1       0.270   2.419  24.208  0.00  0.00    -0.243 NA
ATOM     29  C   UNL     1      -0.514   2.634  24.070  0.00  0.00    +0.096 A 
ENDBRANCH  23  24
ENDBRANCH  22  23
ENDBRANCH  15  17
BRANCH  12  11
ATOM     11  C   UNL     1      -4.921   0.983  24.990  0.00  0.00    +0.224 C 
BRANCH  11   8
ATOM      8  S   UNL     1      -4.563   0.243  24.921  0.00  0.00    +0.016 S 
ATOM      9  O   UNL     1      -4.431   0.232  25.736  0.00  0.00    -0.168 OA
ATOM     10  O   UNL     1      -4.695   0.254  24.108  0.00  0.00    -0.168 OA
BRANCH   8   5
ATOM      1  C   UNL     1      -3.133  -2.719  24.649  0.00  0.00    +0.031 C 
ATOM      2  C   UNL     1      -3.490  -1.978  24.717  0.00  0.00    -0.022 A 
ATOM      3  C   UNL     1      -3.388  -1.533  25.403  0.00  0.00    -0.003 A 
ATOM      4  C   UNL     1      -3.746  -0.792  25.472  0.00  0.00    +0.018 A 
ATOM      5  C   UNL     1      -4.205  -0.498  24.854  0.00  0.00    +0.106 A 
ATOM      6  C   UNL     1      -4.308  -0.944  24.166  0.00  0.00    +0.018 A 
ATOM      7  C   UNL     1      -3.950  -1.684  24.099  0.00  0.00    -0.003 A 
ENDBRANCH   8   5
ENDBRANCH  11   8
ENDBRANCH  12  11
TORSDOF 6
ENDMDL
MODEL 4
REMARK VINA RESULT:     -11.0      1.663      3.112
REMARK  Name = 
REMARK  6 active torsions:
REMARK  status: ('A' for Active; 'I' for Inactive)
REMARK    1  A    between atoms: C_5  and  S_8
REMARK    2  A    between atoms: S_8  and  C_11
REMARK    3  A    between atoms: C_11  and  C_12
REMARK    4  A    between atoms: C_15  and  C_17
REMARK    5  A    between atoms: N_22  and  C_23
REMARK    6  A    between atoms: C_23  and  C_24
REMARK                            x       y       z     vdW  Elec       q    Type
REMARK                         _______ _______ _______ _____ _____    ______ ____
ROOT
ATOM     12  C   UNL     1      -1.155   0.373  25.160  0.00  0.00    +0.205 A 
ATOM     13  N   UNL     1      -1.239  -0.138  25.803  0.00  0.00    -0.059 NA
ATOM     14  O   UNL     1      -1.966  -0.522  25.729  0.00  0.00    -0.336 OA
ATOM     15  C   UNL     1      -2.330  -0.249  25.041  0.00  0.00    +0.251 A 
ATOM     16  N   UNL     1      -1.828   0.304  24.689  0.00  0.00    -0.192 NA
ENDROOT
BRANCH  15  17
ATOM     17  C   UNL     1      -3.066  -0.486  24.755  0.00  0.00    +0.140 C 
ATOM     18  C   UNL     1      -3.216  -1.157  24.298  0.00  0.00    +0.060 C 
ATOM     19  C   UNL     1      -4.024  -1.180  24.136  0.00  0.00    +0.170 C 
ATOM     20  O   UNL     1      -4.413  -1.758  23.694  0.00  0.00    -0.222 OA
ATOM     21  C   UNL     1      -4.375  -0.524  24.492  0.00  0.00    +0.106 C 
ATOM     22  N   UNL     1      -3.783  -0.095  24.875  0.00  0.00    -0.260 NA
BRANCH  22  23
ATOM     23  C   UNL     1      -3.889   0.603  25.302  0.00  0.00    +0.101 C 
BRANCH  23  24
ATOM     24  C   UNL     1      -4.522   1.101  25.128  0.00  0.00    +0.013 A 
ATOM     25  C   UNL     1      -4.425   1.720  24.592  0.00  0.00    +0.000 A 
ATOM     26  C   UNL     1      -5.058   2.220  24.417  0.00  0.00    +0.020 A 
ATOM     27  C   UNL     1      -5.790   2.098  24.779  0.00  0.00    +0.099 A 
ATOM     28  N   UNL     1      -5.888   1.479  25.315  0.00  0.00    -0.243 NA
ATOM     29  C   UNL     1      -5.254   0.981  25.490  0.00  0.00    +0.096 A 
ENDBRANCH  23  24
ENDBRANCH  22  23
ENDBRANCH  15  17
BRANCH  12  11
ATOM     11  C   UNL     1      -0.509   0.865  25.014  0.00  0.00    +0.224 C 
BRANCH  11   8
ATOM      8  S   UNL     1      -0.607   1.684  25.013  0.00  0.00    +0.016 S 
ATOM      9  O   UNL     1      -0.673   1.675  24.190  0.00  0.00    -0.168 OA
ATOM     10  O   UNL     1      -0.541   1.693  25.835  0.00  0.00    -0.168 OA
BRANCH   8   5
ATOM      1  C   UNL     1      -1.000   4.961  25.003  0.00  0.00    +0.031 C 
ATOM      2  C   UNL     1      -0.902   4.142  25.006  0.00  0.00    -0.022 A 
ATOM      3  C   UNL     1      -1.080   3.707  25.683  0.00  0.00    -0.003 A 
ATOM      4  C   UNL     1      -0.982   2.888  25.686  0.00  0.00    +0.018 A 
ATOM      5  C   UNL     1      -0.705   2.503  25.011  0.00  0.00    +0.106 A 
ATOM      6  C   UNL     1      -0.526   2.938  24.332  0.00  0.00    +0.018 A 
ATOM      7  C   UNL     1      -0.625   3.757  24.331  0.00  0.00    -0.003 A 
ENDBRANCH   8   5
ENDBRANCH  11   8
ENDBRANCH  12  11
TORSDOF 6
ENDMDL
MODEL 5
REMARK VINA RESULT:     -10.9      1.832      3.111
REMARK  Name = 
REMARK  6 active torsions:
REMARK  status: ('A' for Active; 'I' for Inactive)
REMARK    1  A    between atoms: C_5  and  S_8
REMARK    2  A    between atoms: S_8  and  C_11
REMARK    3  A    between atoms: C_11  and  C_12
REMARK    4  A    between atoms: C_15  and  C_17
REMARK    5  A    between atoms: N_22  and  C_23
REMARK    6  A    between atoms: C_23  and  C_24
REMARK                            x       y       z     vdW  Elec       q    Type
REMARK                         _______ _______ _______ _____ _____    ______ ____
ROOT
ATOM     12  C   UNL     1      -1.732   2.550  24.711  0.00  0.00    +0.205 A 
ATOM     13  N   UNL     1      -1.255   2.506  25.384  0.00  0.00    -0.059 NA
ATOM     14  O   UNL     1      -0.739   1.868  25.289  0.00  0.00    -0.336 OA
ATOM     15  C   UNL     1      -0.897   1.519  24.559  0.00  0.00    +0.251 A 
ATOM     16  N   UNL     1      -1.511   1.940  24.202  0.00  0.00    -0.192 NA
ENDROOT
BRANCH  15  17
ATOM     17  C   UNL     1      -0.511   0.863  24.241  0.00  0.00    +0.140 C 
ATOM     18  C   UNL     1       0.099   0.883  23.686  0.00  0.00    +0.060 C 
ATOM     19  C   UNL     1       0.321   0.105  23.523  0.00  0.00    +0.170 C 
ATOM     20  O   UNL     1       0.912  -0.131  22.998  0.00  0.00    -0.222 OA
ATOM     21  C   UNL     1      -0.152  -0.395  23.978  0.00  0.00    +0.106 C 
ATOM     22  N   UNL     1      -0.666   0.074  24.422  0.00  0.00    -0.260 NA
BRANCH  22  23
ATOM     23  C   UNL     1      -1.235  -0.200  24.953  0.00  0.00    +0.101 C 
BRANCH  23  24
ATOM     24  C   UNL     1      -1.563  -0.950  24.856  0.00  0.00    +0.013 A 
ATOM     25  C   UNL     1      -2.312  -1.033  24.522  0.00  0.00    +0.000 A 
ATOM     26  C   UNL     1      -2.641  -1.784  24.425  0.00  0.00    +0.020 A 
ATOM     27  C   UNL     1      -2.219  -2.452  24.663  0.00  0.00    +0.099 A 
ATOM     28  N   UNL     1      -1.469  -2.369  24.998  0.00  0.00    -0.243 NA
ATOM     29  C   UNL     1      -1.141  -1.618  25.094  0.00  0.00    +0.096 A 
ENDBRANCH  23  24
ENDBRANCH  22  23
ENDBRANCH  15  17
BRANCH  12  11
ATOM     11  C   UNL     1      -2.325   3.107  24.574  0.00  0.00    +0.224 C 
BRANCH  11   8
ATOM      8  S   UNL     1      -3.111   2.921  24.742  0.00  0.00    +0.016 S 
ATOM      9  O   UNL     1      -3.237   2.737  23.947  0.00  0.00    -0.168 OA
ATOM     10  O   UNL     1      -2.985   3.105  25.535  0.00  0.00    -0.168 OA
BRANCH   8   5
ATOM      1  C   UNL     1      -6.256   2.179  25.410  0.00  0.00    +0.031 C 
ATOM      2  C   UNL     1      -5.470   2.364  25.243  0.00  0.00    -0.022 A 
ATOM      3  C   UNL     1      -5.034   1.888  24.730  0.00  0.00    -0.003 A 
ATOM      4  C   UNL     1      -4.247   2.073  24.563  0.00  0.00    +0.018 A 
ATOM      5  C   UNL     1      -3.897   2.735  24.908  0.00  0.00    +0.106 A 
ATOM      6  C   UNL     1      -4.334   3.212  25.422  0.00  0.00    +0.018 A 
ATOM      7  C   UNL     1      -5.120   3.026  25.589  0.00  0.00    -0.003 A 
ENDBRANCH   8   5
ENDBRANCH  11   8
ENDBRANCH  12  11
TORSDOF 6
ENDMDL
MODEL 6
REMARK VINA RESULT:     -10.8      1.481      4.569
REMARK  Name = 
REMARK  6 active torsions:
REMARK  status: ('A' for Active; 'I' for Inactive)
REMARK    1  A    between atoms: C_5  and  S_8
REMARK    2  A    between atoms: S_8  and  C_11
REMARK    3  A    between atoms: C_11  and  C_12
REMARK    4  A    between atoms: C_15  and  C_17
REMARK    5  A    between atoms: N_22  and  C_23
REMARK    6  A    between atoms: C_23  and  C_24
REMARK                            x       y       z     vdW  Elec       q    Type
REMARK                         _______ _______ _______ _____ _____    ______ ____
ROOT
ATOM     12  C   UNL     1      -4.252   0.102  24.831  0.00  0.00    +0.205 A 
ATOM     13  N   UNL     1      -4.334   0.340  24.045  0.00  0.00    -0.059 NA
ATOM     14  O   UNL     1      -4.501   1.148  24.040  0.00  0.00    -0.336 OA
ATOM     15  C   UNL     1      -4.522   1.409  24.822  0.00  0.00    +0.251 A 
ATOM     16  N   UNL     1      -4.368   0.762  25.311  0.00  0.00    -0.192 NA
ENDROOT
BRANCH  15  17
ATOM     17  C   UNL     1      -4.671   2.181  25.072  0.00  0.00    +0.140 C 
ATOM     18  C   UNL     1      -5.402   2.480  25.312  0.00  0.00    +0.060 C 
ATOM     19  C   UNL     1      -5.299   3.273  25.515  0.00  0.00    +0.170 C 
ATOM     20  O   UNL     1      -5.887   3.785  25.785  0.00  0.00    -0.222 OA
ATOM     21  C   UNL     1      -4.504   3.464  25.400  0.00  0.00    +0.106 C 
ATOM     22  N   UNL     1      -4.117   2.789  25.127  0.00  0.00    -0.260 NA
BRANCH  22  23
ATOM     23  C   UNL     1      -3.315   2.732  24.940  0.00  0.00    +0.101 C 
BRANCH  23  24
ATOM     24  C   UNL     1      -2.808   3.361  25.105  0.00  0.00    +0.013 A 
ATOM     25  C   UNL     1      -2.365   3.363  25.801  0.00  0.00    +0.000 A 
ATOM     26  C   UNL     1      -1.857   3.993  25.965  0.00  0.00    +0.020 A 
ATOM     27  C   UNL     1      -1.793   4.620  25.433  0.00  0.00    +0.099 A 
ATOM     28  N   UNL     1      -2.236   4.618  24.738  0.00  0.00    -0.243 NA
ATOM     29  C   UNL     1      -2.743   3.989  24.573  0.00  0.00    +0.096 A 
ENDBRANCH  23  24
ENDBRANCH  22  23
ENDBRANCH  15  17
BRANCH  12  11
ATOM     11  C   UNL     1      -4.083  -0.663  25.090  0.00  0.00    +0.224 C 
BRANCH  11   8
ATOM      8  S   UNL     1      -3.302  -0.929  25.107  0.00  0.00    +0.016 S 
ATOM      9  O   UNL     1      -3.341  -1.093  24.299  0.00  0.00    -0.168 OA
ATOM     10  O   UNL     1      -3.263  -0.766  25.914  0.00  0.00    -0.168 OA
BRANCH   8   5
ATOM      1  C   UNL     1      -0.179  -1.993  25.171  0.00  0.00    +0.031 C 
ATOM      2  C   UNL     1      -0.960  -1.728  25.155  0.00  0.00    -0.022 A 
ATOM      3  C   UNL     1      -1.531  -2.150  24.735  0.00  0.00    -0.003 A 
ATOM      4  C   UNL     1      -2.312  -1.884  24.719  0.00  0.00    +0.018 A 
ATOM      5  C   UNL     1      -2.522  -1.196  25.123  0.00  0.00    +0.106 A 
ATOM      6  C   UNL     1      -1.950  -0.773  25.543  0.00  0.00    +0.018 A 
ATOM      7  C   UNL     1      -1.170  -1.040  25.558  0.00  0.00    -0.003 A 
ENDBRANCH   8   5
ENDBRANCH  11   8
ENDBRANCH  12  11
TORSDOF 6
ENDMDL
