MODEL 1
REMARK VINA RESULT:     -11.8      0.000      0.000
REMARK  Name = 
REMARK  9 active torsions:
REMARK  status: ('A' for Active; 'I' for Inactive)
REMARK    1  A    between atoms: O_2  and  C_3
REMARK    2  A    between atoms: C_6  and  S_9
REMARK    3  A    between atoms: S_9  and  N_12
REMARK    4  A    between atoms: N_12  and  C_13
REMARK    5  A    between atoms: C_13  and  C_14
REMARK    6  A    between atoms: C_21  and  C_22
REMARK    7  A    between atoms: C_22  and  N_23
REMARK    8  A    between atoms: C_26  and  C_27
REMARK    9  A    between atoms: C_27  and  C_28
REMARK                            x       y       z     vdW  Elec       q    Type
REMARK                         _______ _______ _______ _____ _____    ______ ____
ROOT
ATOM     14  C   UNL     1      -0.363   1.045  24.889  0.00  0.00    +0.077 C 
ATOM     15  C   UNL     1      -0.055   1.670  25.236  0.00  0.00    +0.018 C 
ATOM     16  C   UNL     1      -0.417   2.390  25.319  0.00  0.00    +0.005 C 
ATOM     17  C   UNL     1       0.105   2.979  25.749  0.00  0.00    +0.017 C 
ATOM     18  C   UNL     1      -0.049   2.401  25.486  0.00  0.00    +0.072 C 
ATOM     19  N   UNL     1      -0.725   1.782  24.978  0.00  0.00    -0.272 NA
ATOM     20  C   UNL     1      -1.544   2.094  24.722  0.00  0.00    +0.073 C 
ATOM     21  C   UNL     1      -1.206   2.683  25.070  0.00  0.00    +0.032 C 
ENDROOT
BRANCH  14  13
ATOM     13  C   UNL     1      -0.343   0.262  24.634  0.00  0.00    +0.131 C 
BRANCH  13  12
ATOM     12  N   UNL     1      -0.466  -0.351  25.172  0.00  0.00    -0.076 NA
BRANCH  12   9
ATOM      9  S   UNL     1      -1.046  -0.919  25.024  0.00  0.00    +0.077 S 
ATOM     10  O   UNL     1      -0.824  -0.940  24.230  0.00  0.00    -0.152 OA
ATOM     11  O   UNL     1      -1.267  -0.899  25.818  0.00  0.00    -0.152 OA
BRANCH   9   6
ATOM      3  C   UNL     1      -2.786  -2.623  24.582  0.00  0.00    +0.139 A 
ATOM      4  C   UNL     1      -2.005  -2.764  24.359  0.00  0.00    +0.038 A 
ATOM      5  C   UNL     1      -1.424  -2.196  24.506  0.00  0.00    +0.023 A 
ATOM      6  C   UNL     1      -1.625  -1.487  24.876  0.00  0.00    +0.124 A 
ATOM      7  C   UNL     1      -2.407  -1.346  25.100  0.00  0.00    +0.023 A 
ATOM      8  C   UNL     1      -2.987  -1.914  24.953  0.00  0.00    +0.038 A 
BRANCH   3   2
ATOM      1  C   UNL     1      -4.049  -2.985  24.022  0.00  0.00    +0.252 C 
ATOM      2  O   UNL     1      -3.366  -3.190  24.435  0.00  0.00    -0.471 OA
ENDBRANCH   3   2
ENDBRANCH   9   6
ENDBRANCH  12   9
ENDBRANCH  13  12
ENDBRANCH  14  13
BRANCH  21  22
ATOM     22  C   UNL     1      -1.518   3.439  25.187  0.00  0.00    +0.073 C 
BRANCH  22  23
ATOM     23  N   UNL     1      -2.334   3.545  25.229  0.00  0.00    -0.273 NA
ATOM     24  C   UNL     1      -2.781   3.583  24.537  0.00  0.00    +0.072 C 
ATOM     25  C   UNL     1      -3.598   3.690  24.579  0.00  0.00    +0.018 C 
ATOM     26  C   UNL     1      -3.968   3.759  25.313  0.00  0.00    +0.007 C 
ATOM     34  C   UNL     1      -3.521   3.721  26.006  0.00  0.00    +0.018 C 
ATOM     35  C   UNL     1      -2.704   3.615  25.964  0.00  0.00    +0.072 C 
BRANCH  26  27
ATOM     27  C   UNL     1      -4.785   3.866  25.355  0.00  0.00    +0.026 C 
BRANCH  27  28
ATOM     28  C   UNL     1      -5.284   3.212  25.420  0.00  0.00    -0.022 A 
ATOM     29  C   UNL     1      -5.466   2.764  24.752  0.00  0.00    -0.004 A 
ATOM     30  C   UNL     1      -5.964   2.110  24.817  0.00  0.00    -0.000 A 
ATOM     31  C   UNL     1      -6.280   1.904  25.549  0.00  0.00    -0.000 A 
ATOM     32  C   UNL     1      -6.099   2.351  26.218  0.00  0.00    -0.000 A 
ATOM     33  C   UNL     1      -5.600   3.005  26.154  0.00  0.00    -0.004 A 
ENDBRANCH  27  28
ENDBRANCH  26  27
ENDBRANCH  22  23
ENDBRANCH  21  22
TORSDOF 9
ENDMDL
MODEL 2
REMARK VINA RESULT:     -11.6      1.622      3.827
REMARK  Name = 
REMARK  9 active torsions:
REMARK  status: ('A' for Active; 'I' for Inactive)
REMARK    1  A    between atoms: O_2  and  C_3
REMARK    2  A    between atoms: C_6  and  S_9
REMARK    3  A    between atoms: S_9  and  N_12
REMARK    4  A    between atoms: N_12  and  C_13
REMARK    5  A    between atoms: C_13  and  C_14
REMARK    6  A    between atoms: C_21  and  C_22
REMARK    7  A    between atoms: C_22  and  N_23
REMARK    8  A    between atoms: C_26  and  C_27
REMARK    9  A    between atoms: C_27  and  C_28
REMARK                            x       y       z     vdW  Elec       q    Type
REMARK                         _______ _______ _______ _____ _____    ______ ____
ROOT
ATOM     14  C   UNL     1      -5.101   0.788  24.794  0.00  0.00    +0.077 C 
ATOM     15  C   UNL     1      -5.631   1.252  25.124  0.00  0.00    +0.018 C 
ATOM     16  C   UNL     1      -5.534   2.041  25.282  0.00  0.00    +0.005 C 
ATOM     17  C   UNL     1      -6.263   2.396  25.665  0.00  0.00    +0.017 C 
ATOM     18  C   UNL     1      -5.902   1.920  25.401  0.00  0.00    +0.072 C 
ATOM     19  N   UNL     1      -5.010   1.592  24.959  0.00  0.00    -0.272 NA
ATOM     20  C   UNL     1      -4.315   2.167  24.822  0.00  0.00    +0.073 C 
ATOM     21  C   UNL     1      -4.862   2.589  25.148  0.00  0.00    +0.032 C 
ENDROOT
BRANCH  14  13
ATOM     13  C   UNL     1      -4.837   0.062  24.506  0.00  0.00    +0.131 C 
BRANCH  13  12
ATOM     12  N   UNL     1      -4.662  -0.551  25.030  0.00  0.00    -0.076 NA
BRANCH  12   9
ATOM      9  S   UNL     1      -3.994  -1.020  24.907  0.00  0.00    +0.077 S 
ATOM     10  O   UNL     1      -4.180  -1.076  24.106  0.00  0.00    -0.152 OA
ATOM     11  O   UNL     1      -3.808  -0.964  25.708  0.00  0.00    -0.152 OA
BRANCH   9   6
ATOM      3  C   UNL     1      -1.991  -2.427  24.541  0.00  0.00    +0.139 A 
ATOM      4  C   UNL     1      -1.907  -1.621  24.693  0.00  0.00    +0.038 A 
ATOM      5  C   UNL     1      -2.574  -1.151  24.815  0.00  0.00    +0.023 A 
ATOM      6  C   UNL     1      -3.326  -1.489  24.785  0.00  0.00    +0.124 A 
ATOM      7  C   UNL     1      -3.411  -2.295  24.632  0.00  0.00    +0.023 A 
ATOM      8  C   UNL     1      -2.744  -2.764  24.510  0.00  0.00    +0.038 A 
BRANCH   3   2
ATOM      1  C   UNL     1      -0.601  -2.680  24.750  0.00  0.00    +0.252 C 
ATOM      2  O   UNL     1      -1.324  -2.896  24.418  0.00  0.00    -0.471 OA
ENDBRANCH   3   2
ENDBRANCH   9   6
ENDBRANCH  12   9
ENDBRANCH  13  12
ENDBRANCH  14  13
BRANCH  21  22
ATOM     22  C   UNL     1      -4.828   3.392  25.335  0.00  0.00    +0.073 C 
BRANCH  22  23
ATOM     23  N   UNL     1      -4.101   3.777  25.368  0.00  0.00    -0.273 NA
ATOM     24  C   UNL     1      -3.691   3.826  26.083  0.00  0.00    +0.072 C 
ATOM     25  C   UNL     1      -2.962   4.211  26.115  0.00  0.00    +0.018 C 
ATOM     26  C   UNL     1      -2.643   4.548  25.434  0.00  0.00    +0.007 C 
ATOM     34  C   UNL     1      -3.051   4.500  24.718  0.00  0.00    +0.018 C 
ATOM     35  C   UNL     1      -3.780   4.114  24.686  0.00  0.00    +0.072 C 
BRANCH  26  27
ATOM     27  C   UNL     1      -1.914   4.933  25.466  0.00  0.00    +0.026 C 
BRANCH  27  28
ATOM     28  C   UNL     1      -1.237   4.561  25.175  0.00  0.00    -0.022 A 
ATOM     29  C   UNL     1      -0.851   4.866  24.513  0.00  0.00    -0.004 A 
ATOM     30  C   UNL     1      -0.175   4.494  24.222  0.00  0.00    -0.000 A 
ATOM     31  C   UNL     1       0.115   3.817  24.592  0.00  0.00    -0.000 A 
ATOM     32  C   UNL     1      -0.271   3.511  25.254  0.00  0.00    -0.000 A 
ATOM     33  C   UNL     1      -0.948   3.883  25.546  0.00  0.00    -0.004 A 
ENDBRANCH  27  28
ENDBRANCH  26  27
ENDBRANCH  22  23
ENDBRANCH  21  22
TORSDOF 9
ENDMDL
MODEL 3
REMARK VINA RESULT:     -11.5      2.964      4.827
REMARK  Name = 
REMARK  9 active torsions:
REMARK  status: ('A' for Active; 'I' for Inactive)
REMARK    1  A    between atoms: O_2  and  C_3
REMARK    2  A    between atoms: C_6  and  S_9
REMARK    3  A    between atoms: S_9  and  N_12
REMARK    4  A    between atoms: N_12  and  C_13
REMARK    5  A    between atoms: C_13  and  C_14
REMARK    6  A    between atoms: C_21  and  C_22
REMARK    7  A    between atoms: C_22  and  N_23
REMARK    8  A    between atoms: C_26  and  C_27
REMARK    9  A    between atoms: C_27  and  C_28
REMARK                            x       y       z     vdW  Elec       q    Type
REMARK                         _______ _______ _______ _____ _____    ______ ____
ROOT
ATOM     14  C   UNL     1       0.409   1.559  24.043  0.00  0.00    +0.077 C 
ATOM     15  C   UNL     1       0.033   2.232  24.153  0.00  0.00    +0.018 C 
ATOM     16  C   UNL     1      -0.766   2.316  24.248  0.00  0.00    +0.005 C 
ATOM     17  C   UNL     1      -1.000   3.174  24.362  0.00  0.00    +0.017 C 
ATOM     18  C   UNL     1      -0.586   2.678  24.266  0.00  0.00    +0.072 C 
ATOM     19  N   UNL     1      -0.406   1.653  24.140  0.00  0.00    -0.272 NA
ATOM     20  C   UNL     1      -1.093   1.052  24.151  0.00  0.00    +0.073 C 
ATOM     21  C   UNL     1      -1.422   1.733  24.257  0.00  0.00    +0.032 C 
ENDROOT
BRANCH  14  13
ATOM     13  C   UNL     1       1.087   1.106  23.924  0.00  0.00    +0.131 C 
BRANCH  13  12
ATOM     12  N   UNL     1       1.457   1.104  23.186  0.00  0.00    -0.076 NA
BRANCH  12   9
ATOM      9  S   UNL     1       2.244   0.865  23.121  0.00  0.00    +0.077 S 
ATOM     10  O   UNL     1       2.004   0.177  22.736  0.00  0.00    -0.152 OA
ATOM     11  O   UNL     1       2.485   1.553  23.506  0.00  0.00    -0.152 OA
BRANCH   9   6
ATOM      3  C   UNL     1       4.605   0.150  22.926  0.00  0.00    +0.139 A 
ATOM      4  C   UNL     1       4.396   0.929  22.760  0.00  0.00    +0.038 A 
ATOM      5  C   UNL     1       3.609   1.169  22.825  0.00  0.00    +0.023 A 
ATOM      6  C   UNL     1       3.031   0.627  23.056  0.00  0.00    +0.124 A 
ATOM      7  C   UNL     1       3.241  -0.154  23.222  0.00  0.00    +0.023 A 
ATOM      8  C   UNL     1       4.028  -0.392  23.157  0.00  0.00    +0.038 A 
BRANCH   3   2
ATOM      1  C   UNL     1       5.853  -0.181  23.539  0.00  0.00    +0.252 C 
ATOM      2  O   UNL     1       5.392  -0.090  22.861  0.00  0.00    -0.471 OA
ENDBRANCH   3   2
ENDBRANCH   9   6
ENDBRANCH  12   9
ENDBRANCH  13  12
ENDBRANCH  14  13
BRANCH  21  22
ATOM     22  C   UNL     1      -2.226   1.887  24.359  0.00  0.00    +0.073 C 
BRANCH  22  23
ATOM     23  N   UNL     1      -2.761   1.263  24.424  0.00  0.00    -0.273 NA
ATOM     24  C   UNL     1      -3.113   0.950  23.746  0.00  0.00    +0.072 C 
ATOM     25  C   UNL     1      -3.647   0.325  23.811  0.00  0.00    +0.018 C 
ATOM     26  C   UNL     1      -3.831   0.014  24.553  0.00  0.00    +0.007 C 
ATOM     34  C   UNL     1      -3.479   0.327  25.230  0.00  0.00    +0.018 C 
ATOM     35  C   UNL     1      -2.944   0.952  25.165  0.00  0.00    +0.072 C 
BRANCH  26  27
ATOM     27  C   UNL     1      -4.366  -0.611  24.617  0.00  0.00    +0.026 C 
BRANCH  27  28
ATOM     28  C   UNL     1      -4.101  -1.390  24.547  0.00  0.00    -0.022 A 
ATOM     29  C   UNL     1      -3.687  -1.743  25.167  0.00  0.00    -0.004 A 
ATOM     30  C   UNL     1      -3.423  -2.521  25.096  0.00  0.00    -0.000 A 
ATOM     31  C   UNL     1      -3.571  -2.946  24.406  0.00  0.00    -0.000 A 
ATOM     32  C   UNL     1      -3.985  -2.593  23.785  0.00  0.00    -0.000 A 
ATOM     33  C   UNL     1      -4.250  -1.815  23.855  0.00  0.00    -0.004 A 
ENDBRANCH  27  28
ENDBRANCH  26  27
ENDBRANCH  22  23
ENDBRANCH  21  22
TORSDOF 9
ENDMDL
MODEL 4
REMARK VINA RESULT:     -11.4      2.358      4.397
REMARK  Name = 
REMARK  9 active torsions:
REMARK  status: ('A' for Active; 'I' for Inactive)
REMARK    1  A    between atoms: O_2  and  C_3
REMARK    2  A    between atoms: C_6  and  S_9
REMARK    3  A    between atoms: S_9  and  N_12
REMARK    4  A    between atoms: N_12  and  C_13
REMARK    5  A    between atoms: C_13  and  C_14
REMARK    6  A    between atoms: C_21  and  C_22
REMARK    7  A    between atoms: C_22  and  N_23
REMARK    8  A    between atoms: C_26  and  C_27
REMARK    9  A    between atoms: C_27  and  C_28
REMARK                            x       y       z     vdW  Elec       q    Type
REMARK                         _______ _______ _______ _____ _____    ______ ____
ROOT
ATOM     14  C   UNL     1      -0.699  -0.994  24.335  0.00  0.00    +0.077 C 
ATOM     15  C   UNL     1      -1.117  -1.645  24.420  0.00  0.00    +0.018 C 
ATOM     16  C   UNL     1      -1.908  -1.679  24.586  0.00  0.00    +0.005 C 
ATOM     17  C   UNL     1      -2.201  -2.525  24.643  0.00  0.00    +0.017 C 
ATOM     18  C   UNL     1      -1.758  -2.053  24.553  0.00  0.00    +0.072 C 
ATOM     19  N   UNL     1      -1.506  -1.037  24.504  0.00  0.00    -0.272 NA
ATOM     20  C   UNL     1      -2.136  -0.391  24.639  0.00  0.00    +0.073 C 
ATOM     21  C   UNL     1      -2.510  -1.053  24.715  0.00  0.00    +0.032 C 
ENDROOT
BRANCH  14  13
ATOM     13  C   UNL     1       0.001  -0.582  24.190  0.00  0.00    +0.131 C 
BRANCH  13  12
ATOM     12  N   UNL     1       0.156  -0.285  23.436  0.00  0.00    -0.076 NA
BRANCH  12   9
ATOM      9  S   UNL     1       0.918  -0.036  23.240  0.00  0.00    +0.077 S 
ATOM     10  O   UNL     1       0.853   0.587  23.777  0.00  0.00    -0.152 OA
ATOM     11  O   UNL     1       0.983  -0.659  22.704  0.00  0.00    -0.152 OA
BRANCH   9   6
ATOM      3  C   UNL     1       3.203   0.709  22.651  0.00  0.00    +0.139 A 
ATOM      4  C   UNL     1       2.740   1.163  23.159  0.00  0.00    +0.038 A 
ATOM      5  C   UNL     1       1.978   0.915  23.356  0.00  0.00    +0.023 A 
ATOM      6  C   UNL     1       1.680   0.213  23.044  0.00  0.00    +0.124 A 
ATOM      7  C   UNL     1       2.144  -0.242  22.535  0.00  0.00    +0.023 A 
ATOM      8  C   UNL     1       2.905   0.006  22.339  0.00  0.00    +0.038 A 
BRANCH   3   2
ATOM      1  C   UNL     1       4.618   0.627  22.835  0.00  0.00    +0.252 C 
ATOM      2  O   UNL     1       3.965   0.957  22.454  0.00  0.00    -0.471 OA
ENDBRANCH   3   2
ENDBRANCH   9   6
ENDBRANCH  12   9
ENDBRANCH  13  12
ENDBRANCH  14  13
BRANCH  21  22
ATOM     22  C   UNL     1      -3.311  -1.157  24.882  0.00  0.00    +0.073 C 
BRANCH  22  23
ATOM     23  N   UNL     1      -3.821  -0.510  24.876  0.00  0.00    -0.273 NA
ATOM     24  C   UNL     1      -4.042  -0.152  25.586  0.00  0.00    +0.072 C 
ATOM     25  C   UNL     1      -4.553   0.496  25.579  0.00  0.00    +0.018 C 
ATOM     26  C   UNL     1      -4.842   0.786  24.863  0.00  0.00    +0.007 C 
ATOM     34  C   UNL     1      -4.621   0.429  24.153  0.00  0.00    +0.018 C 
ATOM     35  C   UNL     1      -4.111  -0.219  24.160  0.00  0.00    +0.072 C 
BRANCH  26  27
ATOM     27  C   UNL     1      -5.352   1.435  24.856  0.00  0.00    +0.026 C 
BRANCH  27  28
ATOM     28  C   UNL     1      -5.052   2.198  24.949  0.00  0.00    -0.022 A 
ATOM     29  C   UNL     1      -5.189   2.613  25.648  0.00  0.00    -0.004 A 
ATOM     30  C   UNL     1      -4.888   3.375  25.740  0.00  0.00    -0.000 A 
ATOM     31  C   UNL     1      -4.450   3.723  25.134  0.00  0.00    -0.000 A 
ATOM     32  C   UNL     1      -4.312   3.307  24.434  0.00  0.00    -0.000 A 
ATOM     33  C   UNL     1      -4.613   2.544  24.342  0.00  0.00    -0.004 A 
ENDBRANCH  27  28
ENDBRANCH  26  27
ENDBRANCH  22  23
ENDBRANCH  21  22
TORSDOF 9
ENDMDL
MODEL 5
REMARK VINA RESULT:     -11.1      2.480      6.002
REMARK  Name = 
REMARK  9 active torsions:
REMARK  status: ('A' for Active; 'I' for Inactive)
REMARK    1  A    between atoms: O_2  and  C_3
REMARK    2  A    between atoms: C_6  and  S_9
REMARK    3  A    between atoms: S_9  and  N_12
REMARK    4  A    between atoms: N_12  and  C_13
REMARK    5  A    between atoms: C_13  and  C_14
REMARK    6  A    between atoms: C_21  and  C_22
REMARK    7  A    between atoms: C_22  and  N_23
REMARK    8  A    between atoms: C_26  and  C_27
REMARK    9  A    between atoms: C_27  and  C_28
REMARK                            x       y       z     vdW  Elec       q    Type
REMARK                         _______ _______ _______ _____ _____    ______ ____
ROOT
ATOM     14  C   UNL     1      -4.709   2.707  25.007  0.00  0.00    +0.077 C 
ATOM     15  C   UNL     1      -5.351   2.319  25.215  0.00  0.00    +0.018 C 
ATOM     16  C   UNL     1      -5.444   1.515  25.194  0.00  0.00    +0.005 C 
ATOM     17  C   UNL     1      -6.259   1.266  25.474  0.00  0.00    +0.017 C 
ATOM     18  C   UNL     1      -5.783   1.690  25.329  0.00  0.00    +0.072 C 
ATOM     19  N   UNL     1      -4.812   1.888  24.989  0.00  0.00    -0.272 NA
ATOM     20  C   UNL     1      -4.255   1.209  24.741  0.00  0.00    +0.073 C 
ATOM     21  C   UNL     1      -4.903   0.867  24.954  0.00  0.00    +0.032 C 
ENDROOT
BRANCH  14  13
ATOM     13  C   UNL     1      -4.270   3.396  24.893  0.00  0.00    +0.131 C 
BRANCH  13  12
ATOM     12  N   UNL     1      -3.837   3.717  25.518  0.00  0.00    -0.076 NA
BRANCH  12   9
ATOM      9  S   UNL     1      -3.085   4.027  25.381  0.00  0.00    +0.077 S 
ATOM     10  O   UNL     1      -2.860   3.822  26.148  0.00  0.00    -0.152 OA
ATOM     11  O   UNL     1      -3.309   4.231  24.614  0.00  0.00    -0.152 OA
BRANCH   9   6
ATOM      3  C   UNL     1      -0.829   4.956  24.968  0.00  0.00    +0.139 A 
ATOM      4  C   UNL     1      -1.476   5.462  25.043  0.00  0.00    +0.038 A 
ATOM      5  C   UNL     1      -2.228   5.153  25.180  0.00  0.00    +0.023 A 
ATOM      6  C   UNL     1      -2.333   4.337  25.243  0.00  0.00    +0.124 A 
ATOM      7  C   UNL     1      -1.685   3.831  25.169  0.00  0.00    +0.023 A 
ATOM      8  C   UNL     1      -0.934   4.141  25.031  0.00  0.00    +0.038 A 
BRANCH   3   2
ATOM      1  C   UNL     1       0.247   5.242  24.073  0.00  0.00    +0.252 C 
ATOM      2  O   UNL     1      -0.076   5.266  24.831  0.00  0.00    -0.471 OA
ENDBRANCH   3   2
ENDBRANCH   9   6
ENDBRANCH  12   9
ENDBRANCH  13  12
ENDBRANCH  14  13
BRANCH  21  22
ATOM     22  C   UNL     1      -5.063   0.057  24.958  0.00  0.00    +0.073 C 
BRANCH  22  23
ATOM     23  N   UNL     1      -4.443  -0.485  24.913  0.00  0.00    -0.273 NA
ATOM     24  C   UNL     1      -4.233  -0.811  24.185  0.00  0.00    +0.072 C 
ATOM     25  C   UNL     1      -3.612  -1.354  24.140  0.00  0.00    +0.018 C 
ATOM     26  C   UNL     1      -3.203  -1.570  24.823  0.00  0.00    +0.007 C 
ATOM     34  C   UNL     1      -3.413  -1.244  25.551  0.00  0.00    +0.018 C 
ATOM     35  C   UNL     1      -4.033  -0.701  25.596  0.00  0.00    +0.072 C 
BRANCH  26  27
ATOM     27  C   UNL     1      -2.583  -2.112  24.778  0.00  0.00    +0.026 C 
BRANCH  27  28
ATOM     28  C   UNL     1      -1.802  -1.845  24.764  0.00  0.00    -0.022 A 
ATOM     29  C   UNL     1      -1.374  -1.783  25.466  0.00  0.00    -0.004 A 
ATOM     30  C   UNL     1      -0.594  -1.517  25.451  0.00  0.00    -0.000 A 
ATOM     31  C   UNL     1      -0.241  -1.312  24.735  0.00  0.00    -0.000 A 
ATOM     32  C   UNL     1      -0.668  -1.373  24.032  0.00  0.00    -0.000 A 
ATOM     33  C   UNL     1      -1.449  -1.640  24.047  0.00  0.00    -0.004 A 
ENDBRANCH  27  28
ENDBRANCH  26  27
ENDBRANCH  22  23
ENDBRANCH  21  22
TORSDOF 9
ENDMDL
MODEL 6
REMARK VINA RESULT:     -11.0      1.922      5.028
REMARK  Name = 
REMARK  9 active torsions:
REMARK  status: ('A' for Active; 'I' for Inactive)
REMARK    1  A    between atoms: O_2  and  C_3
REMARK    2  A    between atoms: C_6  and  S_9
REMARK    3  A    between atoms: S_9  and  N_12
REMARK    4  A    between atoms: N_12  and  C_13
REMARK    5  A    between atoms: C_13  and  C_14
REMARK    6  A    between atoms: C_21  and  C_22
REMARK    7  A    between atoms: C_22  and  N_23
REMARK    8  A    between atoms: C_26  and  C_27
REMARK    9  A    between atoms: C_27  and  C_28
REMARK                            x       y       z     vdW  Elec       q    Type
REMARK                         _______ _______ _______ _____ _____    ______ ____
ROOT
ATOM     14  C   UNL     1      -0.664   2.626  24.939  0.00  0.00    +0.077 C 
ATOM     15  C   UNL     1      -0.038   2.416  24.527  0.00  0.00    +0.018 C 
ATOM     16  C   UNL     1       0.197   1.655  24.381  0.00  0.00    +0.005 C 
ATOM     17  C   UNL     1       0.944   1.624  23.886  0.00  0.00    +0.017 C 
ATOM     18  C   UNL     1       0.454   1.914  24.207  0.00  0.00    +0.072 C 
ATOM     19  N   UNL     1      -0.418   1.853  24.786  0.00  0.00    -0.272 NA
ATOM     20  C   UNL     1      -0.764   1.044  25.027  0.00  0.00    +0.073 C 
ATOM     21  C   UNL     1      -0.142   0.880  24.616  0.00  0.00    +0.032 C 
ENDROOT
BRANCH  14  13
ATOM     13  C   UNL     1      -1.173   3.184  25.269  0.00  0.00    +0.131 C 
BRANCH  13  12
ATOM     12  N   UNL     1      -1.696   3.602  24.787  0.00  0.00    -0.076 NA
BRANCH  12   9
ATOM      9  S   UNL     1      -2.498   3.633  24.978  0.00  0.00    +0.077 S 
ATOM     10  O   UNL     1      -2.307   3.842  25.752  0.00  0.00    -0.152 OA
ATOM     11  O   UNL     1      -2.689   3.425  24.203  0.00  0.00    -0.152 OA
BRANCH   9   6
ATOM      3  C   UNL     1      -4.905   3.725  25.546  0.00  0.00    +0.139 A 
ATOM      4  C   UNL     1      -4.339   3.924  26.113  0.00  0.00    +0.038 A 
ATOM      5  C   UNL     1      -3.537   3.893  25.924  0.00  0.00    +0.023 A 
ATOM      6  C   UNL     1      -3.300   3.664  25.167  0.00  0.00    +0.124 A 
ATOM      7  C   UNL     1      -3.866   3.465  24.600  0.00  0.00    +0.023 A 
ATOM      8  C   UNL     1      -4.668   3.496  24.790  0.00  0.00    +0.038 A 
BRANCH   3   2
ATOM      1  C   UNL     1      -6.153   3.062  25.756  0.00  0.00    +0.252 C 
ATOM      2  O   UNL     1      -5.707   3.755  25.735  0.00  0.00    -0.471 OA
ENDBRANCH   3   2
ENDBRANCH   9   6
ENDBRANCH  12   9
ENDBRANCH  13  12
ENDBRANCH  14  13
BRANCH  21  22
ATOM     22  C   UNL     1       0.151   0.130  24.432  0.00  0.00    +0.073 C 
BRANCH  22  23
ATOM     23  N   UNL     1      -0.337  -0.530  24.495  0.00  0.00    -0.273 NA
ATOM     24  C   UNL     1      -0.674  -0.861  23.818  0.00  0.00    +0.072 C 
ATOM     25  C   UNL     1      -1.164  -1.522  23.882  0.00  0.00    +0.018 C 
ATOM     26  C   UNL     1      -1.316  -1.853  24.622  0.00  0.00    +0.007 C 
ATOM     34  C   UNL     1      -0.980  -1.523  25.299  0.00  0.00    +0.018 C 
ATOM     35  C   UNL     1      -0.491  -0.862  25.236  0.00  0.00    +0.072 C 
BRANCH  26  27
ATOM     27  C   UNL     1      -1.806  -2.514  24.686  0.00  0.00    +0.026 C 
BRANCH  27  28
ATOM     28  C   UNL     1      -2.623  -2.431  24.610  0.00  0.00    -0.022 A 
ATOM     29  C   UNL     1      -3.048  -2.002  25.173  0.00  0.00    -0.004 A 
ATOM     30  C   UNL     1      -3.865  -1.919  25.097  0.00  0.00    -0.000 A 
ATOM     31  C   UNL     1      -4.258  -2.264  24.460  0.00  0.00    -0.000 A 
ATOM     32  C   UNL     1      -3.834  -2.693  23.897  0.00  0.00    -0.000 A 
ATOM     33  C   UNL     1      -3.016  -2.777  23.972  0.00  0.00    -0.004 A 
ENDBRANCH  27  28
ENDBRANCH  26  27
ENDBRANCH  22  23
ENDBRANCH  21  22
TORSDOF 9
ENDMDL
MODEL 7
REMARK VINA RESULT:      -9.1     13.981     16.936
REMARK  Name = 
REMARK  9 active torsions:
REMARK  status: ('A' for Active; 'I' for Inactive)
REMARK    1  A    between atoms: O_2  and  C_3
REMARK    2  A    between atoms: C_6  and  S_9
REMARK    3  A    between atoms: S_9  and  N_12
REMARK    4  A    between atoms: N_12  and  C_13
REMARK    5  A    between atoms: C_13  and  C_14
REMARK    6  A    between atoms: C_21  and  C_22
REMARK    7  A    between atoms: C_22  and  N_23
REMARK    8  A    between atoms: C_26  and  C_27
REMARK    9  A    between atoms: C_27  and  C_28
REMARK                            x       y       z     vdW  Elec       q    Type
REMARK                         _______ _______ _______ _____ _____    ______ ____
ROOT
ATOM     14  C   UNL     1      -6.987 -10.053  14.231  0.00  0.00    +0.077 C 
ATOM     15  C   UNL     1      -7.538  -9.871  13.713  0.00  0.00    +0.018 C 
ATOM     16  C   UNL     1      -7.412  -9.693  12.933  0.00  0.00    +0.005 C 
ATOM     17  C   UNL     1      -8.178  -9.512  12.504  0.00  0.00    +0.017 C 
ATOM     18  C   UNL     1      -7.807  -9.674  13.017  0.00  0.00    +0.072 C 
ATOM     19  N   UNL     1      -6.866  -9.870  13.436  0.00  0.00    -0.272 NA
ATOM     20  C   UNL     1      -6.109  -9.822  12.929  0.00  0.00    +0.073 C 
ATOM     21  C   UNL     1      -6.679  -9.648  12.452  0.00  0.00    +0.032 C 
ENDROOT
BRANCH  14  13
ATOM     13  C   UNL     1      -6.727 -10.264  14.985  0.00  0.00    +0.131 C 
BRANCH  13  12
ATOM     12  N   UNL     1      -6.976  -9.834  15.643  0.00  0.00    -0.076 NA
BRANCH  12   9
ATOM      9  S   UNL     1      -6.689 -10.024  16.393  0.00  0.00    +0.077 S 
ATOM     10  O   UNL     1      -7.133 -10.719  16.388  0.00  0.00    -0.152 OA
ATOM     11  O   UNL     1      -6.245  -9.329  16.398  0.00  0.00    -0.152 OA
BRANCH   9   6
ATOM      3  C   UNL     1      -5.828 -10.591  18.642  0.00  0.00    +0.139 A 
ATOM      4  C   UNL     1      -5.316 -10.576  17.996  0.00  0.00    +0.038 A 
ATOM      5  C   UNL     1      -5.602 -10.387  17.246  0.00  0.00    +0.023 A 
ATOM      6  C   UNL     1      -6.402 -10.213  17.142  0.00  0.00    +0.124 A 
ATOM      7  C   UNL     1      -6.915 -10.228  17.789  0.00  0.00    +0.023 A 
ATOM      8  C   UNL     1      -6.627 -10.417  18.539  0.00  0.00    +0.038 A 
BRANCH   3   2
ATOM      1  C   UNL     1      -6.050 -10.781  20.041  0.00  0.00    +0.252 C 
ATOM      2  O   UNL     1      -5.541 -10.781  19.393  0.00  0.00    -0.471 OA
ENDBRANCH   3   2
ENDBRANCH   9   6
ENDBRANCH  12   9
ENDBRANCH  13  12
ENDBRANCH  14  13
BRANCH  21  22
ATOM     22  C   UNL     1      -6.620  -9.458  11.651  0.00  0.00    +0.073 C 
BRANCH  22  23
ATOM     23  N   UNL     1      -5.892  -9.511  11.268  0.00  0.00    -0.273 NA
ATOM     24  C   UNL     1      -5.647 -10.230  10.945  0.00  0.00    +0.072 C 
ATOM     25  C   UNL     1      -4.918 -10.283  10.562  0.00  0.00    +0.018 C 
ATOM     26  C   UNL     1      -4.434  -9.618  10.501  0.00  0.00    +0.007 C 
ATOM     34  C   UNL     1      -4.678  -8.899  10.823  0.00  0.00    +0.018 C 
ATOM     35  C   UNL     1      -5.407  -8.846  11.207  0.00  0.00    +0.072 C 
BRANCH  26  27
ATOM     27  C   UNL     1      -3.705  -9.671  10.118  0.00  0.00    +0.026 C 
BRANCH  27  28
ATOM     28  C   UNL     1      -3.011  -9.736  10.560  0.00  0.00    -0.022 A 
ATOM     29  C   UNL     1      -2.464  -9.119  10.562  0.00  0.00    -0.004 A 
ATOM     30  C   UNL     1      -1.771  -9.184  11.004  0.00  0.00    -0.000 A 
ATOM     31  C   UNL     1      -1.623  -9.866  11.443  0.00  0.00    -0.000 A 
ATOM     32  C   UNL     1      -2.170 -10.484  11.441  0.00  0.00    -0.000 A 
ATOM     33  C   UNL     1      -2.865 -10.419  10.999  0.00  0.00    -0.004 A 
ENDBRANCH  27  28
ENDBRANCH  26  27
ENDBRANCH  22  23
ENDBRANCH  21  22
TORSDOF 9
ENDMDL
MODEL 8
REMARK VINA RESULT:      -8.2     15.278     17.736
REMARK  Name = 
REMARK  9 active torsions:
REMARK  status: ('A' for Active; 'I' for Inactive)
REMARK    1  A    between atoms: O_2  and  C_3
REMARK    2  A    between atoms: C_6  and  S_9
REMARK    3  A    between atoms: S_9  and  N_12
REMARK    4  A    between atoms: N_12  and  C_13
REMARK    5  A    between atoms: C_13  and  C_14
REMARK    6  A    between atoms: C_21  and  C_22
REMARK    7  A    between atoms: C_22  and  N_23
REMARK    8  A    between atoms: C_26  and  C_27
REMARK    9  A    between atoms: C_27  and  C_28
REMARK                            x       y       z     vdW  Elec       q    Type
REMARK                         _______ _______ _______ _____ _____    ______ ____
ROOT
ATOM     14  C   UNL     1      -7.741  -9.622  12.691  0.00  0.00    +0.077 C 
ATOM     15  C   UNL     1      -8.059  -9.522  11.988  0.00  0.00    +0.018 C 
ATOM     16  C   UNL     1      -7.657  -9.336  11.310  0.00  0.00    +0.005 C 
ATOM     17  C   UNL     1      -8.207  -9.265  10.605  0.00  0.00    +0.017 C 
ATOM     18  C   UNL     1      -8.053  -9.370  11.231  0.00  0.00    +0.072 C 
ATOM     19  N   UNL     1      -7.338  -9.432  11.995  0.00  0.00    -0.272 NA
ATOM     20  C   UNL     1      -6.454  -9.285  11.823  0.00  0.00    +0.073 C 
ATOM     21  C   UNL     1      -6.806  -9.196  11.151  0.00  0.00    +0.032 C 
ENDROOT
BRANCH  14  13
ATOM     13  C   UNL     1      -7.776  -9.787  13.498  0.00  0.00    +0.131 C 
BRANCH  13  12
ATOM     12  N   UNL     1      -8.507  -9.831  13.878  0.00  0.00    -0.076 NA
BRANCH  12   9
ATOM      9  S   UNL     1      -8.540  -9.946  14.694  0.00  0.00    +0.077 S 
ATOM     10  O   UNL     1      -8.968  -9.245  14.776  0.00  0.00    -0.152 OA
ATOM     11  O   UNL     1      -8.113 -10.647  14.613  0.00  0.00    -0.152 OA
BRANCH   9   6
ATOM      3  C   UNL     1      -8.640 -10.293  17.143  0.00  0.00    +0.139 A 
ATOM      4  C   UNL     1      -8.173  -9.689  16.830  0.00  0.00    +0.038 A 
ATOM      5  C   UNL     1      -8.140  -9.573  16.014  0.00  0.00    +0.023 A 
ATOM      6  C   UNL     1      -8.573 -10.061  15.510  0.00  0.00    +0.124 A 
ATOM      7  C   UNL     1      -9.041 -10.666  15.823  0.00  0.00    +0.023 A 
ATOM      8  C   UNL     1      -9.074 -10.781  16.639  0.00  0.00    +0.038 A 
BRANCH   3   2
ATOM      1  C   UNL     1      -9.359 -10.217  18.375  0.00  0.00    +0.252 C 
ATOM      2  O   UNL     1      -8.674 -10.409  17.959  0.00  0.00    -0.471 OA
ENDBRANCH   3   2
ENDBRANCH   9   6
ENDBRANCH  12   9
ENDBRANCH  13  12
ENDBRANCH  14  13
BRANCH  21  22
ATOM     22  C   UNL     1      -6.457  -9.008  10.426  0.00  0.00    +0.073 C 
BRANCH  22  23
ATOM     23  N   UNL     1      -5.652  -9.136  10.311  0.00  0.00    -0.273 NA
ATOM     24  C   UNL     1      -5.110  -8.537  10.483  0.00  0.00    +0.072 C 
ATOM     25  C   UNL     1      -4.303  -8.665  10.367  0.00  0.00    +0.018 C 
ATOM     26  C   UNL     1      -4.038  -9.391  10.081  0.00  0.00    +0.007 C 
ATOM     34  C   UNL     1      -4.578  -9.991   9.909  0.00  0.00    +0.018 C 
ATOM     35  C   UNL     1      -5.385  -9.862  10.024  0.00  0.00    +0.072 C 
BRANCH  26  27
ATOM     27  C   UNL     1      -3.231  -9.520   9.965  0.00  0.00    +0.026 C 
BRANCH  27  28
ATOM     28  C   UNL     1      -2.756  -9.755  10.598  0.00  0.00    -0.022 A 
ATOM     29  C   UNL     1      -2.882 -10.485  10.960  0.00  0.00    -0.004 A 
ATOM     30  C   UNL     1      -2.407 -10.719  11.592  0.00  0.00    -0.000 A 
ATOM     31  C   UNL     1      -1.807 -10.224  11.864  0.00  0.00    -0.000 A 
ATOM     32  C   UNL     1      -1.680  -9.493  11.502  0.00  0.00    -0.000 A 
ATOM     33  C   UNL     1      -2.155  -9.258  10.869  0.00  0.00    -0.004 A 
ENDBRANCH  27  28
ENDBRANCH  26  27
ENDBRANCH  22  23
ENDBRANCH  21  22
TORSDOF 9
ENDMDL
