MODEL 1
REMARK VINA RESULT:      -8.6      0.000      0.000
REMARK  Name = 
REMARK  5 active torsions:
REMARK  status: ('A' for Active; 'I' for Inactive)
REMARK    1  A    between atoms: C_2  and  N_4
REMARK    2  A    between atoms: N_7  and  C_8
REMARK    3  A    between atoms: C_8  and  C_9
REMARK    4  A    between atoms: C_11  and  C_12
REMARK    5  A    between atoms: C_16  and  N_17
REMARK                            x       y       z     vdW  Elec       q    Type
REMARK                         _______ _______ _______ _____ _____    ______ ____
ROOT
ATOM      9  C   UNL     1      -3.827   1.484  24.831  0.00  0.00    +0.154 C 
ATOM     10  O   UNL     1      -4.616   1.655  24.999  0.00  0.00    -0.350 OA
ATOM     11  C   UNL     1      -4.680   2.468  25.122  0.00  0.00    +0.180 C 
ATOM     14  C   UNL     1      -3.930   2.800  25.030  0.00  0.00    +0.198 C 
ATOM     15  O   UNL     1      -3.742   3.600  25.105  0.00  0.00    -0.219 OA
ATOM     16  C   UNL     1      -3.403   2.192  24.850  0.00  0.00    +0.120 C 
ENDROOT
BRANCH  16  17
ATOM     17  N   UNL     1      -2.593   2.277  24.713  0.00  0.00    -0.267 NA
ATOM     18  C   UNL     1      -2.316   2.411  23.949  0.00  0.00    +0.090 C 
ATOM     19  C   UNL     1      -1.507   2.496  23.812  0.00  0.00    +0.090 C 
ATOM     20  N   UNL     1      -0.975   2.448  24.441  0.00  0.00    -0.269 NA
ATOM     21  C   UNL     1      -0.166   2.533  24.305  0.00  0.00    +0.090 C 
ATOM     22  C   UNL     1      -1.253   2.314  25.206  0.00  0.00    +0.090 C 
ATOM     23  C   UNL     1      -2.062   2.228  25.343  0.00  0.00    +0.090 C 
ENDBRANCH  16  17
BRANCH  11  12
ATOM     12  C   UNL     1      -5.373   2.877  25.305  0.00  0.00    +0.214 C 
ATOM     13  O   UNL     1      -6.093   2.475  25.336  0.00  0.00    -0.218 OA
ENDBRANCH  11  12
BRANCH   9   8
ATOM      8  C   UNL     1      -3.515   0.737  24.671  0.00  0.00    +0.148 C 
BRANCH   8   7
ATOM      4  N   UNL     1      -4.150  -1.352  24.695  0.00  0.00    -0.189 NA
ATOM      5  C   UNL     1      -3.688  -0.678  24.574  0.00  0.00    +0.339 C 
ATOM      6  O   UNL     1      -2.939  -0.746  24.234  0.00  0.00    -0.249 OA
ATOM      7  N   UNL     1      -3.976   0.063  24.792  0.00  0.00    -0.185 NA
BRANCH   4   2
ATOM      1  C   UNL     1      -4.073  -2.419  23.747  0.00  0.00    +0.023 C 
ATOM      2  C   UNL     1      -3.861  -2.093  24.476  0.00  0.00    +0.097 C 
ATOM      3  C   UNL     1      -3.362  -2.509  24.984  0.00  0.00    +0.023 C 
ENDBRANCH   4   2
ENDBRANCH   8   7
ENDBRANCH   9   8
TORSDOF 5
ENDMDL
MODEL 2
REMARK VINA RESULT:      -8.1      1.464      2.806
REMARK  Name = 
REMARK  5 active torsions:
REMARK  status: ('A' for Active; 'I' for Inactive)
REMARK    1  A    between atoms: C_2  and  N_4
REMARK    2  A    between atoms: N_7  and  C_8
REMARK    3  A    between atoms: C_8  and  C_9
REMARK    4  A    between atoms: C_11  and  C_12
REMARK    5  A    between atoms: C_16  and  N_17
REMARK                            x       y       z     vdW  Elec       q    Type
REMARK                         _______ _______ _______ _____ _____    ______ ____
ROOT
ATOM      9  C   UNL     1      -2.185   1.579  24.606  0.00  0.00    +0.154 C 
ATOM     10  O   UNL     1      -1.384   1.450  24.459  0.00  0.00    -0.350 OA
ATOM     11  C   UNL     1      -1.004   2.183  24.448  0.00  0.00    +0.180 C 
ATOM     14  C   UNL     1      -1.572   2.765  24.588  0.00  0.00    +0.198 C 
ATOM     15  O   UNL     1      -1.433   3.578  24.625  0.00  0.00    -0.219 OA
ATOM     16  C   UNL     1      -2.301   2.393  24.686  0.00  0.00    +0.120 C 
ENDROOT
BRANCH  16  17
ATOM     17  N   UNL     1      -3.021   2.768  24.838  0.00  0.00    -0.267 NA
ATOM     18  C   UNL     1      -3.521   2.968  24.214  0.00  0.00    +0.090 C 
ATOM     19  C   UNL     1      -4.240   3.343  24.366  0.00  0.00    +0.090 C 
ATOM     20  N   UNL     1      -4.459   3.518  25.142  0.00  0.00    -0.269 NA
ATOM     21  C   UNL     1      -5.177   3.892  25.294  0.00  0.00    +0.090 C 
ATOM     22  C   UNL     1      -3.958   3.317  25.766  0.00  0.00    +0.090 C 
ATOM     23  C   UNL     1      -3.239   2.942  25.615  0.00  0.00    +0.090 C 
ENDBRANCH  16  17
BRANCH  11  12
ATOM     12  C   UNL     1      -0.199   2.310  24.319  0.00  0.00    +0.214 C 
ATOM     13  O   UNL     1       0.328   1.675  24.348  0.00  0.00    -0.218 OA
ENDBRANCH  11  12
BRANCH   9   8
ATOM      8  C   UNL     1      -2.768   0.999  24.663  0.00  0.00    +0.148 C 
BRANCH   8   7
ATOM      4  N   UNL     1      -2.986  -1.151  24.352  0.00  0.00    -0.189 NA
ATOM      5  C   UNL     1      -3.155  -0.374  24.572  0.00  0.00    +0.339 C 
ATOM      6  O   UNL     1      -3.880  -0.193  24.923  0.00  0.00    -0.249 OA
ATOM      7  N   UNL     1      -2.599   0.221  24.442  0.00  0.00    -0.185 NA
BRANCH   4   2
ATOM      1  C   UNL     1      -4.153  -1.865  23.939  0.00  0.00    +0.023 C 
ATOM      2  C   UNL     1      -3.542  -1.746  24.481  0.00  0.00    +0.097 C 
ATOM      3  C   UNL     1      -3.488  -2.223  25.153  0.00  0.00    +0.023 C 
ENDBRANCH   4   2
ENDBRANCH   8   7
ENDBRANCH   9   8
TORSDOF 5
ENDMDL
MODEL 3
REMARK VINA RESULT:      -8.1      1.403      3.562
REMARK  Name = 
REMARK  5 active torsions:
REMARK  status: ('A' for Active; 'I' for Inactive)
REMARK    1  A    between atoms: C_2  and  N_4
REMARK    2  A    between atoms: N_7  and  C_8
REMARK    3  A    between atoms: C_8  and  C_9
REMARK    4  A    between atoms: C_11  and  C_12
REMARK    5  A    between atoms: C_16  and  N_17
REMARK                            x       y       z     vdW  Elec       q    Type
REMARK                         _______ _______ _______ _____ _____    ______ ____
ROOT
ATOM      9  C   UNL     1      -2.883  -0.276  24.747  0.00  0.00    +0.154 C 
ATOM     10  O   UNL     1      -3.242  -1.018  24.754  0.00  0.00    -0.350 OA
ATOM     11  C   UNL     1      -2.649  -1.590  24.720  0.00  0.00    +0.180 C 
ATOM     14  C   UNL     1      -1.922  -1.201  24.692  0.00  0.00    +0.198 C 
ATOM     15  O   UNL     1      -1.180  -1.561  24.653  0.00  0.00    -0.219 OA
ATOM     16  C   UNL     1      -2.066  -0.389  24.708  0.00  0.00    +0.120 C 
ENDROOT
BRANCH  16  17
ATOM     17  N   UNL     1      -1.494   0.206  24.690  0.00  0.00    -0.267 NA
ATOM     18  C   UNL     1      -1.175   0.493  25.393  0.00  0.00    +0.090 C 
ATOM     19  C   UNL     1      -0.603   1.088  25.375  0.00  0.00    +0.090 C 
ATOM     20  N   UNL     1      -0.351   1.394  24.652  0.00  0.00    -0.269 NA
ATOM     21  C   UNL     1       0.221   1.989  24.632  0.00  0.00    +0.090 C 
ATOM     22  C   UNL     1      -0.670   1.106  23.947  0.00  0.00    +0.090 C 
ATOM     23  C   UNL     1      -1.242   0.512  23.966  0.00  0.00    +0.090 C 
ENDBRANCH  16  17
BRANCH  11  12
ATOM     12  C   UNL     1      -2.763  -2.407  24.715  0.00  0.00    +0.214 C 
ATOM     13  O   UNL     1      -3.527  -2.717  24.754  0.00  0.00    -0.218 OA
ENDBRANCH  11  12
BRANCH   9   8
ATOM      8  C   UNL     1      -3.270   0.452  24.773  0.00  0.00    +0.148 C 
BRANCH   8   7
ATOM      4  N   UNL     1      -5.198   1.260  25.406  0.00  0.00    -0.189 NA
ATOM      5  C   UNL     1      -4.456   1.201  25.048  0.00  0.00    +0.339 C 
ATOM      6  O   UNL     1      -4.159   1.832  24.606  0.00  0.00    -0.249 OA
ATOM      7  N   UNL     1      -4.012   0.511  25.132  0.00  0.00    -0.185 NA
BRANCH   4   2
ATOM      1  C   UNL     1      -6.248   1.985  24.763  0.00  0.00    +0.023 C 
ATOM      2  C   UNL     1      -5.641   1.951  25.322  0.00  0.00    +0.097 C 
ATOM      3  C   UNL     1      -5.479   2.606  25.796  0.00  0.00    +0.023 C 
ENDBRANCH   4   2
ENDBRANCH   8   7
ENDBRANCH   9   8
TORSDOF 5
ENDMDL
MODEL 4
REMARK VINA RESULT:      -8.1      1.002      3.739
REMARK  Name = 
REMARK  5 active torsions:
REMARK  status: ('A' for Active; 'I' for Inactive)
REMARK    1  A    between atoms: C_2  and  N_4
REMARK    2  A    between atoms: N_7  and  C_8
REMARK    3  A    between atoms: C_8  and  C_9
REMARK    4  A    between atoms: C_11  and  C_12
REMARK    5  A    between atoms: C_16  and  N_17
REMARK                            x       y       z     vdW  Elec       q    Type
REMARK                         _______ _______ _______ _____ _____    ______ ____
ROOT
ATOM      9  C   UNL     1      -3.625   1.505  24.971  0.00  0.00    +0.154 C 
ATOM     10  O   UNL     1      -4.007   2.229  25.072  0.00  0.00    -0.350 OA
ATOM     11  C   UNL     1      -4.821   2.095  25.055  0.00  0.00    +0.180 C 
ATOM     14  C   UNL     1      -4.942   1.286  24.942  0.00  0.00    +0.198 C 
ATOM     15  O   UNL     1      -5.675   0.909  24.891  0.00  0.00    -0.219 OA
ATOM     16  C   UNL     1      -4.204   0.922  24.890  0.00  0.00    +0.120 C 
ENDROOT
BRANCH  16  17
ATOM     17  N   UNL     1      -4.068   0.116  24.778  0.00  0.00    -0.267 NA
ATOM     18  C   UNL     1      -3.973  -0.382  25.429  0.00  0.00    +0.090 C 
ATOM     19  C   UNL     1      -3.838  -1.188  25.316  0.00  0.00    +0.090 C 
ATOM     20  N   UNL     1      -3.798  -1.496  24.552  0.00  0.00    -0.269 NA
ATOM     21  C   UNL     1      -3.662  -2.302  24.439  0.00  0.00    +0.090 C 
ATOM     22  C   UNL     1      -3.893  -0.999  23.901  0.00  0.00    +0.090 C 
ATOM     23  C   UNL     1      -4.028  -0.192  24.013  0.00  0.00    +0.090 C 
ENDBRANCH  16  17
BRANCH  11  12
ATOM     12  C   UNL     1      -5.408   2.668  25.135  0.00  0.00    +0.214 C 
ATOM     13  O   UNL     1      -5.211   3.427  25.394  0.00  0.00    -0.218 OA
ENDBRANCH  11  12
BRANCH   9   8
ATOM      8  C   UNL     1      -2.810   1.384  24.953  0.00  0.00    +0.148 C 
BRANCH   8   7
ATOM      4  N   UNL     1      -0.979   2.557  25.150  0.00  0.00    -0.189 NA
ATOM      5  C   UNL     1      -1.493   1.911  25.124  0.00  0.00    +0.339 C 
ATOM      6  O   UNL     1      -1.203   1.148  25.243  0.00  0.00    -0.249 OA
ATOM      7  N   UNL     1      -2.296   2.030  24.979  0.00  0.00    -0.185 NA
BRANCH   4   2
ATOM      1  C   UNL     1       0.120   2.516  26.062  0.00  0.00    +0.023 C 
ATOM      2  C   UNL     1      -0.176   2.439  25.295  0.00  0.00    +0.097 C 
ATOM      3  C   UNL     1       0.331   2.243  24.675  0.00  0.00    +0.023 C 
ENDBRANCH   4   2
ENDBRANCH   8   7
ENDBRANCH   9   8
TORSDOF 5
ENDMDL
MODEL 5
REMARK VINA RESULT:      -8.0      2.097      3.439
REMARK  Name = 
REMARK  5 active torsions:
REMARK  status: ('A' for Active; 'I' for Inactive)
REMARK    1  A    between atoms: C_2  and  N_4
REMARK    2  A    between atoms: N_7  and  C_8
REMARK    3  A    between atoms: C_8  and  C_9
REMARK    4  A    between atoms: C_11  and  C_12
REMARK    5  A    between atoms: C_16  and  N_17
REMARK                            x       y       z     vdW  Elec       q    Type
REMARK                         _______ _______ _______ _____ _____    ______ ____
ROOT
ATOM      9  C   UNL     1      -2.153   2.897  24.950  0.00  0.00    +0.154 C 
ATOM     10  O   UNL     1      -2.109   3.718  25.002  0.00  0.00    -0.350 OA
ATOM     11  C   UNL     1      -1.315   3.937  24.943  0.00  0.00    +0.180 C 
ATOM     14  C   UNL     1      -0.869   3.248  24.854  0.00  0.00    +0.198 C 
ATOM     15  O   UNL     1      -0.048   3.211  24.775  0.00  0.00    -0.219 OA
ATOM     16  C   UNL     1      -1.386   2.606  24.858  0.00  0.00    +0.120 C 
ENDROOT
BRANCH  16  17
ATOM     17  N   UNL     1      -1.173   1.812  24.784  0.00  0.00    -0.267 NA
ATOM     18  C   UNL     1      -0.999   1.367  25.455  0.00  0.00    +0.090 C 
ATOM     19  C   UNL     1      -0.786   0.573  25.381  0.00  0.00    +0.090 C 
ATOM     20  N   UNL     1      -0.748   0.225  24.634  0.00  0.00    -0.269 NA
ATOM     21  C   UNL     1      -0.535  -0.569  24.558  0.00  0.00    +0.090 C 
ATOM     22  C   UNL     1      -0.923   0.671  23.961  0.00  0.00    +0.090 C 
ATOM     23  C   UNL     1      -1.135   1.464  24.036  0.00  0.00    +0.090 C 
ENDBRANCH  16  17
BRANCH  11  12
ATOM     12  C   UNL     1      -1.021   4.707  24.969  0.00  0.00    +0.214 C 
ATOM     13  O   UNL     1      -1.479   5.312  25.293  0.00  0.00    -0.218 OA
ENDBRANCH  11  12
BRANCH   9   8
ATOM      8  C   UNL     1      -2.842   2.444  24.983  0.00  0.00    +0.148 C 
BRANCH   8   7
ATOM      4  N   UNL     1      -4.988   2.732  25.262  0.00  0.00    -0.189 NA
ATOM      5  C   UNL     1      -4.255   2.361  25.180  0.00  0.00    +0.339 C 
ATOM      6  O   UNL     1      -4.202   1.539  25.214  0.00  0.00    -0.249 OA
ATOM      7  N   UNL     1      -3.575   2.814  25.064  0.00  0.00    -0.185 NA
BRANCH   4   2
ATOM      1  C   UNL     1      -5.958   2.160  26.141  0.00  0.00    +0.023 C 
ATOM      2  C   UNL     1      -5.667   2.279  25.377  0.00  0.00    +0.097 C 
ATOM      3  C   UNL     1      -6.057   1.945  24.731  0.00  0.00    +0.023 C 
ENDBRANCH   4   2
ENDBRANCH   8   7
ENDBRANCH   9   8
TORSDOF 5
ENDMDL
MODEL 6
REMARK VINA RESULT:      -7.8      2.146      3.303
REMARK  Name = 
REMARK  5 active torsions:
REMARK  status: ('A' for Active; 'I' for Inactive)
REMARK    1  A    between atoms: C_2  and  N_4
REMARK    2  A    between atoms: N_7  and  C_8
REMARK    3  A    between atoms: C_8  and  C_9
REMARK    4  A    between atoms: C_11  and  C_12
REMARK    5  A    between atoms: C_16  and  N_17
REMARK                            x       y       z     vdW  Elec       q    Type
REMARK                         _______ _______ _______ _____ _____    ______ ____
ROOT
ATOM      9  C   UNL     1      -2.287   2.682  25.018  0.00  0.00    +0.154 C 
ATOM     10  O   UNL     1      -1.642   3.194  25.063  0.00  0.00    -0.350 OA
ATOM     11  C   UNL     1      -1.930   3.966  25.095  0.00  0.00    +0.180 C 
ATOM     14  C   UNL     1      -2.754   3.931  25.069  0.00  0.00    +0.198 C 
ATOM     15  O   UNL     1      -3.267   4.578  25.088  0.00  0.00    -0.219 OA
ATOM     16  C   UNL     1      -2.975   3.138  25.022  0.00  0.00    +0.120 C 
ENDROOT
BRANCH  16  17
ATOM     17  N   UNL     1      -3.748   2.852  24.985  0.00  0.00    -0.267 NA
ATOM     18  C   UNL     1      -4.183   2.748  25.678  0.00  0.00    +0.090 C 
ATOM     19  C   UNL     1      -4.956   2.462  25.641  0.00  0.00    +0.090 C 
ATOM     20  N   UNL     1      -5.293   2.279  24.910  0.00  0.00    -0.269 NA
ATOM     21  C   UNL     1      -6.066   1.993  24.872  0.00  0.00    +0.090 C 
ATOM     22  C   UNL     1      -4.858   2.383  24.217  0.00  0.00    +0.090 C 
ATOM     23  C   UNL     1      -4.085   2.669  24.254  0.00  0.00    +0.090 C 
ENDBRANCH  16  17
BRANCH  11  12
ATOM     12  C   UNL     1      -1.473   4.652  25.143  0.00  0.00    +0.214 C 
ATOM     13  O   UNL     1      -0.653   4.608  25.061  0.00  0.00    -0.218 OA
ENDBRANCH  11  12
BRANCH   9   8
ATOM      8  C   UNL     1      -2.252   1.859  24.977  0.00  0.00    +0.148 C 
BRANCH   8   7
ATOM      4  N   UNL     1      -0.764   0.268  25.124  0.00  0.00    -0.189 NA
ATOM      5  C   UNL     1      -1.476   0.659  24.978  0.00  0.00    +0.339 C 
ATOM      6  O   UNL     1      -2.125   0.239  24.688  0.00  0.00    -0.249 OA
ATOM      7  N   UNL     1      -1.540   1.468  25.123  0.00  0.00    -0.185 NA
BRANCH   4   2
ATOM      1  C   UNL     1      -0.403  -0.809  24.256  0.00  0.00    +0.023 C 
ATOM      2  C   UNL     1      -0.700  -0.541  24.979  0.00  0.00    +0.097 C 
ATOM      3  C   UNL     1      -0.934  -1.083  25.555  0.00  0.00    +0.023 C 
ENDBRANCH   4   2
ENDBRANCH   8   7
ENDBRANCH   9   8
TORSDOF 5
ENDMDL
MODEL 7
REMARK VINA RESULT:      -7.7      2.063      3.481
REMARK  Name = 
REMARK  5 active torsions:
REMARK  status: ('A' for Active; 'I' for Inactive)
REMARK    1  A    between atoms: C_2  and  N_4
REMARK    2  A    between atoms: N_7  and  C_8
REMARK    3  A    between atoms: C_8  and  C_9
REMARK    4  A    between atoms: C_11  and  C_12
REMARK    5  A    between atoms: C_16  and  N_17
REMARK                            x       y       z     vdW  Elec       q    Type
REMARK                         _______ _______ _______ _____ _____    ______ ____
ROOT
ATOM      9  C   UNL     1      -0.755   0.475  24.224  0.00  0.00    +0.154 C 
ATOM     10  O   UNL     1      -0.187   0.040  23.814  0.00  0.00    -0.350 OA
ATOM     11  C   UNL     1       0.457   0.535  23.667  0.00  0.00    +0.180 C 
ATOM     14  C   UNL     1       0.285   1.277  23.985  0.00  0.00    +0.198 C 
ATOM     15  O   UNL     1       0.777   1.939  23.963  0.00  0.00    -0.219 OA
ATOM     16  C   UNL     1      -0.464   1.240  24.329  0.00  0.00    +0.120 C 
ENDROOT
BRANCH  16  17
ATOM     17  N   UNL     1      -0.852   1.860  24.712  0.00  0.00    -0.267 NA
ATOM     18  C   UNL     1      -1.358   2.354  24.288  0.00  0.00    +0.090 C 
ATOM     19  C   UNL     1      -1.747   2.973  24.670  0.00  0.00    +0.090 C 
ATOM     20  N   UNL     1      -1.629   3.098  25.477  0.00  0.00    -0.269 NA
ATOM     21  C   UNL     1      -2.017   3.717  25.860  0.00  0.00    +0.090 C 
ATOM     22  C   UNL     1      -1.122   2.603  25.902  0.00  0.00    +0.090 C 
ATOM     23  C   UNL     1      -0.734   1.984  25.519  0.00  0.00    +0.090 C 
ENDBRANCH  16  17
BRANCH  11  12
ATOM     12  C   UNL     1       1.149   0.325  23.270  0.00  0.00    +0.214 C 
ATOM     13  O   UNL     1       1.131  -0.266  22.694  0.00  0.00    -0.218 OA
ENDBRANCH  11  12
BRANCH   9   8
ATOM      8  C   UNL     1      -1.487   0.196  24.482  0.00  0.00    +0.148 C 
BRANCH   8   7
ATOM      4  N   UNL     1      -2.656  -1.648  24.443  0.00  0.00    -0.189 NA
ATOM      5  C   UNL     1      -2.445  -0.860  24.574  0.00  0.00    +0.339 C 
ATOM      6  O   UNL     1      -2.982  -0.343  24.928  0.00  0.00    -0.249 OA
ATOM      7  N   UNL     1      -1.698  -0.591  24.351  0.00  0.00    -0.185 NA
BRANCH   4   2
ATOM      1  C   UNL     1      -3.521  -2.225  25.423  0.00  0.00    +0.023 C 
ATOM      2  C   UNL     1      -3.403  -1.917  24.666  0.00  0.00    +0.097 C 
ATOM      3  C   UNL     1      -4.032  -1.878  24.133  0.00  0.00    +0.023 C 
ENDBRANCH   4   2
ENDBRANCH   8   7
ENDBRANCH   9   8
TORSDOF 5
ENDMDL
