MODEL 1
REMARK VINA RESULT:     -14.1      0.000      0.000
REMARK  Name = 
REMARK  4 active torsions:
REMARK  status: ('A' for Active; 'I' for Inactive)
REMARK    1  A    between atoms: N_4  and  C_5
REMARK    2  A    between atoms: C_8  and  S_11
REMARK    3  A    between atoms: S_11  and  N_14
REMARK    4  A    between atoms: C_23  and  C_24
REMARK                            x       y       z     vdW  Elec       q    Type
REMARK                         _______ _______ _______ _____ _____    ______ ____
ROOT
ATOM     14  N   UNL     1      -4.021  -1.210  24.202  0.00  0.00    -0.155 NA
ATOM     15  C   UNL     1      -4.477  -1.900  24.088  0.00  0.00    +0.098 C 
ATOM     16  C   UNL     1      -3.792  -2.585  24.281  0.00  0.00    +0.041 C 
ATOM     17  C   UNL     1      -3.353  -3.260  24.408  0.00  0.00    +0.011 C 
ATOM     18  C   UNL     1      -3.254  -2.565  24.426  0.00  0.00    +0.056 C 
ATOM     19  C   UNL     1      -3.927  -1.915  24.236  0.00  0.00    +0.102 C 
ATOM     20  C   UNL     1      -2.608  -1.934  24.593  0.00  0.00    +0.041 A 
ATOM     21  C   UNL     1      -1.814  -1.871  24.806  0.00  0.00    +0.013 A 
ATOM     22  C   UNL     1      -1.467  -1.127  24.891  0.00  0.00    +0.006 A 
ATOM     23  C   UNL     1      -1.915  -0.446  24.761  0.00  0.00    +0.062 A 
ATOM     29  C   UNL     1      -2.709  -0.509  24.548  0.00  0.00    +0.261 A 
ATOM     30  O   UNL     1      -3.156   0.172  24.418  0.00  0.00    -0.267 OA
ATOM     31  N   UNL     1      -3.055  -1.253  24.463  0.00  0.00    -0.299 N 
ATOM     32  C   UNL     1      -3.124  -1.918  24.453  0.00  0.00    +0.110 C 
ENDROOT
BRANCH  23  24
ATOM     24  C   UNL     1      -1.567   0.297  24.846  0.00  0.00    +0.034 A 
ATOM     25  C   UNL     1      -1.561   0.754  25.533  0.00  0.00    +0.007 A 
ATOM     26  C   UNL     1      -1.155   1.454  25.371  0.00  0.00    +0.007 A 
ATOM     27  C   UNL     1      -0.911   1.430  24.582  0.00  0.00    +0.035 A 
ATOM     28  S   UNL     1      -1.166   0.715  24.258  0.00  0.00    -0.086 S 
ENDBRANCH  23  24
BRANCH  14  11
ATOM     11  S   UNL     1      -3.838  -0.406  24.242  0.00  0.00    +0.063 S 
ATOM     12  O   UNL     1      -3.629  -0.415  23.443  0.00  0.00    -0.153 OA
ATOM     13  O   UNL     1      -4.047  -0.397  25.040  0.00  0.00    -0.153 OA
BRANCH  11   8
ATOM      5  C   UNL     1      -3.289   2.004  24.360  0.00  0.00    +0.073 A 
ATOM      6  C   UNL     1      -3.572   1.613  25.028  0.00  0.00    +0.018 A 
ATOM      7  C   UNL     1      -3.755   0.809  24.989  0.00  0.00    +0.021 A 
ATOM      8  C   UNL     1      -3.655   0.398  24.281  0.00  0.00    +0.122 A 
ATOM      9  C   UNL     1      -3.372   0.789  23.613  0.00  0.00    +0.021 A 
ATOM     10  C   UNL     1      -3.189   1.593  23.652  0.00  0.00    +0.018 A 
BRANCH   5   4
ATOM      1  C   UNL     1      -3.519   4.175  24.353  0.00  0.00    +0.097 C 
ATOM      2  C   UNL     1      -3.702   3.371  24.314  0.00  0.00    +0.246 C 
ATOM      3  O   UNL     1      -4.481   3.132  24.189  0.00  0.00    -0.273 OA
ATOM      4  N   UNL     1      -3.106   2.808  24.399  0.00  0.00    -0.179 NA
ENDBRANCH   5   4
ENDBRANCH  11   8
ENDBRANCH  14  11
TORSDOF 4
ENDMDL
MODEL 2
REMARK VINA RESULT:     -14.0      1.579      4.629
REMARK  Name = 
REMARK  4 active torsions:
REMARK  status: ('A' for Active; 'I' for Inactive)
REMARK    1  A    between atoms: N_4  and  C_5
REMARK    2  A    between atoms: C_8  and  S_11
REMARK    3  A    between atoms: S_11  and  N_14
REMARK    4  A    between atoms: C_23  and  C_24
REMARK                            x       y       z     vdW  Elec       q    Type
REMARK                         _______ _______ _______ _____ _____    ______ ____
ROOT
ATOM     14  N   UNL     1      -1.586   2.883  24.702  0.00  0.00    -0.155 NA
ATOM     15  C   UNL     1      -0.874   3.320  24.707  0.00  0.00    +0.098 C 
ATOM     16  C   UNL     1      -1.219   4.195  25.012  0.00  0.00    +0.041 C 
ATOM     17  C   UNL     1      -1.340   4.964  25.249  0.00  0.00    +0.011 C 
ATOM     18  C   UNL     1      -1.724   4.386  25.150  0.00  0.00    +0.056 C 
ATOM     19  C   UNL     1      -1.376   3.547  24.855  0.00  0.00    +0.102 C 
ATOM     20  C   UNL     1      -2.587   4.075  25.205  0.00  0.00    +0.041 A 
ATOM     21  C   UNL     1      -3.347   4.327  25.403  0.00  0.00    +0.013 A 
ATOM     22  C   UNL     1      -3.981   3.800  25.359  0.00  0.00    +0.006 A 
ATOM     23  C   UNL     1      -3.854   3.021  25.118  0.00  0.00    +0.062 A 
ATOM     29  C   UNL     1      -3.094   2.769  24.921  0.00  0.00    +0.261 A 
ATOM     30  O   UNL     1      -2.967   1.990  24.680  0.00  0.00    -0.267 OA
ATOM     31  N   UNL     1      -2.460   3.296  24.964  0.00  0.00    -0.299 N 
ATOM     32  C   UNL     1      -2.117   3.861  25.067  0.00  0.00    +0.110 C 
ENDROOT
BRANCH  23  24
ATOM     24  C   UNL     1      -4.487   2.495  25.075  0.00  0.00    +0.034 A 
ATOM     25  C   UNL     1      -4.938   2.333  24.403  0.00  0.00    +0.007 A 
ATOM     26  C   UNL     1      -5.511   1.777  24.607  0.00  0.00    +0.007 A 
ATOM     27  C   UNL     1      -5.415   1.594  25.407  0.00  0.00    +0.035 A 
ATOM     28  S   UNL     1      -4.783   2.038  25.695  0.00  0.00    -0.086 S 
ENDBRANCH  23  24
BRANCH  14  11
ATOM     11  S   UNL     1      -2.094   2.240  24.605  0.00  0.00    +0.063 S 
ATOM     12  O   UNL     1      -2.223   2.460  23.820  0.00  0.00    -0.153 OA
ATOM     13  O   UNL     1      -1.965   2.019  25.390  0.00  0.00    -0.153 OA
BRANCH  11   8
ATOM      5  C   UNL     1      -3.616   0.310  24.313  0.00  0.00    +0.073 A 
ATOM      6  C   UNL     1      -3.255   0.444  25.042  0.00  0.00    +0.018 A 
ATOM      7  C   UNL     1      -2.747   1.087  25.140  0.00  0.00    +0.021 A 
ATOM      8  C   UNL     1      -2.602   1.596  24.508  0.00  0.00    +0.122 A 
ATOM      9  C   UNL     1      -2.962   1.463  23.778  0.00  0.00    +0.021 A 
ATOM     10  C   UNL     1      -3.470   0.819  23.681  0.00  0.00    +0.018 A 
BRANCH   5   4
ATOM      1  C   UNL     1      -4.322  -1.726  23.968  0.00  0.00    +0.097 C 
ATOM      2  C   UNL     1      -3.814  -1.083  24.066  0.00  0.00    +0.246 C 
ATOM      3  O   UNL     1      -2.999  -1.190  24.013  0.00  0.00    -0.273 OA
ATOM      4  N   UNL     1      -4.123  -0.333  24.216  0.00  0.00    -0.179 NA
ENDBRANCH   5   4
ENDBRANCH  11   8
ENDBRANCH  14  11
TORSDOF 4
ENDMDL
MODEL 3
REMARK VINA RESULT:     -14.0      1.317      2.332
REMARK  Name = 
REMARK  4 active torsions:
REMARK  status: ('A' for Active; 'I' for Inactive)
REMARK    1  A    between atoms: N_4  and  C_5
REMARK    2  A    between atoms: C_8  and  S_11
REMARK    3  A    between atoms: S_11  and  N_14
REMARK    4  A    between atoms: C_23  and  C_24
REMARK                            x       y       z     vdW  Elec       q    Type
REMARK                         _______ _______ _______ _____ _____    ______ ____
ROOT
ATOM     14  N   UNL     1      -2.000  -1.049  24.787  0.00  0.00    -0.155 NA
ATOM     15  C   UNL     1      -1.798  -1.856  24.868  0.00  0.00    +0.098 C 
ATOM     16  C   UNL     1      -2.682  -2.265  24.700  0.00  0.00    +0.041 C 
ATOM     17  C   UNL     1      -3.327  -2.749  24.586  0.00  0.00    +0.011 C 
ATOM     18  C   UNL     1      -3.187  -2.061  24.584  0.00  0.00    +0.056 C 
ATOM     19  C   UNL     1      -2.327  -1.681  24.748  0.00  0.00    +0.102 C 
ATOM     20  C   UNL     1      -3.590  -1.244  24.460  0.00  0.00    +0.041 A 
ATOM     21  C   UNL     1      -4.325  -0.912  24.289  0.00  0.00    +0.013 A 
ATOM     22  C   UNL     1      -4.405  -0.093  24.234  0.00  0.00    +0.006 A 
ATOM     23  C   UNL     1      -3.749   0.394  24.350  0.00  0.00    +0.062 A 
ATOM     29  C   UNL     1      -3.013   0.062  24.521  0.00  0.00    +0.261 A 
ATOM     30  O   UNL     1      -2.357   0.549  24.637  0.00  0.00    -0.267 OA
ATOM     31  N   UNL     1      -2.934  -0.757  24.576  0.00  0.00    -0.299 N 
ATOM     32  C   UNL     1      -3.094  -1.407  24.573  0.00  0.00    +0.110 C 
ENDROOT
BRANCH  23  24
ATOM     24  C   UNL     1      -3.829   1.213  24.294  0.00  0.00    +0.034 A 
ATOM     25  C   UNL     1      -3.681   1.670  23.623  0.00  0.00    +0.007 A 
ATOM     26  C   UNL     1      -3.831   2.458  23.813  0.00  0.00    +0.007 A 
ATOM     27  C   UNL     1      -4.073   2.489  24.602  0.00  0.00    +0.035 A 
ATOM     28  S   UNL     1      -4.071   1.719  24.899  0.00  0.00    -0.086 S 
ENDBRANCH  23  24
BRANCH  14  11
ATOM     11  S   UNL     1      -1.903  -0.230  24.769  0.00  0.00    +0.063 S 
ATOM     12  O   UNL     1      -2.083  -0.191  25.574  0.00  0.00    -0.153 OA
ATOM     13  O   UNL     1      -1.724  -0.269  23.965  0.00  0.00    -0.153 OA
BRANCH  11   8
ATOM      5  C   UNL     1      -1.614   2.228  24.715  0.00  0.00    +0.073 A 
ATOM      6  C   UNL     1      -1.515   1.786  24.026  0.00  0.00    +0.018 A 
ATOM      7  C   UNL     1      -1.611   0.966  24.044  0.00  0.00    +0.021 A 
ATOM      8  C   UNL     1      -1.807   0.590  24.751  0.00  0.00    +0.122 A 
ATOM      9  C   UNL     1      -1.905   1.032  25.440  0.00  0.00    +0.021 A 
ATOM     10  C   UNL     1      -1.809   1.851  25.422  0.00  0.00    +0.018 A 
BRANCH   5   4
ATOM      1  C   UNL     1      -0.702   4.202  24.905  0.00  0.00    +0.097 C 
ATOM      2  C   UNL     1      -0.799   3.383  24.923  0.00  0.00    +0.246 C 
ATOM      3  O   UNL     1      -0.177   2.900  25.168  0.00  0.00    -0.273 OA
ATOM      4  N   UNL     1      -1.517   3.047  24.697  0.00  0.00    -0.179 NA
ENDBRANCH   5   4
ENDBRANCH  11   8
ENDBRANCH  14  11
TORSDOF 4
ENDMDL
MODEL 4
REMARK VINA RESULT:     -13.9      1.205      3.990
REMARK  Name = 
REMARK  4 active torsions:
REMARK  status: ('A' for Active; 'I' for Inactive)
REMARK    1  A    between atoms: N_4  and  C_5
REMARK    2  A    between atoms: C_8  and  S_11
REMARK    3  A    between atoms: S_11  and  N_14
REMARK    4  A    between atoms: C_23  and  C_24
REMARK                            x       y       z     vdW  Elec       q    Type
REMARK                         _______ _______ _______ _____ _____    ______ ____
ROOT
ATOM     14  N   UNL     1      -3.018   3.001  24.772  0.00  0.00    -0.155 NA
ATOM     15  C   UNL     1      -3.246   3.804  24.778  0.00  0.00    +0.098 C 
ATOM     16  C   UNL     1      -2.404   4.213  25.095  0.00  0.00    +0.041 C 
ATOM     17  C   UNL     1      -1.797   4.696  25.343  0.00  0.00    +0.011 C 
ATOM     18  C   UNL     1      -1.905   4.011  25.238  0.00  0.00    +0.056 C 
ATOM     19  C   UNL     1      -2.725   3.630  24.931  0.00  0.00    +0.102 C 
ATOM     20  C   UNL     1      -1.481   3.197  25.294  0.00  0.00    +0.041 A 
ATOM     21  C   UNL     1      -0.753   2.867  25.498  0.00  0.00    +0.013 A 
ATOM     22  C   UNL     1      -0.643   2.051  25.452  0.00  0.00    +0.006 A 
ATOM     23  C   UNL     1      -1.260   1.565  25.200  0.00  0.00    +0.062 A 
ATOM     29  C   UNL     1      -1.988   1.895  24.996  0.00  0.00    +0.261 A 
ATOM     30  O   UNL     1      -2.606   1.409  24.745  0.00  0.00    -0.267 OA
ATOM     31  N   UNL     1      -2.098   2.711  25.043  0.00  0.00    -0.299 N 
ATOM     32  C   UNL     1      -1.970   3.359  25.151  0.00  0.00    +0.110 C 
ENDROOT
BRANCH  23  24
ATOM     24  C   UNL     1      -1.149   0.749  25.154  0.00  0.00    +0.034 A 
ATOM     25  C   UNL     1      -1.324   0.201  25.746  0.00  0.00    +0.007 A 
ATOM     26  C   UNL     1      -1.127  -0.549  25.467  0.00  0.00    +0.007 A 
ATOM     27  C   UNL     1      -0.831  -0.465  24.701  0.00  0.00    +0.035 A 
ATOM     28  S   UNL     1      -0.845   0.337  24.508  0.00  0.00    -0.086 S 
ENDBRANCH  23  24
BRANCH  14  11
ATOM     11  S   UNL     1      -3.078   2.184  24.669  0.00  0.00    +0.063 S 
ATOM     12  O   UNL     1      -2.814   2.262  23.891  0.00  0.00    -0.153 OA
ATOM     13  O   UNL     1      -3.343   2.106  25.447  0.00  0.00    -0.153 OA
BRANCH  11   8
ATOM      5  C   UNL     1      -3.261  -0.265  24.361  0.00  0.00    +0.073 A 
ATOM      6  C   UNL     1      -3.443   0.074  25.091  0.00  0.00    +0.018 A 
ATOM      7  C   UNL     1      -3.382   0.890  25.193  0.00  0.00    +0.021 A 
ATOM      8  C   UNL     1      -3.139   1.367  24.566  0.00  0.00    +0.122 A 
ATOM      9  C   UNL     1      -2.957   1.029  23.837  0.00  0.00    +0.021 A 
ATOM     10  C   UNL     1      -3.017   0.212  23.734  0.00  0.00    +0.018 A 
BRANCH   5   4
ATOM      1  C   UNL     1      -4.110  -2.237  23.968  0.00  0.00    +0.097 C 
ATOM      2  C   UNL     1      -4.049  -1.420  24.071  0.00  0.00    +0.246 C 
ATOM      3  O   UNL     1      -4.717  -0.944  23.986  0.00  0.00    -0.273 OA
ATOM      4  N   UNL     1      -3.321  -1.082  24.259  0.00  0.00    -0.179 NA
ENDBRANCH   5   4
ENDBRANCH  11   8
ENDBRANCH  14  11
TORSDOF 4
ENDMDL
MODEL 5
REMARK VINA RESULT:     -13.9      0.992      3.831
REMARK  Name = 
REMARK  4 active torsions:
REMARK  status: ('A' for Active; 'I' for Inactive)
REMARK    1  A    between atoms: N_4  and  C_5
REMARK    2  A    between atoms: C_8  and  S_11
REMARK    3  A    between atoms: S_11  and  N_14
REMARK    4  A    between atoms: C_23  and  C_24
REMARK                            x       y       z     vdW  Elec       q    Type
REMARK                         _______ _______ _______ _____ _____    ______ ____
ROOT
ATOM     14  N   UNL     1      -4.229   2.112  24.525  0.00  0.00    -0.155 NA
ATOM     15  C   UNL     1      -4.700   2.797  24.445  0.00  0.00    +0.098 C 
ATOM     16  C   UNL     1      -4.020   3.489  24.635  0.00  0.00    +0.041 C 
ATOM     17  C   UNL     1      -3.588   4.167  24.766  0.00  0.00    +0.011 C 
ATOM     18  C   UNL     1      -3.477   3.474  24.762  0.00  0.00    +0.056 C 
ATOM     19  C   UNL     1      -4.145   2.817  24.576  0.00  0.00    +0.102 C 
ATOM     20  C   UNL     1      -2.815   2.849  24.890  0.00  0.00    +0.041 A 
ATOM     21  C   UNL     1      -2.014   2.794  25.075  0.00  0.00    +0.013 A 
ATOM     22  C   UNL     1      -1.652   2.054  25.128  0.00  0.00    +0.006 A 
ATOM     23  C   UNL     1      -2.093   1.369  24.994  0.00  0.00    +0.062 A 
ATOM     29  C   UNL     1      -2.894   1.424  24.808  0.00  0.00    +0.261 A 
ATOM     30  O   UNL     1      -3.335   0.739  24.675  0.00  0.00    -0.267 OA
ATOM     31  N   UNL     1      -3.256   2.164  24.756  0.00  0.00    -0.299 N 
ATOM     32  C   UNL     1      -3.335   2.829  24.767  0.00  0.00    +0.110 C 
ENDROOT
BRANCH  23  24
ATOM     24  C   UNL     1      -1.731   0.630  25.047  0.00  0.00    +0.034 A 
ATOM     25  C   UNL     1      -1.709   0.148  25.716  0.00  0.00    +0.007 A 
ATOM     26  C   UNL     1      -1.292  -0.537  25.523  0.00  0.00    +0.007 A 
ATOM     27  C   UNL     1      -1.056  -0.478  24.734  0.00  0.00    +0.035 A 
ATOM     28  S   UNL     1      -1.328   0.243  24.440  0.00  0.00    -0.086 S 
ENDBRANCH  23  24
BRANCH  14  11
ATOM     11  S   UNL     1      -4.031   1.311  24.536  0.00  0.00    +0.063 S 
ATOM     12  O   UNL     1      -3.818   1.352  23.740  0.00  0.00    -0.153 OA
ATOM     13  O   UNL     1      -4.245   1.269  25.332  0.00  0.00    -0.153 OA
BRANCH  11   8
ATOM      5  C   UNL     1      -3.439  -1.092  24.569  0.00  0.00    +0.073 A 
ATOM      6  C   UNL     1      -3.363  -0.658  23.872  0.00  0.00    +0.018 A 
ATOM      7  C   UNL     1      -3.560   0.143  23.861  0.00  0.00    +0.021 A 
ATOM      8  C   UNL     1      -3.834   0.509  24.547  0.00  0.00    +0.122 A 
ATOM      9  C   UNL     1      -3.911   0.075  25.244  0.00  0.00    +0.021 A 
ATOM     10  C   UNL     1      -3.713  -0.726  25.255  0.00  0.00    +0.018 A 
BRANCH   5   4
ATOM      1  C   UNL     1      -3.567  -3.252  24.281  0.00  0.00    +0.097 C 
ATOM      2  C   UNL     1      -3.764  -2.451  24.270  0.00  0.00    +0.246 C 
ATOM      3  O   UNL     1      -4.484  -2.209  23.949  0.00  0.00    -0.273 OA
ATOM      4  N   UNL     1      -3.242  -1.894  24.580  0.00  0.00    -0.179 NA
ENDBRANCH   5   4
ENDBRANCH  11   8
ENDBRANCH  14  11
TORSDOF 4
ENDMDL
MODEL 6
REMARK VINA RESULT:     -13.7      1.515      4.080
REMARK  Name = 
REMARK  4 active torsions:
REMARK  status: ('A' for Active; 'I' for Inactive)
REMARK    1  A    between atoms: N_4  and  C_5
REMARK    2  A    between atoms: C_8  and  S_11
REMARK    3  A    between atoms: S_11  and  N_14
REMARK    4  A    between atoms: C_23  and  C_24
REMARK                            x       y       z     vdW  Elec       q    Type
REMARK                         _______ _______ _______ _____ _____    ______ ____
ROOT
ATOM     14  N   UNL     1      -3.610   3.087  24.972  0.00  0.00    -0.155 NA
ATOM     15  C   UNL     1      -3.857   3.874  25.107  0.00  0.00    +0.098 C 
ATOM     16  C   UNL     1      -4.809   3.714  25.319  0.00  0.00    +0.041 C 
ATOM     17  C   UNL     1      -5.600   3.752  25.511  0.00  0.00    +0.011 C 
ATOM     18  C   UNL     1      -5.128   3.258  25.351  0.00  0.00    +0.056 C 
ATOM     19  C   UNL     1      -4.210   3.428  25.148  0.00  0.00    +0.102 C 
ATOM     20  C   UNL     1      -5.044   2.349  25.243  0.00  0.00    +0.041 A 
ATOM     21  C   UNL     1      -5.489   1.656  25.283  0.00  0.00    +0.013 A 
ATOM     22  C   UNL     1      -5.133   0.928  25.127  0.00  0.00    +0.006 A 
ATOM     23  C   UNL     1      -4.331   0.894  24.933  0.00  0.00    +0.062 A 
ATOM     29  C   UNL     1      -3.887   1.587  24.893  0.00  0.00    +0.261 A 
ATOM     30  O   UNL     1      -3.085   1.553  24.699  0.00  0.00    -0.267 OA
ATOM     31  N   UNL     1      -4.243   2.315  25.049  0.00  0.00    -0.299 N 
ATOM     32  C   UNL     1      -4.712   2.766  25.204  0.00  0.00    +0.110 C 
ENDROOT
BRANCH  23  24
ATOM     24  C   UNL     1      -3.976   0.166  24.778  0.00  0.00    +0.034 A 
ATOM     25  C   UNL     1      -3.892  -0.184  24.035  0.00  0.00    +0.007 A 
ATOM     26  C   UNL     1      -3.507  -0.906  24.135  0.00  0.00    +0.007 A 
ATOM     27  C   UNL     1      -3.352  -1.003  24.940  0.00  0.00    +0.035 A 
ATOM     28  S   UNL     1      -3.642  -0.340  25.337  0.00  0.00    -0.086 S 
ENDBRANCH  23  24
BRANCH  14  11
ATOM     11  S   UNL     1      -3.106   2.459  24.791  0.00  0.00    +0.063 S 
ATOM     12  O   UNL     1      -3.306   2.529  23.993  0.00  0.00    -0.153 OA
ATOM     13  O   UNL     1      -2.907   2.389  25.589  0.00  0.00    -0.153 OA
BRANCH  11   8
ATOM      5  C   UNL     1      -1.596   0.575  24.249  0.00  0.00    +0.073 A 
ATOM      6  C   UNL     1      -1.684   0.821  25.031  0.00  0.00    +0.018 A 
ATOM      7  C   UNL     1      -2.188   1.449  25.212  0.00  0.00    +0.021 A 
ATOM      8  C   UNL     1      -2.603   1.831  24.610  0.00  0.00    +0.122 A 
ATOM      9  C   UNL     1      -2.515   1.585  23.828  0.00  0.00    +0.021 A 
ATOM     10  C   UNL     1      -2.011   0.957  23.647  0.00  0.00    +0.018 A 
BRANCH   5   4
ATOM      1  C   UNL     1       0.210  -0.539  23.738  0.00  0.00    +0.097 C 
ATOM      2  C   UNL     1      -0.293   0.089  23.919  0.00  0.00    +0.246 C 
ATOM      3  O   UNL     1       0.002   0.858  23.949  0.00  0.00    -0.273 OA
ATOM      4  N   UNL     1      -1.092  -0.053  24.068  0.00  0.00    -0.179 NA
ENDBRANCH   5   4
ENDBRANCH  11   8
ENDBRANCH  14  11
TORSDOF 4
ENDMDL
MODEL 7
REMARK VINA RESULT:     -13.4      2.329      3.871
REMARK  Name = 
REMARK  4 active torsions:
REMARK  status: ('A' for Active; 'I' for Inactive)
REMARK    1  A    between atoms: N_4  and  C_5
REMARK    2  A    between atoms: C_8  and  S_11
REMARK    3  A    between atoms: S_11  and  N_14
REMARK    4  A    between atoms: C_23  and  C_24
REMARK                            x       y       z     vdW  Elec       q    Type
REMARK                         _______ _______ _______ _____ _____    ______ ____
ROOT
ATOM     14  N   UNL     1      -4.302   1.767  24.736  0.00  0.00    -0.155 NA
ATOM     15  C   UNL     1      -5.127   1.636  24.755  0.00  0.00    +0.098 C 
ATOM     16  C   UNL     1      -5.414   2.459  25.220  0.00  0.00    +0.041 C 
ATOM     17  C   UNL     1      -5.807   3.071  25.586  0.00  0.00    +0.011 C 
ATOM     18  C   UNL     1      -5.145   2.902  25.426  0.00  0.00    +0.056 C 
ATOM     19  C   UNL     1      -4.883   2.102  24.975  0.00  0.00    +0.102 C 
ATOM     20  C   UNL     1      -4.283   3.212  25.500  0.00  0.00    +0.041 A 
ATOM     21  C   UNL     1      -3.857   3.854  25.795  0.00  0.00    +0.013 A 
ATOM     22  C   UNL     1      -3.036   3.873  25.718  0.00  0.00    +0.006 A 
ATOM     23  C   UNL     1      -2.641   3.251  25.347  0.00  0.00    +0.062 A 
ATOM     29  C   UNL     1      -3.068   2.609  25.052  0.00  0.00    +0.261 A 
ATOM     30  O   UNL     1      -2.673   1.987  24.681  0.00  0.00    -0.267 OA
ATOM     31  N   UNL     1      -3.889   2.590  25.129  0.00  0.00    -0.299 N 
ATOM     32  C   UNL     1      -4.511   2.775  25.293  0.00  0.00    +0.110 C 
ENDROOT
BRANCH  23  24
ATOM     24  C   UNL     1      -1.820   3.271  25.271  0.00  0.00    +0.034 A 
ATOM     25  C   UNL     1      -1.276   2.951  25.802  0.00  0.00    +0.007 A 
ATOM     26  C   UNL     1      -0.519   3.096  25.511  0.00  0.00    +0.007 A 
ATOM     27  C   UNL     1      -0.594   3.507  24.799  0.00  0.00    +0.035 A 
ATOM     28  S   UNL     1      -1.398   3.615  24.651  0.00  0.00    -0.086 S 
ENDBRANCH  23  24
BRANCH  14  11
ATOM     11  S   UNL     1      -3.504   1.627  24.578  0.00  0.00    +0.063 S 
ATOM     12  O   UNL     1      -3.430   1.232  25.299  0.00  0.00    -0.153 OA
ATOM     13  O   UNL     1      -3.577   2.023  23.858  0.00  0.00    -0.153 OA
BRANCH  11   8
ATOM      5  C   UNL     1      -1.111   1.210  24.105  0.00  0.00    +0.073 A 
ATOM      6  C   UNL     1      -1.441   0.953  24.815  0.00  0.00    +0.018 A 
ATOM      7  C   UNL     1      -2.239   1.093  24.974  0.00  0.00    +0.021 A 
ATOM      8  C   UNL     1      -2.705   1.488  24.420  0.00  0.00    +0.122 A 
ATOM      9  C   UNL     1      -2.375   1.744  23.709  0.00  0.00    +0.021 A 
ATOM     10  C   UNL     1      -1.577   1.605  23.551  0.00  0.00    +0.018 A 
BRANCH   5   4
ATOM      1  C   UNL     1       0.732   0.184  23.542  0.00  0.00    +0.097 C 
ATOM      2  C   UNL     1      -0.066   0.323  23.700  0.00  0.00    +0.246 C 
ATOM      3  O   UNL     1      -0.615  -0.285  23.611  0.00  0.00    -0.273 OA
ATOM      4  N   UNL     1      -0.313   1.070  23.947  0.00  0.00    -0.179 NA
ENDBRANCH   5   4
ENDBRANCH  11   8
ENDBRANCH  14  11
TORSDOF 4
ENDMDL
