MODEL 1
REMARK VINA RESULT:     -10.0      0.000      0.000
REMARK  Name = 
REMARK  4 active torsions:
REMARK  status: ('A' for Active; 'I' for Inactive)
REMARK    1  A    between atoms: O_2  and  C_3
REMARK    2  A    between atoms: C_3  and  C_4
REMARK    3  A    between atoms: C_4  and  N_5
REMARK    4  A    between atoms: N_9  and  C_15
REMARK                            x       y       z     vdW  Elec       q    Type
REMARK                         _______ _______ _______ _____ _____    ______ ____
ROOT
ATOM      5  N   UNL     1      -3.243   3.380  25.042  0.00  0.00    -0.260 N 
ATOM      6  C   UNL     1      -2.842   2.664  24.956  0.00  0.00    +0.116 C 
ATOM      7  C   UNL     1      -3.400   2.058  24.951  0.00  0.00    +0.113 C 
ATOM      8  C   UNL     1      -3.326   1.239  24.882  0.00  0.00    +0.094 C 
ATOM      9  N   UNL     1      -3.998   0.761  24.895  0.00  0.00    -0.271 NA
ATOM     10  C   UNL     1      -4.745   1.102  24.979  0.00  0.00    +0.094 C 
ATOM     11  C   UNL     1      -4.820   1.920  25.048  0.00  0.00    +0.112 C 
ATOM     12  N   UNL     1      -4.147   2.399  25.034  0.00  0.00    -0.261 N 
ATOM     13  C   UNL     1      -4.050   3.215  25.091  0.00  0.00    +0.307 C 
ATOM     14  O   UNL     1      -4.654   3.771  25.180  0.00  0.00    -0.252 OA
ENDROOT
BRANCH   9  15
ATOM     15  C   UNL     1      -3.924  -0.058  24.826  0.00  0.00    +0.061 C 
ATOM     16  C   UNL     1      -4.108  -0.429  24.113  0.00  0.00    +0.038 C 
ATOM     17  C   UNL     1      -4.035  -1.247  24.042  0.00  0.00    +0.095 C 
ATOM     18  N   UNL     1      -3.776  -1.695  24.686  0.00  0.00    -0.279 N 
ATOM     19  C   UNL     1      -3.591  -1.324  25.399  0.00  0.00    +0.095 C 
ATOM     20  C   UNL     1      -3.665  -0.505  25.468  0.00  0.00    +0.038 C 
ATOM     21  C   UNL     1      -3.703  -2.514  24.615  0.00  0.00    +0.226 C 
ATOM     22  C   UNL     1      -3.887  -2.885  23.902  0.00  0.00    +0.095 C 
ATOM     23  O   UNL     1      -3.444  -2.961  25.259  0.00  0.00    -0.275 OA
ENDBRANCH   9  15
BRANCH   5   4
ATOM      4  C   UNL     1      -2.898   4.129  25.075  0.00  0.00    +0.127 C 
BRANCH   4   3
ATOM      3  C   UNL     1      -2.079   4.204  25.136  0.00  0.00    +0.164 C 
BRANCH   3   2
ATOM      1  C   UNL     1      -0.985   5.110  24.981  0.00  0.00    +0.174 C 
ATOM      2  O   UNL     1      -1.741   4.945  25.268  0.00  0.00    -0.349 OA
ENDBRANCH   3   2
ENDBRANCH   4   3
ENDBRANCH   5   4
TORSDOF 4
ENDMDL
MODEL 2
REMARK VINA RESULT:      -8.3      1.824      2.393
REMARK  Name = 
REMARK  4 active torsions:
REMARK  status: ('A' for Active; 'I' for Inactive)
REMARK    1  A    between atoms: O_2  and  C_3
REMARK    2  A    between atoms: C_3  and  C_4
REMARK    3  A    between atoms: C_4  and  N_5
REMARK    4  A    between atoms: N_9  and  C_15
REMARK                            x       y       z     vdW  Elec       q    Type
REMARK                         _______ _______ _______ _____ _____    ______ ____
ROOT
ATOM      5  N   UNL     1      -0.812   2.848  25.242  0.00  0.00    -0.260 N 
ATOM      6  C   UNL     1      -1.475   2.517  24.877  0.00  0.00    +0.116 C 
ATOM      7  C   UNL     1      -1.472   1.707  25.031  0.00  0.00    +0.113 C 
ATOM      8  C   UNL     1      -1.988   1.101  24.812  0.00  0.00    +0.094 C 
ATOM      9  N   UNL     1      -1.842   0.327  25.053  0.00  0.00    -0.271 NA
ATOM     10  C   UNL     1      -1.178   0.157  25.513  0.00  0.00    +0.094 C 
ATOM     11  C   UNL     1      -0.662   0.761  25.733  0.00  0.00    +0.112 C 
ATOM     12  N   UNL     1      -0.809   1.537  25.491  0.00  0.00    -0.261 N 
ATOM     13  C   UNL     1      -0.401   2.241  25.622  0.00  0.00    +0.307 C 
ATOM     14  O   UNL     1       0.296   2.326  26.056  0.00  0.00    -0.252 OA
ENDROOT
BRANCH   9  15
ATOM     15  C   UNL     1      -2.357  -0.279  24.834  0.00  0.00    +0.061 C 
ATOM     16  C   UNL     1      -2.135  -1.067  24.935  0.00  0.00    +0.038 C 
ATOM     17  C   UNL     1      -2.649  -1.673  24.717  0.00  0.00    +0.095 C 
ATOM     18  N   UNL     1      -3.388  -1.491  24.397  0.00  0.00    -0.279 N 
ATOM     19  C   UNL     1      -3.611  -0.703  24.295  0.00  0.00    +0.095 C 
ATOM     20  C   UNL     1      -3.095  -0.098  24.514  0.00  0.00    +0.038 C 
ATOM     21  C   UNL     1      -3.903  -2.097  24.178  0.00  0.00    +0.226 C 
ATOM     22  C   UNL     1      -3.680  -2.885  24.280  0.00  0.00    +0.095 C 
ATOM     23  O   UNL     1      -4.642  -1.915  23.858  0.00  0.00    -0.275 OA
ENDBRANCH   9  15
BRANCH   5   4
ATOM      4  C   UNL     1      -0.599   3.644  25.229  0.00  0.00    +0.127 C 
BRANCH   4   3
ATOM      3  C   UNL     1      -1.166   4.221  25.067  0.00  0.00    +0.164 C 
BRANCH   3   2
ATOM      1  C   UNL     1      -1.533   5.602  25.049  0.00  0.00    +0.174 C 
ATOM      2  O   UNL     1      -0.951   5.017  25.043  0.00  0.00    -0.349 OA
ENDBRANCH   3   2
ENDBRANCH   4   3
ENDBRANCH   5   4
TORSDOF 4
ENDMDL
MODEL 3
REMARK VINA RESULT:      -8.3      2.850      4.408
REMARK  Name = 
REMARK  4 active torsions:
REMARK  status: ('A' for Active; 'I' for Inactive)
REMARK    1  A    between atoms: O_2  and  C_3
REMARK    2  A    between atoms: C_3  and  C_4
REMARK    3  A    between atoms: C_4  and  N_5
REMARK    4  A    between atoms: N_9  and  C_15
REMARK                            x       y       z     vdW  Elec       q    Type
REMARK                         _______ _______ _______ _____ _____    ______ ____
ROOT
ATOM      5  N   UNL     1      -0.220  -0.309  24.052  0.00  0.00    -0.260 N 
ATOM      6  C   UNL     1      -0.725   0.309  23.844  0.00  0.00    +0.116 C 
ATOM      7  C   UNL     1      -1.404   0.249  24.308  0.00  0.00    +0.113 C 
ATOM      8  C   UNL     1      -2.091   0.706  24.344  0.00  0.00    +0.094 C 
ATOM      9  N   UNL     1      -2.690   0.509  24.875  0.00  0.00    -0.271 NA
ATOM     10  C   UNL     1      -2.604  -0.146  25.369  0.00  0.00    +0.094 C 
ATOM     11  C   UNL     1      -1.919  -0.604  25.333  0.00  0.00    +0.112 C 
ATOM     12  N   UNL     1      -1.319  -0.406  24.802  0.00  0.00    -0.261 N 
ATOM     13  C   UNL     1      -0.587  -0.751  24.643  0.00  0.00    +0.307 C 
ATOM     14  O   UNL     1      -0.276  -1.420  25.013  0.00  0.00    -0.252 OA
ENDROOT
BRANCH   9  15
ATOM     15  C   UNL     1      -3.376   0.966  24.911  0.00  0.00    +0.061 C 
ATOM     16  C   UNL     1      -4.116   0.601  24.888  0.00  0.00    +0.038 C 
ATOM     17  C   UNL     1      -4.803   1.056  24.925  0.00  0.00    +0.095 C 
ATOM     18  N   UNL     1      -4.749   1.878  24.985  0.00  0.00    -0.279 N 
ATOM     19  C   UNL     1      -4.010   2.243  25.008  0.00  0.00    +0.095 C 
ATOM     20  C   UNL     1      -3.323   1.786  24.971  0.00  0.00    +0.038 C 
ATOM     21  C   UNL     1      -5.436   2.334  25.022  0.00  0.00    +0.226 C 
ATOM     22  C   UNL     1      -6.175   1.969  24.998  0.00  0.00    +0.095 C 
ATOM     23  O   UNL     1      -5.382   3.155  25.082  0.00  0.00    -0.275 OA
ENDBRANCH   9  15
BRANCH   5   4
ATOM      4  C   UNL     1       0.523  -0.459  23.724  0.00  0.00    +0.127 C 
BRANCH   4   3
ATOM      3  C   UNL     1       0.814   0.025  23.123  0.00  0.00    +0.164 C 
BRANCH   3   2
ATOM      1  C   UNL     1       2.118   0.094  22.543  0.00  0.00    +0.174 C 
ATOM      2  O   UNL     1       1.377  -0.266  22.595  0.00  0.00    -0.349 OA
ENDBRANCH   3   2
ENDBRANCH   4   3
ENDBRANCH   5   4
TORSDOF 4
ENDMDL
MODEL 4
REMARK VINA RESULT:      -8.2      1.863      5.601
REMARK  Name = 
REMARK  4 active torsions:
REMARK  status: ('A' for Active; 'I' for Inactive)
REMARK    1  A    between atoms: O_2  and  C_3
REMARK    2  A    between atoms: C_3  and  C_4
REMARK    3  A    between atoms: C_4  and  N_5
REMARK    4  A    between atoms: N_9  and  C_15
REMARK                            x       y       z     vdW  Elec       q    Type
REMARK                         _______ _______ _______ _____ _____    ______ ____
ROOT
ATOM      5  N   UNL     1      -2.271  -0.879  24.902  0.00  0.00    -0.260 N 
ATOM      6  C   UNL     1      -2.550  -0.127  24.704  0.00  0.00    +0.116 C 
ATOM      7  C   UNL     1      -1.992   0.425  24.956  0.00  0.00    +0.113 C 
ATOM      8  C   UNL     1      -1.970   1.249  24.909  0.00  0.00    +0.094 C 
ATOM      9  N   UNL     1      -1.327   1.663  25.216  0.00  0.00    -0.271 NA
ATOM     10  C   UNL     1      -0.703   1.253  25.569  0.00  0.00    +0.094 C 
ATOM     11  C   UNL     1      -0.724   0.430  25.615  0.00  0.00    +0.112 C 
ATOM     12  N   UNL     1      -1.369   0.016  25.309  0.00  0.00    -0.261 N 
ATOM     13  C   UNL     1      -1.542  -0.790  25.275  0.00  0.00    +0.307 C 
ATOM     14  O   UNL     1      -1.067  -1.400  25.565  0.00  0.00    -0.252 OA
ENDROOT
BRANCH   9  15
ATOM     15  C   UNL     1      -1.305   2.486  25.169  0.00  0.00    +0.061 C 
ATOM     16  C   UNL     1      -1.946   2.931  25.436  0.00  0.00    +0.038 C 
ATOM     17  C   UNL     1      -1.926   3.754  25.391  0.00  0.00    +0.095 C 
ATOM     18  N   UNL     1      -1.263   4.133  25.077  0.00  0.00    -0.279 N 
ATOM     19  C   UNL     1      -0.621   3.689  24.810  0.00  0.00    +0.095 C 
ATOM     20  C   UNL     1      -0.643   2.865  24.856  0.00  0.00    +0.038 C 
ATOM     21  C   UNL     1      -1.242   4.957  25.031  0.00  0.00    +0.226 C 
ATOM     22  C   UNL     1      -1.884   5.401  25.299  0.00  0.00    +0.095 C 
ATOM     23  O   UNL     1      -0.579   5.336  24.718  0.00  0.00    -0.275 OA
ENDBRANCH   9  15
BRANCH   5   4
ATOM      4  C   UNL     1      -2.656  -1.593  24.752  0.00  0.00    +0.127 C 
BRANCH   4   3
ATOM      3  C   UNL     1      -3.417  -1.594  24.435  0.00  0.00    +0.164 C 
BRANCH   3   2
ATOM      1  C   UNL     1      -4.362  -2.444  23.782  0.00  0.00    +0.174 C 
ATOM      2  O   UNL     1      -3.856  -2.292  24.416  0.00  0.00    -0.349 OA
ENDBRANCH   3   2
ENDBRANCH   4   3
ENDBRANCH   5   4
TORSDOF 4
ENDMDL
MODEL 5
REMARK VINA RESULT:      -7.9      1.068      5.166
REMARK  Name = 
REMARK  4 active torsions:
REMARK  status: ('A' for Active; 'I' for Inactive)
REMARK    1  A    between atoms: O_2  and  C_3
REMARK    2  A    between atoms: C_3  and  C_4
REMARK    3  A    between atoms: C_4  and  N_5
REMARK    4  A    between atoms: N_9  and  C_15
REMARK                            x       y       z     vdW  Elec       q    Type
REMARK                         _______ _______ _______ _____ _____    ______ ____
ROOT
ATOM      5  N   UNL     1      -3.746  -0.473  24.922  0.00  0.00    -0.260 N 
ATOM      6  C   UNL     1      -3.049  -0.048  25.044  0.00  0.00    +0.116 C 
ATOM      7  C   UNL     1      -3.215   0.751  24.925  0.00  0.00    +0.113 C 
ATOM      8  C   UNL     1      -2.742   1.425  24.969  0.00  0.00    +0.094 C 
ATOM      9  N   UNL     1      -3.066   2.168  24.817  0.00  0.00    -0.271 NA
ATOM     10  C   UNL     1      -3.864   2.237  24.621  0.00  0.00    +0.094 C 
ATOM     11  C   UNL     1      -4.338   1.563  24.577  0.00  0.00    +0.112 C 
ATOM     12  N   UNL     1      -4.013   0.819  24.729  0.00  0.00    -0.261 N 
ATOM     13  C   UNL     1      -4.341   0.063  24.727  0.00  0.00    +0.307 C 
ATOM     14  O   UNL     1      -5.128  -0.124  24.560  0.00  0.00    -0.252 OA
ENDROOT
BRANCH   9  15
ATOM     15  C   UNL     1      -2.593   2.842  24.862  0.00  0.00    +0.061 C 
ATOM     16  C   UNL     1      -1.828   2.830  24.553  0.00  0.00    +0.038 C 
ATOM     17  C   UNL     1      -1.354   3.504  24.596  0.00  0.00    +0.095 C 
ATOM     18  N   UNL     1      -1.646   4.191  24.949  0.00  0.00    -0.279 N 
ATOM     19  C   UNL     1      -2.411   4.203  25.258  0.00  0.00    +0.095 C 
ATOM     20  C   UNL     1      -2.884   3.528  25.214  0.00  0.00    +0.038 C 
ATOM     21  C   UNL     1      -1.172   4.865  24.993  0.00  0.00    +0.226 C 
ATOM     22  C   UNL     1      -0.407   4.852  24.684  0.00  0.00    +0.095 C 
ATOM     23  O   UNL     1      -1.464   5.552  25.346  0.00  0.00    -0.275 OA
ENDBRANCH   9  15
BRANCH   5   4
ATOM      4  C   UNL     1      -3.832  -1.292  24.984  0.00  0.00    +0.127 C 
BRANCH   4   3
ATOM      3  C   UNL     1      -3.206  -1.789  24.783  0.00  0.00    +0.164 C 
BRANCH   3   2
ATOM      1  C   UNL     1      -3.302  -3.185  24.493  0.00  0.00    +0.174 C 
ATOM      2  O   UNL     1      -3.202  -2.573  25.038  0.00  0.00    -0.349 OA
ENDBRANCH   3   2
ENDBRANCH   4   3
ENDBRANCH   5   4
TORSDOF 4
ENDMDL
MODEL 6
REMARK VINA RESULT:      -7.7      3.392      5.102
REMARK  Name = 
REMARK  4 active torsions:
REMARK  status: ('A' for Active; 'I' for Inactive)
REMARK    1  A    between atoms: O_2  and  C_3
REMARK    2  A    between atoms: C_3  and  C_4
REMARK    3  A    between atoms: C_4  and  N_5
REMARK    4  A    between atoms: N_9  and  C_15
REMARK                            x       y       z     vdW  Elec       q    Type
REMARK                         _______ _______ _______ _____ _____    ______ ____
ROOT
ATOM      5  N   UNL     1       0.403  -0.009  23.462  0.00  0.00    -0.260 N 
ATOM      6  C   UNL     1       0.139   0.773  23.480  0.00  0.00    +0.116 C 
ATOM      7  C   UNL     1      -0.516   0.808  23.980  0.00  0.00    +0.113 C 
ATOM      8  C   UNL     1      -1.004   1.433  24.208  0.00  0.00    +0.094 C 
ATOM      9  N   UNL     1      -1.631   1.299  24.726  0.00  0.00    -0.271 NA
ATOM     10  C   UNL     1      -1.771   0.540  25.017  0.00  0.00    +0.094 C 
ATOM     11  C   UNL     1      -1.284  -0.086  24.790  0.00  0.00    +0.112 C 
ATOM     12  N   UNL     1      -0.656   0.048  24.271  0.00  0.00    -0.261 N 
ATOM     13  C   UNL     1      -0.088  -0.456  23.951  0.00  0.00    +0.307 C 
ATOM     14  O   UNL     1      -0.022  -1.266  24.094  0.00  0.00    -0.252 OA
ENDROOT
BRANCH   9  15
ATOM     15  C   UNL     1      -2.119   1.925  24.955  0.00  0.00    +0.061 C 
ATOM     16  C   UNL     1      -1.812   2.543  25.406  0.00  0.00    +0.038 C 
ATOM     17  C   UNL     1      -2.298   3.169  25.634  0.00  0.00    +0.095 C 
ATOM     18  N   UNL     1      -3.093   3.175  25.412  0.00  0.00    -0.279 N 
ATOM     19  C   UNL     1      -3.401   2.556  24.961  0.00  0.00    +0.095 C 
ATOM     20  C   UNL     1      -2.913   1.931  24.733  0.00  0.00    +0.038 C 
ATOM     21  C   UNL     1      -3.580   3.801  25.641  0.00  0.00    +0.226 C 
ATOM     22  C   UNL     1      -3.273   4.420  26.092  0.00  0.00    +0.095 C 
ATOM     23  O   UNL     1      -4.375   3.807  25.418  0.00  0.00    -0.275 OA
ENDBRANCH   9  15
BRANCH   5   4
ATOM      4  C   UNL     1       1.047  -0.293  23.031  0.00  0.00    +0.127 C 
BRANCH   4   3
ATOM      3  C   UNL     1       1.674   0.210  22.845  0.00  0.00    +0.164 C 
BRANCH   3   2
ATOM      1  C   UNL     1       3.046   0.268  22.451  0.00  0.00    +0.174 C 
ATOM      2  O   UNL     1       2.293  -0.059  22.371  0.00  0.00    -0.349 OA
ENDBRANCH   3   2
ENDBRANCH   4   3
ENDBRANCH   5   4
TORSDOF 4
ENDMDL
MODEL 7
REMARK VINA RESULT:      -7.6      1.237      2.009
REMARK  Name = 
REMARK  4 active torsions:
REMARK  status: ('A' for Active; 'I' for Inactive)
REMARK    1  A    between atoms: O_2  and  C_3
REMARK    2  A    between atoms: C_3  and  C_4
REMARK    3  A    between atoms: C_4  and  N_5
REMARK    4  A    between atoms: N_9  and  C_15
REMARK                            x       y       z     vdW  Elec       q    Type
REMARK                         _______ _______ _______ _____ _____    ______ ____
ROOT
ATOM      5  N   UNL     1      -4.344   3.043  25.106  0.00  0.00    -0.260 N 
ATOM      6  C   UNL     1      -4.659   2.294  25.253  0.00  0.00    +0.116 C 
ATOM      7  C   UNL     1      -4.153   1.735  24.918  0.00  0.00    +0.113 C 
ATOM      8  C   UNL     1      -4.181   0.911  24.889  0.00  0.00    +0.094 C 
ATOM      9  N   UNL     1      -3.584   0.490  24.508  0.00  0.00    -0.271 NA
ATOM     10  C   UNL     1      -2.956   0.893  24.155  0.00  0.00    +0.094 C 
ATOM     11  C   UNL     1      -2.927   1.717  24.183  0.00  0.00    +0.112 C 
ATOM     12  N   UNL     1      -3.525   2.138  24.565  0.00  0.00    -0.261 N 
ATOM     13  C   UNL     1      -3.643   2.946  24.681  0.00  0.00    +0.307 C 
ATOM     14  O   UNL     1      -3.148   3.552  24.418  0.00  0.00    -0.252 OA
ENDROOT
BRANCH   9  15
ATOM     15  C   UNL     1      -3.612  -0.334  24.479  0.00  0.00    +0.061 C 
ATOM     16  C   UNL     1      -3.165  -0.780  25.008  0.00  0.00    +0.038 C 
ATOM     17  C   UNL     1      -3.192  -1.604  24.980  0.00  0.00    +0.095 C 
ATOM     18  N   UNL     1      -3.669  -1.982  24.422  0.00  0.00    -0.279 N 
ATOM     19  C   UNL     1      -4.117  -1.535  23.892  0.00  0.00    +0.095 C 
ATOM     20  C   UNL     1      -4.088  -0.711  23.921  0.00  0.00    +0.038 C 
ATOM     21  C   UNL     1      -3.697  -2.806  24.394  0.00  0.00    +0.226 C 
ATOM     22  C   UNL     1      -3.249  -3.252  24.923  0.00  0.00    +0.095 C 
ATOM     23  O   UNL     1      -4.173  -3.183  23.835  0.00  0.00    -0.275 OA
ENDBRANCH   9  15
BRANCH   5   4
ATOM      4  C   UNL     1      -4.672   3.762  25.343  0.00  0.00    +0.127 C 
BRANCH   4   3
ATOM      3  C   UNL     1      -5.487   3.829  25.447  0.00  0.00    +0.164 C 
BRANCH   3   2
ATOM      1  C   UNL     1      -6.254   5.034  25.493  0.00  0.00    +0.174 C 
ATOM      2  O   UNL     1      -5.798   4.461  25.876  0.00  0.00    -0.349 OA
ENDBRANCH   3   2
ENDBRANCH   4   3
ENDBRANCH   5   4
TORSDOF 4
ENDMDL
MODEL 8
REMARK VINA RESULT:      -7.6      2.821      4.418
REMARK  Name = 
REMARK  4 active torsions:
REMARK  status: ('A' for Active; 'I' for Inactive)
REMARK    1  A    between atoms: O_2  and  C_3
REMARK    2  A    between atoms: C_3  and  C_4
REMARK    3  A    between atoms: C_4  and  N_5
REMARK    4  A    between atoms: N_9  and  C_15
REMARK                            x       y       z     vdW  Elec       q    Type
REMARK                         _______ _______ _______ _____ _____    ______ ____
ROOT
ATOM      5  N   UNL     1       0.099   1.190  24.046  0.00  0.00    -0.260 N 
ATOM      6  C   UNL     1      -0.697   1.034  23.890  0.00  0.00    +0.116 C 
ATOM      7  C   UNL     1      -1.151   1.550  24.346  0.00  0.00    +0.113 C 
ATOM      8  C   UNL     1      -1.967   1.649  24.421  0.00  0.00    +0.094 C 
ATOM      9  N   UNL     1      -2.268   2.222  24.931  0.00  0.00    -0.271 NA
ATOM     10  C   UNL     1      -1.754   2.697  25.368  0.00  0.00    +0.094 C 
ATOM     11  C   UNL     1      -0.938   2.598  25.295  0.00  0.00    +0.112 C 
ATOM     12  N   UNL     1      -0.637   2.024  24.783  0.00  0.00    -0.261 N 
ATOM     13  C   UNL     1       0.135   1.802  24.598  0.00  0.00    +0.307 C 
ATOM     14  O   UNL     1       0.824   2.134  24.909  0.00  0.00    -0.252 OA
ENDROOT
BRANCH   9  15
ATOM     15  C   UNL     1      -3.084   2.321  25.005  0.00  0.00    +0.061 C 
ATOM     16  C   UNL     1      -3.587   1.673  24.921  0.00  0.00    +0.038 C 
ATOM     17  C   UNL     1      -4.403   1.771  24.995  0.00  0.00    +0.095 C 
ATOM     18  N   UNL     1      -4.715   2.519  25.154  0.00  0.00    -0.279 N 
ATOM     19  C   UNL     1      -4.212   3.167  25.238  0.00  0.00    +0.095 C 
ATOM     20  C   UNL     1      -3.396   3.068  25.164  0.00  0.00    +0.038 C 
ATOM     21  C   UNL     1      -5.531   2.617  25.228  0.00  0.00    +0.226 C 
ATOM     22  C   UNL     1      -6.034   1.969  25.143  0.00  0.00    +0.095 C 
ATOM     23  O   UNL     1      -5.843   3.365  25.387  0.00  0.00    -0.275 OA
ENDBRANCH   9  15
BRANCH   5   4
ATOM      4  C   UNL     1       0.744   0.802  23.708  0.00  0.00    +0.127 C 
BRANCH   4   3
ATOM      3  C   UNL     1       0.623   0.228  23.128  0.00  0.00    +0.164 C 
BRANCH   3   2
ATOM      1  C   UNL     1       1.489  -0.281  22.112  0.00  0.00    +0.174 C 
ATOM      2  O   UNL     1       1.244  -0.265  22.900  0.00  0.00    -0.349 OA
ENDBRANCH   3   2
ENDBRANCH   4   3
ENDBRANCH   5   4
TORSDOF 4
ENDMDL
MODEL 9
REMARK VINA RESULT:      -7.2      1.664      4.846
REMARK  Name = 
REMARK  4 active torsions:
REMARK  status: ('A' for Active; 'I' for Inactive)
REMARK    1  A    between atoms: O_2  and  C_3
REMARK    2  A    between atoms: C_3  and  C_4
REMARK    3  A    between atoms: C_4  and  N_5
REMARK    4  A    between atoms: N_9  and  C_15
REMARK                            x       y       z     vdW  Elec       q    Type
REMARK                         _______ _______ _______ _____ _____    ______ ____
ROOT
ATOM      5  N   UNL     1      -2.501  -1.563  24.687  0.00  0.00    -0.260 N 
ATOM      6  C   UNL     1      -2.439  -0.788  24.965  0.00  0.00    +0.116 C 
ATOM      7  C   UNL     1      -3.159  -0.410  24.830  0.00  0.00    +0.113 C 
ATOM      8  C   UNL     1      -3.419   0.356  24.990  0.00  0.00    +0.094 C 
ATOM      9  N   UNL     1      -4.186   0.582  24.789  0.00  0.00    -0.271 NA
ATOM     10  C   UNL     1      -4.694   0.042  24.428  0.00  0.00    +0.094 C 
ATOM     11  C   UNL     1      -4.435  -0.725  24.268  0.00  0.00    +0.112 C 
ATOM     12  N   UNL     1      -3.667  -0.951  24.470  0.00  0.00    -0.261 N 
ATOM     13  C   UNL     1      -3.261  -1.663  24.381  0.00  0.00    +0.307 C 
ATOM     14  O   UNL     1      -3.561  -2.354  24.045  0.00  0.00    -0.252 OA
ENDROOT
BRANCH   9  15
ATOM     15  C   UNL     1      -4.446   1.349  24.948  0.00  0.00    +0.061 C 
ATOM     16  C   UNL     1      -3.995   1.996  24.706  0.00  0.00    +0.038 C 
ATOM     17  C   UNL     1      -4.254   2.763  24.865  0.00  0.00    +0.095 C 
ATOM     18  N   UNL     1      -4.965   2.883  25.267  0.00  0.00    -0.279 N 
ATOM     19  C   UNL     1      -5.416   2.236  25.509  0.00  0.00    +0.095 C 
ATOM     20  C   UNL     1      -5.156   1.469  25.350  0.00  0.00    +0.038 C 
ATOM     21  C   UNL     1      -5.224   3.650  25.425  0.00  0.00    +0.226 C 
ATOM     22  C   UNL     1      -4.773   4.296  25.183  0.00  0.00    +0.095 C 
ATOM     23  O   UNL     1      -5.936   3.769  25.827  0.00  0.00    -0.275 OA
ENDBRANCH   9  15
BRANCH   5   4
ATOM      4  C   UNL     1      -1.908  -2.136  24.711  0.00  0.00    +0.127 C 
BRANCH   4   3
ATOM      3  C   UNL     1      -1.158  -1.942  24.994  0.00  0.00    +0.164 C 
BRANCH   3   2
ATOM      1  C   UNL     1       0.163  -2.339  25.365  0.00  0.00    +0.174 C 
ATOM      2  O   UNL     1      -0.568  -2.518  25.026  0.00  0.00    -0.349 OA
ENDBRANCH   3   2
ENDBRANCH   4   3
ENDBRANCH   5   4
TORSDOF 4
ENDMDL
MODEL 10
REMARK VINA RESULT:      -6.8      2.668      3.647
REMARK  Name = 
REMARK  4 active torsions:
REMARK  status: ('A' for Active; 'I' for Inactive)
REMARK    1  A    between atoms: O_2  and  C_3
REMARK    2  A    between atoms: C_3  and  C_4
REMARK    3  A    between atoms: C_4  and  N_5
REMARK    4  A    between atoms: N_9  and  C_15
REMARK                            x       y       z     vdW  Elec       q    Type
REMARK                         _______ _______ _______ _____ _____    ______ ____
ROOT
ATOM      5  N   UNL     1      -3.615   3.355  25.510  0.00  0.00    -0.260 N 
ATOM      6  C   UNL     1      -3.431   2.704  25.037  0.00  0.00    +0.116 C 
ATOM      7  C   UNL     1      -2.615   2.590  25.066  0.00  0.00    +0.113 C 
ATOM      8  C   UNL     1      -2.122   2.033  24.710  0.00  0.00    +0.094 C 
ATOM      9  N   UNL     1      -1.309   2.056  24.844  0.00  0.00    -0.271 NA
ATOM     10  C   UNL     1      -0.988   2.636  25.334  0.00  0.00    +0.094 C 
ATOM     11  C   UNL     1      -1.480   3.194  25.690  0.00  0.00    +0.112 C 
ATOM     12  N   UNL     1      -2.294   3.171  25.557  0.00  0.00    -0.261 N 
ATOM     13  C   UNL     1      -2.912   3.643  25.830  0.00  0.00    +0.307 C 
ATOM     14  O   UNL     1      -2.839   4.291  26.337  0.00  0.00    -0.252 OA
ENDROOT
BRANCH   9  15
ATOM     15  C   UNL     1      -0.816   1.498  24.487  0.00  0.00    +0.061 C 
ATOM     16  C   UNL     1      -0.179   1.747  24.025  0.00  0.00    +0.038 C 
ATOM     17  C   UNL     1       0.315   1.191  23.669  0.00  0.00    +0.095 C 
ATOM     18  N   UNL     1       0.171   0.385  23.774  0.00  0.00    -0.279 N 
ATOM     19  C   UNL     1      -0.465   0.136  24.236  0.00  0.00    +0.095 C 
ATOM     20  C   UNL     1      -0.959   0.693  24.592  0.00  0.00    +0.038 C 
ATOM     21  C   UNL     1       0.665  -0.172  23.417  0.00  0.00    +0.226 C 
ATOM     22  C   UNL     1       1.302   0.077  22.956  0.00  0.00    +0.095 C 
ATOM     23  O   UNL     1       0.522  -0.978  23.523  0.00  0.00    -0.275 OA
ENDBRANCH   9  15
BRANCH   5   4
ATOM      4  C   UNL     1      -4.369   3.664  25.638  0.00  0.00    +0.127 C 
BRANCH   4   3
ATOM      3  C   UNL     1      -5.036   3.227  25.427  0.00  0.00    +0.164 C 
BRANCH   3   2
ATOM      1  C   UNL     1      -6.310   2.766  25.878  0.00  0.00    +0.174 C 
ATOM      2  O   UNL     1      -5.760   3.374  25.794  0.00  0.00    -0.349 OA
ENDBRANCH   3   2
ENDBRANCH   4   3
ENDBRANCH   5   4
TORSDOF 4
ENDMDL
