MODEL 1
REMARK VINA RESULT:     -14.2      0.000      0.000
REMARK  Name = 
REMARK  2 active torsions:
REMARK  status: ('A' for Active; 'I' for Inactive)
REMARK    1  A    between atoms: C_2  and  C_26
REMARK    2  A    between atoms: C_15  and  C_20
REMARK                            x       y       z     vdW  Elec       q    Type
REMARK                         _______ _______ _______ _____ _____    ______ ____
ROOT
ATOM      1  O   UNL     1       0.141   3.451  25.645  0.00  0.00    -0.269 OA
ATOM      2  C   UNL     1      -0.647   3.456  25.398  0.00  0.00    +0.255 C 
ATOM      3  N   UNL     1      -1.045   2.744  25.276  0.00  0.00    -0.272 N 
ATOM      4  C   UNL     1      -0.656   2.027  25.400  0.00  0.00    +0.115 C 
ATOM      5  C   UNL     1      -1.054   1.315  25.278  0.00  0.00    +0.116 C 
ATOM      6  N   UNL     1      -1.842   1.320  25.031  0.00  0.00    -0.266 N 
ATOM      7  C   UNL     1      -2.230   2.037  24.907  0.00  0.00    +0.174 C 
ATOM      8  C   UNL     1      -1.832   2.748  25.030  0.00  0.00    +0.123 C 
ATOM      9  C   UNL     1      -3.009   2.164  24.663  0.00  0.00    +0.265 C 
ATOM     10  O   UNL     1      -3.235   2.953  24.590  0.00  0.00    -0.271 OA
ATOM     11  N   UNL     1      -3.589   1.606  24.484  0.00  0.00    -0.178 NA
ATOM     12  C   UNL     1      -3.535   0.783  24.503  0.00  0.00    +0.078 A 
ATOM     13  C   UNL     1      -4.247   0.429  24.282  0.00  0.00    +0.017 A 
ATOM     14  C   UNL     1      -4.311  -0.393  24.265  0.00  0.00    +0.001 A 
ATOM     15  C   UNL     1      -3.664  -0.861  24.469  0.00  0.00    +0.000 A 
ATOM     16  C   UNL     1      -2.952  -0.508  24.690  0.00  0.00    +0.006 A 
ATOM     17  C   UNL     1      -2.889   0.315  24.707  0.00  0.00    +0.069 A 
ATOM     18  C   UNL     1      -2.134   0.554  24.943  0.00  0.00    +0.251 C 
ATOM     19  O   UNL     1      -1.602  -0.054  25.111  0.00  0.00    -0.270 OA
ENDROOT
BRANCH  15  20
ATOM     20  C   UNL     1      -3.729  -1.684  24.451  0.00  0.00    +0.000 A 
ATOM     21  C   UNL     1      -4.076  -2.057  23.803  0.00  0.00    +0.000 A 
ATOM     22  C   UNL     1      -4.141  -2.879  23.786  0.00  0.00    +0.000 A 
ATOM     23  C   UNL     1      -3.857  -3.328  24.418  0.00  0.00    +0.000 A 
ATOM     24  C   UNL     1      -3.509  -2.955  25.066  0.00  0.00    +0.000 A 
ATOM     25  C   UNL     1      -3.444  -2.133  25.083  0.00  0.00    +0.000 A 
ENDBRANCH  15  20
BRANCH   2  26
ATOM     26  C   UNL     1      -1.036   4.173  25.274  0.00  0.00    +0.083 A 
ATOM     27  C   UNL     1      -1.635   4.488  25.745  0.00  0.00    +0.012 A 
ATOM     28  C   UNL     1      -1.863   5.210  25.419  0.00  0.00    +0.008 A 
ATOM     29  C   UNL     1      -1.404   5.342  24.746  0.00  0.00    +0.036 A 
ATOM     30  S   UNL     1      -0.893   4.701  24.656  0.00  0.00    -0.082 S 
ENDBRANCH   2  26
TORSDOF 2
ENDMDL
MODEL 2
REMARK VINA RESULT:     -14.0      1.694      5.610
REMARK  Name = 
REMARK  2 active torsions:
REMARK  status: ('A' for Active; 'I' for Inactive)
REMARK    1  A    between atoms: C_2  and  C_26
REMARK    2  A    between atoms: C_15  and  C_20
REMARK                            x       y       z     vdW  Elec       q    Type
REMARK                         _______ _______ _______ _____ _____    ______ ____
ROOT
ATOM      1  O   UNL     1      -4.685  -1.396  23.876  0.00  0.00    -0.269 OA
ATOM      2  C   UNL     1      -3.967  -1.330  24.277  0.00  0.00    +0.255 C 
ATOM      3  N   UNL     1      -3.618  -0.590  24.379  0.00  0.00    -0.272 N 
ATOM      4  C   UNL     1      -3.987   0.085  24.080  0.00  0.00    +0.115 C 
ATOM      5  C   UNL     1      -3.638   0.826  24.181  0.00  0.00    +0.116 C 
ATOM      6  N   UNL     1      -2.920   0.891  24.583  0.00  0.00    -0.266 N 
ATOM      7  C   UNL     1      -2.551   0.217  24.882  0.00  0.00    +0.174 C 
ATOM      8  C   UNL     1      -2.900  -0.524  24.780  0.00  0.00    +0.123 C 
ATOM      9  C   UNL     1      -1.839   0.161  25.296  0.00  0.00    +0.265 C 
ATOM     10  O   UNL     1      -1.617  -0.600  25.523  0.00  0.00    -0.271 OA
ATOM     11  N   UNL     1      -1.321   0.765  25.512  0.00  0.00    -0.178 NA
ATOM     12  C   UNL     1      -1.386   1.574  25.368  0.00  0.00    +0.078 A 
ATOM     13  C   UNL     1      -0.744   1.989  25.680  0.00  0.00    +0.017 A 
ATOM     14  C   UNL     1      -0.702   2.808  25.596  0.00  0.00    +0.001 A 
ATOM     15  C   UNL     1      -1.301   3.214  25.201  0.00  0.00    +0.000 A 
ATOM     16  C   UNL     1      -1.944   2.800  24.888  0.00  0.00    +0.006 A 
ATOM     17  C   UNL     1      -1.985   1.980  24.973  0.00  0.00    +0.069 A 
ATOM     18  C   UNL     1      -2.668   1.676  24.623  0.00  0.00    +0.251 C 
ATOM     19  O   UNL     1      -3.165   2.230  24.266  0.00  0.00    -0.270 OA
ENDROOT
BRANCH  15  20
ATOM     20  C   UNL     1      -1.258   4.033  25.117  0.00  0.00    +0.000 A 
ATOM     21  C   UNL     1      -0.626   4.374  24.712  0.00  0.00    +0.000 A 
ATOM     22  C   UNL     1      -0.583   5.194  24.628  0.00  0.00    +0.000 A 
ATOM     23  C   UNL     1      -1.174   5.673  24.950  0.00  0.00    +0.000 A 
ATOM     24  C   UNL     1      -1.807   5.332  25.354  0.00  0.00    +0.000 A 
ATOM     25  C   UNL     1      -1.849   4.512  25.438  0.00  0.00    +0.000 A 
ENDBRANCH  15  20
BRANCH   2  26
ATOM     26  C   UNL     1      -3.598  -2.005  24.577  0.00  0.00    +0.083 A 
ATOM     27  C   UNL     1      -3.624  -2.265  25.359  0.00  0.00    +0.012 A 
ATOM     28  C   UNL     1      -3.181  -2.958  25.412  0.00  0.00    +0.008 A 
ATOM     29  C   UNL     1      -2.882  -3.128  24.662  0.00  0.00    +0.036 A 
ATOM     30  S   UNL     1      -3.140  -2.538  24.146  0.00  0.00    -0.082 S 
ENDBRANCH   2  26
TORSDOF 2
ENDMDL
MODEL 3
REMARK VINA RESULT:     -11.3      2.566      4.018
REMARK  Name = 
REMARK  2 active torsions:
REMARK  status: ('A' for Active; 'I' for Inactive)
REMARK    1  A    between atoms: C_2  and  C_26
REMARK    2  A    between atoms: C_15  and  C_20
REMARK                            x       y       z     vdW  Elec       q    Type
REMARK                         _______ _______ _______ _____ _____    ______ ____
ROOT
ATOM      1  O   UNL     1       0.427  -1.320  24.392  0.00  0.00    -0.269 OA
ATOM      2  C   UNL     1       0.219  -0.632  23.986  0.00  0.00    +0.255 C 
ATOM      3  N   UNL     1      -0.499  -0.260  24.145  0.00  0.00    -0.272 N 
ATOM      4  C   UNL     1      -1.011  -0.574  24.710  0.00  0.00    +0.115 C 
ATOM      5  C   UNL     1      -1.730  -0.202  24.869  0.00  0.00    +0.116 C 
ATOM      6  N   UNL     1      -1.936   0.486  24.462  0.00  0.00    -0.266 N 
ATOM      7  C   UNL     1      -1.424   0.800  23.897  0.00  0.00    +0.174 C 
ATOM      8  C   UNL     1      -0.706   0.428  23.738  0.00  0.00    +0.123 C 
ATOM      9  C   UNL     1      -1.524   1.476  23.433  0.00  0.00    +0.265 C 
ATOM     10  O   UNL     1      -0.906   1.646  22.914  0.00  0.00    -0.271 OA
ATOM     11  N   UNL     1      -2.159   2.002  23.420  0.00  0.00    -0.178 NA
ATOM     12  C   UNL     1      -2.851   1.984  23.867  0.00  0.00    +0.078 A 
ATOM     13  C   UNL     1      -3.346   2.618  23.682  0.00  0.00    +0.017 A 
ATOM     14  C   UNL     1      -4.070   2.702  24.069  0.00  0.00    +0.001 A 
ATOM     15  C   UNL     1      -4.299   2.154  24.640  0.00  0.00    +0.000 A 
ATOM     16  C   UNL     1      -3.804   1.519  24.825  0.00  0.00    +0.006 A 
ATOM     17  C   UNL     1      -3.081   1.435  24.438  0.00  0.00    +0.069 A 
ATOM     18  C   UNL     1      -2.673   0.768  24.703  0.00  0.00    +0.251 C 
ATOM     19  O   UNL     1      -3.053   0.325  25.286  0.00  0.00    -0.270 OA
ENDROOT
BRANCH  15  20
ATOM     20  C   UNL     1      -5.023   2.238  25.027  0.00  0.00    +0.000 A 
ATOM     21  C   UNL     1      -5.667   1.775  24.802  0.00  0.00    +0.000 A 
ATOM     22  C   UNL     1      -6.391   1.860  25.189  0.00  0.00    +0.000 A 
ATOM     23  C   UNL     1      -6.470   2.409  25.801  0.00  0.00    +0.000 A 
ATOM     24  C   UNL     1      -5.826   2.872  26.025  0.00  0.00    +0.000 A 
ATOM     25  C   UNL     1      -5.102   2.787  25.639  0.00  0.00    +0.000 A 
ENDBRANCH  15  20
BRANCH   2  26
ATOM     26  C   UNL     1       0.732  -0.317  23.420  0.00  0.00    +0.083 A 
ATOM     27  C   UNL     1       0.726  -0.486  22.613  0.00  0.00    +0.012 A 
ATOM     28  C   UNL     1       1.330  -0.052  22.258  0.00  0.00    +0.008 A 
ATOM     29  C   UNL     1       1.709   0.386  22.845  0.00  0.00    +0.036 A 
ATOM     30  S   UNL     1       1.339   0.222  23.563  0.00  0.00    -0.082 S 
ENDBRANCH   2  26
TORSDOF 2
ENDMDL
MODEL 4
REMARK VINA RESULT:     -10.9      2.445      4.133
REMARK  Name = 
REMARK  2 active torsions:
REMARK  status: ('A' for Active; 'I' for Inactive)
REMARK    1  A    between atoms: C_2  and  C_26
REMARK    2  A    between atoms: C_15  and  C_20
REMARK                            x       y       z     vdW  Elec       q    Type
REMARK                         _______ _______ _______ _____ _____    ______ ____
ROOT
ATOM      1  O   UNL     1      -4.729   3.739  24.303  0.00  0.00    -0.269 OA
ATOM      2  C   UNL     1      -4.560   2.980  24.577  0.00  0.00    +0.255 C 
ATOM      3  N   UNL     1      -3.836   2.628  24.399  0.00  0.00    -0.272 N 
ATOM      4  C   UNL     1      -3.280   3.035  23.946  0.00  0.00    +0.115 C 
ATOM      5  C   UNL     1      -2.556   2.684  23.766  0.00  0.00    +0.116 C 
ATOM      6  N   UNL     1      -2.387   1.924  24.041  0.00  0.00    -0.266 N 
ATOM      7  C   UNL     1      -2.943   1.517  24.495  0.00  0.00    +0.174 C 
ATOM      8  C   UNL     1      -3.668   1.869  24.673  0.00  0.00    +0.123 C 
ATOM      9  C   UNL     1      -2.886   0.761  24.820  0.00  0.00    +0.265 C 
ATOM     10  O   UNL     1      -3.543   0.506  25.250  0.00  0.00    -0.271 OA
ATOM     11  N   UNL     1      -2.260   0.226  24.774  0.00  0.00    -0.178 NA
ATOM     12  C   UNL     1      -1.536   0.315  24.389  0.00  0.00    +0.078 A 
ATOM     13  C   UNL     1      -1.063  -0.356  24.478  0.00  0.00    +0.017 A 
ATOM     14  C   UNL     1      -0.313  -0.380  24.135  0.00  0.00    +0.001 A 
ATOM     15  C   UNL     1      -0.036   0.265  23.703  0.00  0.00    +0.000 A 
ATOM     16  C   UNL     1      -0.509   0.936  23.613  0.00  0.00    +0.006 A 
ATOM     17  C   UNL     1      -1.258   0.960  23.957  0.00  0.00    +0.069 A 
ATOM     18  C   UNL     1      -1.638   1.677  23.802  0.00  0.00    +0.251 C 
ATOM     19  O   UNL     1      -1.211   2.217  23.348  0.00  0.00    -0.270 OA
ENDROOT
BRANCH  15  20
ATOM     20  C   UNL     1       0.714   0.240  23.359  0.00  0.00    +0.000 A 
ATOM     21  C   UNL     1       0.860  -0.263  22.723  0.00  0.00    +0.000 A 
ATOM     22  C   UNL     1       1.609  -0.288  22.379  0.00  0.00    +0.000 A 
ATOM     23  C   UNL     1       2.214   0.191  22.674  0.00  0.00    +0.000 A 
ATOM     24  C   UNL     1       2.068   0.695  23.310  0.00  0.00    +0.000 A 
ATOM     25  C   UNL     1       1.318   0.720  23.653  0.00  0.00    +0.000 A 
ENDBRANCH  15  20
BRANCH   2  26
ATOM     26  C   UNL     1      -5.117   2.572  25.031  0.00  0.00    +0.083 A 
ATOM     27  C   UNL     1      -5.631   1.988  24.758  0.00  0.00    +0.012 A 
ATOM     28  C   UNL     1      -6.087   1.733  25.395  0.00  0.00    +0.008 A 
ATOM     29  C   UNL     1      -5.856   2.159  26.062  0.00  0.00    +0.036 A 
ATOM     30  S   UNL     1      -5.256   2.678  25.837  0.00  0.00    -0.082 S 
ENDBRANCH   2  26
TORSDOF 2
ENDMDL
