MODEL 1
REMARK VINA RESULT:     -11.4      0.000      0.000
REMARK  Name = 
REMARK  7 active torsions:
REMARK  status: ('A' for Active; 'I' for Inactive)
REMARK    1  A    between atoms: C_2  and  C_4
REMARK    2  A    between atoms: C_4  and  C_5
REMARK    3  A    between atoms: C_4  and  N_12
REMARK    4  A    between atoms: C_5  and  C_6
REMARK    5  A    between atoms: C_13  and  C_15
REMARK    6  A    between atoms: C_22  and  N_24
REMARK    7  A    between atoms: C_25  and  C_27
REMARK                            x       y       z     vdW  Elec       q    Type
REMARK                         _______ _______ _______ _____ _____    ______ ____
ROOT
ATOM     15  C   UNL     1      -1.285   0.845  25.026  0.00  0.00    +0.200 C 
ATOM     16  O   UNL     1      -2.049   0.864  25.337  0.00  0.00    -0.216 OA
ATOM     17  C   UNL     1      -0.557   0.549  24.776  0.00  0.00    +0.075 C 
ATOM     18  C   UNL     1       0.008   1.058  24.458  0.00  0.00    +0.187 C 
ATOM     19  O   UNL     1       0.736   0.762  24.208  0.00  0.00    -0.220 OA
ATOM     20  C   UNL     1      -0.154   1.864  24.390  0.00  0.00    +0.202 C 
ATOM     21  O   UNL     1       0.413   2.373  24.072  0.00  0.00    -0.219 OA
ATOM     22  C   UNL     1      -0.882   2.161  24.640  0.00  0.00    +0.131 C 
ATOM     23  C   UNL     1      -1.447   1.652  24.958  0.00  0.00    +0.064 C 
ENDROOT
BRANCH  15  13
ATOM     12  N   UNL     1      -1.772  -0.449  24.665  0.00  0.00    -0.195 NA
ATOM     13  C   UNL     1      -1.388   0.046  25.202  0.00  0.00    +0.269 C 
ATOM     14  O   UNL     1      -1.108  -0.258  25.916  0.00  0.00    -0.271 OA
BRANCH  12   4
ATOM      4  C   UNL     1      -1.875  -1.248  24.841  0.00  0.00    +0.179 C 
BRANCH   4   2
ATOM      1  N   UNL     1      -0.950  -2.261  25.242  0.00  0.00    -0.086 NA
ATOM      2  C   UNL     1      -1.284  -1.791  24.651  0.00  0.00    +0.281 C 
ATOM      3  O   UNL     1      -1.027  -1.866  23.871  0.00  0.00    -0.270 OA
ENDBRANCH   4   2
BRANCH   4   5
ATOM      5  C   UNL     1      -2.568  -1.503  25.207  0.00  0.00    +0.057 C 
BRANCH   5   6
ATOM      6  C   UNL     1      -3.200  -1.776  24.751  0.00  0.00    -0.020 A 
ATOM      7  C   UNL     1      -3.692  -1.239  24.365  0.00  0.00    -0.004 A 
ATOM      8  C   UNL     1      -4.324  -1.511  23.909  0.00  0.00    -0.000 A 
ATOM      9  C   UNL     1      -4.462  -2.321  23.839  0.00  0.00    -0.000 A 
ATOM     10  C   UNL     1      -3.970  -2.859  24.226  0.00  0.00    -0.000 A 
ATOM     11  C   UNL     1      -3.339  -2.586  24.681  0.00  0.00    -0.004 A 
ENDBRANCH   5   6
ENDBRANCH   4   5
ENDBRANCH  12   4
ENDBRANCH  15  13
BRANCH  22  24
ATOM     24  N   UNL     1      -1.044   2.967  24.572  0.00  0.00    -0.198 NA
ATOM     25  C   UNL     1      -1.076   3.441  25.246  0.00  0.00    +0.300 C 
ATOM     26  O   UNL     1      -0.945   3.108  25.990  0.00  0.00    -0.265 OA
BRANCH  25  27
ATOM     27  C   UNL     1      -1.237   4.247  25.177  0.00  0.00    +0.200 A 
ATOM     28  C   UNL     1      -1.952   4.615  25.363  0.00  0.00    +0.046 A 
ATOM     29  C   UNL     1      -1.870   5.421  25.211  0.00  0.00    +0.044 A 
ATOM     30  C   UNL     1      -1.105   5.551  24.932  0.00  0.00    +0.180 A 
ATOM     31  O   UNL     1      -0.714   4.825  24.911  0.00  0.00    -0.446 OA
ENDBRANCH  25  27
ENDBRANCH  22  24
TORSDOF 7
ENDMDL
MODEL 2
REMARK VINA RESULT:     -11.1      1.944      2.855
REMARK  Name = 
REMARK  7 active torsions:
REMARK  status: ('A' for Active; 'I' for Inactive)
REMARK    1  A    between atoms: C_2  and  C_4
REMARK    2  A    between atoms: C_4  and  C_5
REMARK    3  A    between atoms: C_4  and  N_12
REMARK    4  A    between atoms: C_5  and  C_6
REMARK    5  A    between atoms: C_13  and  C_15
REMARK    6  A    between atoms: C_22  and  N_24
REMARK    7  A    between atoms: C_25  and  C_27
REMARK                            x       y       z     vdW  Elec       q    Type
REMARK                         _______ _______ _______ _____ _____    ______ ____
ROOT
ATOM     15  C   UNL     1      -3.572   1.396  24.807  0.00  0.00    +0.200 C 
ATOM     16  O   UNL     1      -2.831   1.042  24.730  0.00  0.00    -0.216 OA
ATOM     17  C   UNL     1      -4.387   1.475  24.903  0.00  0.00    +0.075 C 
ATOM     18  C   UNL     1      -4.731   2.224  24.920  0.00  0.00    +0.187 C 
ATOM     19  O   UNL     1      -5.546   2.302  25.016  0.00  0.00    -0.220 OA
ATOM     20  C   UNL     1      -4.258   2.896  24.843  0.00  0.00    +0.202 C 
ATOM     21  O   UNL     1      -4.603   3.646  24.861  0.00  0.00    -0.219 OA
ATOM     22  C   UNL     1      -3.443   2.818  24.748  0.00  0.00    +0.131 C 
ATOM     23  C   UNL     1      -3.100   2.069  24.730  0.00  0.00    +0.064 C 
ENDROOT
BRANCH  15  13
ATOM     12  N   UNL     1      -3.380   0.035  24.416  0.00  0.00    -0.195 NA
ATOM     13  C   UNL     1      -3.786   0.602  24.858  0.00  0.00    +0.269 C 
ATOM     14  O   UNL     1      -4.407   0.373  25.350  0.00  0.00    -0.271 OA
BRANCH  12   4
ATOM      4  C   UNL     1      -3.595  -0.759  24.466  0.00  0.00    +0.179 C 
BRANCH   4   2
ATOM      1  N   UNL     1      -4.756  -1.535  24.163  0.00  0.00    -0.086 NA
ATOM      2  C   UNL     1      -4.114  -1.082  23.912  0.00  0.00    +0.281 C 
ATOM      3  O   UNL     1      -3.992  -0.952  23.107  0.00  0.00    -0.270 OA
ENDBRANCH   4   2
BRANCH   4   5
ATOM      5  C   UNL     1      -3.290  -1.231  25.069  0.00  0.00    +0.057 C 
BRANCH   5   6
ATOM      6  C   UNL     1      -2.591  -1.653  24.951  0.00  0.00    -0.020 A 
ATOM      7  C   UNL     1      -2.610  -2.389  24.581  0.00  0.00    -0.004 A 
ATOM      8  C   UNL     1      -1.911  -2.811  24.464  0.00  0.00    -0.000 A 
ATOM      9  C   UNL     1      -1.192  -2.495  24.716  0.00  0.00    -0.000 A 
ATOM     10  C   UNL     1      -1.172  -1.758  25.087  0.00  0.00    -0.000 A 
ATOM     11  C   UNL     1      -1.872  -1.337  25.204  0.00  0.00    -0.004 A 
ENDBRANCH   5   6
ENDBRANCH   4   5
ENDBRANCH  12   4
ENDBRANCH  15  13
BRANCH  22  24
ATOM     24  N   UNL     1      -2.971   3.491  24.671  0.00  0.00    -0.198 NA
ATOM     25  C   UNL     1      -2.375   3.642  25.220  0.00  0.00    +0.300 C 
ATOM     26  O   UNL     1      -2.250   3.121  25.848  0.00  0.00    -0.265 OA
BRANCH  25  27
ATOM     27  C   UNL     1      -1.903   4.315  25.142  0.00  0.00    +0.200 A 
ATOM     28  C   UNL     1      -1.095   4.323  24.979  0.00  0.00    +0.046 A 
ATOM     29  C   UNL     1      -0.849   5.110  24.950  0.00  0.00    +0.044 A 
ATOM     30  C   UNL     1      -1.506   5.588  25.095  0.00  0.00    +0.180 A 
ATOM     31  O   UNL     1      -2.157   5.096  25.213  0.00  0.00    -0.446 OA
ENDBRANCH  25  27
ENDBRANCH  22  24
TORSDOF 7
ENDMDL
MODEL 3
REMARK VINA RESULT:     -10.7      2.243      6.045
REMARK  Name = 
REMARK  7 active torsions:
REMARK  status: ('A' for Active; 'I' for Inactive)
REMARK    1  A    between atoms: C_2  and  C_4
REMARK    2  A    between atoms: C_4  and  C_5
REMARK    3  A    between atoms: C_4  and  N_12
REMARK    4  A    between atoms: C_5  and  C_6
REMARK    5  A    between atoms: C_13  and  C_15
REMARK    6  A    between atoms: C_22  and  N_24
REMARK    7  A    between atoms: C_25  and  C_27
REMARK                            x       y       z     vdW  Elec       q    Type
REMARK                         _______ _______ _______ _____ _____    ______ ____
ROOT
ATOM     15  C   UNL     1      -4.009   1.994  24.723  0.00  0.00    +0.200 C 
ATOM     16  O   UNL     1      -3.251   2.009  24.397  0.00  0.00    -0.216 OA
ATOM     17  C   UNL     1      -4.700   2.253  25.093  0.00  0.00    +0.075 C 
ATOM     18  C   UNL     1      -5.322   1.727  25.220  0.00  0.00    +0.187 C 
ATOM     19  O   UNL     1      -6.012   1.986  25.590  0.00  0.00    -0.220 OA
ATOM     20  C   UNL     1      -5.254   0.941  24.978  0.00  0.00    +0.202 C 
ATOM     21  O   UNL     1      -5.877   0.415  25.107  0.00  0.00    -0.219 OA
ATOM     22  C   UNL     1      -4.564   0.682  24.608  0.00  0.00    +0.131 C 
ATOM     23  C   UNL     1      -3.942   1.208  24.481  0.00  0.00    +0.064 C 
ENDROOT
BRANCH  15  13
ATOM     12  N   UNL     1      -3.168   2.978  25.326  0.00  0.00    -0.195 NA
ATOM     13  C   UNL     1      -3.814   2.784  24.851  0.00  0.00    +0.269 C 
ATOM     14  O   UNL     1      -4.265   3.382  24.505  0.00  0.00    -0.271 OA
BRANCH  12   4
ATOM      4  C   UNL     1      -2.972   3.769  25.455  0.00  0.00    +0.179 C 
BRANCH   4   2
ATOM      1  N   UNL     1      -3.584   4.812  26.217  0.00  0.00    -0.086 NA
ATOM      2  C   UNL     1      -3.136   4.121  26.183  0.00  0.00    +0.281 C 
ATOM      3  O   UNL     1      -2.852   3.781  26.879  0.00  0.00    -0.270 OA
ENDBRANCH   4   2
BRANCH   4   5
ATOM      5  C   UNL     1      -2.614   4.208  24.857  0.00  0.00    +0.057 C 
BRANCH   5   6
ATOM      6  C   UNL     1      -1.798   4.332  24.868  0.00  0.00    -0.020 A 
ATOM      7  C   UNL     1      -1.282   3.690  24.829  0.00  0.00    -0.004 A 
ATOM      8  C   UNL     1      -0.466   3.814  24.839  0.00  0.00    -0.000 A 
ATOM      9  C   UNL     1      -0.167   4.581  24.889  0.00  0.00    -0.000 A 
ATOM     10  C   UNL     1      -0.683   5.224  24.927  0.00  0.00    -0.000 A 
ATOM     11  C   UNL     1      -1.498   5.099  24.917  0.00  0.00    -0.004 A 
ENDBRANCH   5   6
ENDBRANCH   4   5
ENDBRANCH  12   4
ENDBRANCH  15  13
BRANCH  22  24
ATOM     24  N   UNL     1      -4.496  -0.105  24.366  0.00  0.00    -0.198 NA
ATOM     25  C   UNL     1      -3.985  -0.616  24.763  0.00  0.00    +0.300 C 
ATOM     26  O   UNL     1      -3.540  -0.341  25.402  0.00  0.00    -0.265 OA
BRANCH  25  27
ATOM     27  C   UNL     1      -3.918  -1.402  24.520  0.00  0.00    +0.200 A 
ATOM     28  C   UNL     1      -3.533  -2.004  24.932  0.00  0.00    +0.046 A 
ATOM     29  C   UNL     1      -3.601  -2.698  24.490  0.00  0.00    +0.044 A 
ATOM     30  C   UNL     1      -4.028  -2.523  23.806  0.00  0.00    +0.180 A 
ATOM     31  O   UNL     1      -4.223  -1.723  23.825  0.00  0.00    -0.446 OA
ENDBRANCH  25  27
ENDBRANCH  22  24
TORSDOF 7
ENDMDL
MODEL 4
REMARK VINA RESULT:     -10.5      1.863      3.346
REMARK  Name = 
REMARK  7 active torsions:
REMARK  status: ('A' for Active; 'I' for Inactive)
REMARK    1  A    between atoms: C_2  and  C_4
REMARK    2  A    between atoms: C_4  and  C_5
REMARK    3  A    between atoms: C_4  and  N_12
REMARK    4  A    between atoms: C_5  and  C_6
REMARK    5  A    between atoms: C_13  and  C_15
REMARK    6  A    between atoms: C_22  and  N_24
REMARK    7  A    between atoms: C_25  and  C_27
REMARK                            x       y       z     vdW  Elec       q    Type
REMARK                         _______ _______ _______ _____ _____    ______ ____
ROOT
ATOM     15  C   UNL     1      -1.451   0.912  24.469  0.00  0.00    +0.200 C 
ATOM     16  O   UNL     1      -1.795   0.480  23.856  0.00  0.00    -0.216 OA
ATOM     17  C   UNL     1      -1.373   1.319  25.182  0.00  0.00    +0.075 C 
ATOM     18  C   UNL     1      -0.646   1.646  25.393  0.00  0.00    +0.187 C 
ATOM     19  O   UNL     1      -0.569   2.054  26.106  0.00  0.00    -0.220 OA
ATOM     20  C   UNL     1       0.003   1.566  24.891  0.00  0.00    +0.202 C 
ATOM     21  O   UNL     1       0.731   1.894  25.103  0.00  0.00    -0.219 OA
ATOM     22  C   UNL     1      -0.074   1.159  24.178  0.00  0.00    +0.131 C 
ATOM     23  C   UNL     1      -0.800   0.832  23.967  0.00  0.00    +0.064 C 
ENDROOT
BRANCH  15  13
ATOM     12  N   UNL     1      -2.753   0.328  24.393  0.00  0.00    -0.195 NA
ATOM     13  C   UNL     1      -2.220   0.842  24.757  0.00  0.00    +0.269 C 
ATOM     14  O   UNL     1      -2.457   1.286  25.411  0.00  0.00    -0.271 OA
BRANCH  12   4
ATOM      4  C   UNL     1      -3.522   0.258  24.681  0.00  0.00    +0.179 C 
BRANCH   4   2
ATOM      1  N   UNL     1      -4.611   1.108  25.046  0.00  0.00    -0.086 NA
ATOM      2  C   UNL     1      -4.092   0.817  24.475  0.00  0.00    +0.281 C 
ATOM      3  O   UNL     1      -4.145   1.086  23.697  0.00  0.00    -0.270 OA
ENDBRANCH   4   2
BRANCH   4   5
ATOM      5  C   UNL     1      -3.722  -0.371  25.176  0.00  0.00    +0.057 C 
BRANCH   5   6
ATOM      6  C   UNL     1      -3.773  -1.136  24.872  0.00  0.00    -0.020 A 
ATOM      7  C   UNL     1      -4.214  -1.281  24.190  0.00  0.00    -0.004 A 
ATOM      8  C   UNL     1      -4.265  -2.046  23.886  0.00  0.00    -0.000 A 
ATOM      9  C   UNL     1      -3.875  -2.667  24.264  0.00  0.00    -0.000 A 
ATOM     10  C   UNL     1      -3.433  -2.522  24.947  0.00  0.00    -0.000 A 
ATOM     11  C   UNL     1      -3.382  -1.757  25.250  0.00  0.00    -0.004 A 
ENDBRANCH   5   6
ENDBRANCH   4   5
ENDBRANCH  12   4
ENDBRANCH  15  13
BRANCH  22  24
ATOM     24  N   UNL     1       0.577   1.079  23.676  0.00  0.00    -0.198 NA
ATOM     25  C   UNL     1       0.868   0.330  23.493  0.00  0.00    +0.300 C 
ATOM     26  O   UNL     1       0.507  -0.341  23.812  0.00  0.00    -0.265 OA
BRANCH  25  27
ATOM     27  C   UNL     1       1.518   0.251  22.992  0.00  0.00    +0.200 A 
ATOM     28  C   UNL     1       1.540  -0.187  22.293  0.00  0.00    +0.046 A 
ATOM     29  C   UNL     1       2.296  -0.113  21.970  0.00  0.00    +0.044 A 
ATOM     30  C   UNL     1       2.740   0.371  22.470  0.00  0.00    +0.180 A 
ATOM     31  O   UNL     1       2.259   0.596  23.100  0.00  0.00    -0.446 OA
ENDBRANCH  25  27
ENDBRANCH  22  24
TORSDOF 7
ENDMDL
MODEL 5
REMARK VINA RESULT:     -10.5      1.098      5.222
REMARK  Name = 
REMARK  7 active torsions:
REMARK  status: ('A' for Active; 'I' for Inactive)
REMARK    1  A    between atoms: C_2  and  C_4
REMARK    2  A    between atoms: C_4  and  C_5
REMARK    3  A    between atoms: C_4  and  N_12
REMARK    4  A    between atoms: C_5  and  C_6
REMARK    5  A    between atoms: C_13  and  C_15
REMARK    6  A    between atoms: C_22  and  N_24
REMARK    7  A    between atoms: C_25  and  C_27
REMARK                            x       y       z     vdW  Elec       q    Type
REMARK                         _______ _______ _______ _____ _____    ______ ____
ROOT
ATOM     15  C   UNL     1      -1.092   0.620  24.509  0.00  0.00    +0.200 C 
ATOM     16  O   UNL     1      -1.702   1.173  24.470  0.00  0.00    -0.216 OA
ATOM     17  C   UNL     1      -0.337   0.303  24.614  0.00  0.00    +0.075 C 
ATOM     18  C   UNL     1      -0.212  -0.506  24.516  0.00  0.00    +0.187 C 
ATOM     19  O   UNL     1       0.543  -0.822  24.621  0.00  0.00    -0.220 OA
ATOM     20  C   UNL     1      -0.841  -1.000  24.315  0.00  0.00    +0.202 C 
ATOM     21  O   UNL     1      -0.715  -1.810  24.218  0.00  0.00    -0.219 OA
ATOM     22  C   UNL     1      -1.596  -0.684  24.211  0.00  0.00    +0.131 C 
ATOM     23  C   UNL     1      -1.721   0.125  24.308  0.00  0.00    +0.064 C 
ENDROOT
BRANCH  15  13
ATOM     12  N   UNL     1      -0.961   1.817  25.278  0.00  0.00    -0.195 NA
ATOM     13  C   UNL     1      -0.675   1.305  24.697  0.00  0.00    +0.269 C 
ATOM     14  O   UNL     1       0.029   1.480  24.304  0.00  0.00    -0.271 OA
BRANCH  12   4
ATOM      4  C   UNL     1      -0.543   2.503  25.466  0.00  0.00    +0.179 C 
BRANCH   4   2
ATOM      1  N   UNL     1       0.706   2.749  26.115  0.00  0.00    -0.086 NA
ATOM      2  C   UNL     1      -0.089   2.534  26.154  0.00  0.00    +0.281 C 
ATOM      3  O   UNL     1      -0.430   2.350  26.882  0.00  0.00    -0.270 OA
ENDBRANCH   4   2
BRANCH   4   5
ATOM      5  C   UNL     1      -0.580   3.158  24.966  0.00  0.00    +0.057 C 
BRANCH   5   6
ATOM      6  C   UNL     1      -1.095   3.779  25.135  0.00  0.00    -0.020 A 
ATOM      7  C   UNL     1      -1.823   3.626  25.491  0.00  0.00    -0.004 A 
ATOM      8  C   UNL     1      -2.339   4.247  25.660  0.00  0.00    -0.000 A 
ATOM      9  C   UNL     1      -2.126   5.022  25.474  0.00  0.00    -0.000 A 
ATOM     10  C   UNL     1      -1.397   5.176  25.117  0.00  0.00    -0.000 A 
ATOM     11  C   UNL     1      -0.882   4.554  24.948  0.00  0.00    -0.004 A 
ENDBRANCH   5   6
ENDBRANCH   4   5
ENDBRANCH  12   4
ENDBRANCH  15  13
BRANCH  22  24
ATOM     24  N   UNL     1      -2.226  -1.178  24.009  0.00  0.00    -0.198 NA
ATOM     25  C   UNL     1      -2.806  -1.356  24.567  0.00  0.00    +0.300 C 
ATOM     26  O   UNL     1      -2.758  -1.038  25.328  0.00  0.00    -0.265 OA
BRANCH  25  27
ATOM     27  C   UNL     1      -3.435  -1.850  24.365  0.00  0.00    +0.200 A 
ATOM     28  C   UNL     1      -4.122  -1.622  23.969  0.00  0.00    +0.046 A 
ATOM     29  C   UNL     1      -4.599  -2.290  23.882  0.00  0.00    +0.044 A 
ATOM     30  C   UNL     1      -4.207  -2.929  24.225  0.00  0.00    +0.180 A 
ATOM     31  O   UNL     1      -3.488  -2.657  24.523  0.00  0.00    -0.446 OA
ENDBRANCH  25  27
ENDBRANCH  22  24
TORSDOF 7
ENDMDL
MODEL 6
REMARK VINA RESULT:     -10.5      2.181      2.613
REMARK  Name = 
REMARK  7 active torsions:
REMARK  status: ('A' for Active; 'I' for Inactive)
REMARK    1  A    between atoms: C_2  and  C_4
REMARK    2  A    between atoms: C_4  and  C_5
REMARK    3  A    between atoms: C_4  and  N_12
REMARK    4  A    between atoms: C_5  and  C_6
REMARK    5  A    between atoms: C_13  and  C_15
REMARK    6  A    between atoms: C_22  and  N_24
REMARK    7  A    between atoms: C_25  and  C_27
REMARK                            x       y       z     vdW  Elec       q    Type
REMARK                         _______ _______ _______ _____ _____    ______ ____
ROOT
ATOM     15  C   UNL     1      -2.440   1.139  24.476  0.00  0.00    +0.200 C 
ATOM     16  O   UNL     1      -2.434   0.933  25.275  0.00  0.00    -0.216 OA
ATOM     17  C   UNL     1      -2.280   1.115  23.667  0.00  0.00    +0.075 C 
ATOM     18  C   UNL     1      -2.598   1.687  23.166  0.00  0.00    +0.187 C 
ATOM     19  O   UNL     1      -2.437   1.661  22.357  0.00  0.00    -0.220 OA
ATOM     20  C   UNL     1      -3.076   2.284  23.473  0.00  0.00    +0.202 C 
ATOM     21  O   UNL     1      -3.394   2.857  22.970  0.00  0.00    -0.219 OA
ATOM     22  C   UNL     1      -3.237   2.310  24.281  0.00  0.00    +0.131 C 
ATOM     23  C   UNL     1      -2.919   1.738  24.783  0.00  0.00    +0.064 C 
ENDROOT
BRANCH  15  13
ATOM     12  N   UNL     1      -2.196  -0.225  24.823  0.00  0.00    -0.195 NA
ATOM     13  C   UNL     1      -1.960   0.470  24.447  0.00  0.00    +0.269 C 
ATOM     14  O   UNL     1      -1.242   0.495  24.041  0.00  0.00    -0.271 OA
BRANCH  12   4
ATOM      4  C   UNL     1      -1.716  -0.894  24.794  0.00  0.00    +0.179 C 
BRANCH   4   2
ATOM      1  N   UNL     1      -0.323  -1.150  24.985  0.00  0.00    -0.086 NA
ATOM      2  C   UNL     1      -1.062  -0.955  25.294  0.00  0.00    +0.281 C 
ATOM      3  O   UNL     1      -1.148  -0.821  26.103  0.00  0.00    -0.270 OA
ENDBRANCH   4   2
BRANCH   4   5
ATOM      5  C   UNL     1      -1.889  -1.503  24.265  0.00  0.00    +0.057 C 
BRANCH   5   6
ATOM      6  C   UNL     1      -2.556  -1.975  24.381  0.00  0.00    -0.020 A 
ATOM      7  C   UNL     1      -2.578  -2.513  25.005  0.00  0.00    -0.004 A 
ATOM      8  C   UNL     1      -3.245  -2.984  25.121  0.00  0.00    -0.000 A 
ATOM      9  C   UNL     1      -3.891  -2.917  24.612  0.00  0.00    -0.000 A 
ATOM     10  C   UNL     1      -3.869  -2.378  23.986  0.00  0.00    -0.000 A 
ATOM     11  C   UNL     1      -3.201  -1.907  23.872  0.00  0.00    -0.004 A 
ENDBRANCH   5   6
ENDBRANCH   4   5
ENDBRANCH  12   4
ENDBRANCH  15  13
BRANCH  22  24
ATOM     24  N   UNL     1      -3.716   2.908  24.588  0.00  0.00    -0.198 NA
ATOM     25  C   UNL     1      -4.445   2.722  24.924  0.00  0.00    +0.300 C 
ATOM     26  O   UNL     1      -4.696   1.936  24.954  0.00  0.00    -0.265 OA
BRANCH  25  27
ATOM     27  C   UNL     1      -4.923   3.321  25.230  0.00  0.00    +0.200 A 
ATOM     28  C   UNL     1      -5.698   3.232  25.500  0.00  0.00    +0.046 A 
ATOM     29  C   UNL     1      -5.964   3.969  25.757  0.00  0.00    +0.044 A 
ATOM     30  C   UNL     1      -5.354   4.513  25.646  0.00  0.00    +0.180 A 
ATOM     31  O   UNL     1      -4.711   4.112  25.321  0.00  0.00    -0.446 OA
ENDBRANCH  25  27
ENDBRANCH  22  24
TORSDOF 7
ENDMDL
MODEL 7
REMARK VINA RESULT:     -10.1      2.514      4.295
REMARK  Name = 
REMARK  7 active torsions:
REMARK  status: ('A' for Active; 'I' for Inactive)
REMARK    1  A    between atoms: C_2  and  C_4
REMARK    2  A    between atoms: C_4  and  C_5
REMARK    3  A    between atoms: C_4  and  N_12
REMARK    4  A    between atoms: C_5  and  C_6
REMARK    5  A    between atoms: C_13  and  C_15
REMARK    6  A    between atoms: C_22  and  N_24
REMARK    7  A    between atoms: C_25  and  C_27
REMARK                            x       y       z     vdW  Elec       q    Type
REMARK                         _______ _______ _______ _____ _____    ______ ____
ROOT
ATOM     15  C   UNL     1      -1.460   2.713  24.512  0.00  0.00    +0.200 C 
ATOM     16  O   UNL     1      -1.795   2.688  23.758  0.00  0.00    -0.216 OA
ATOM     17  C   UNL     1      -1.372   2.872  25.317  0.00  0.00    +0.075 C 
ATOM     18  C   UNL     1      -0.687   2.637  25.711  0.00  0.00    +0.187 C 
ATOM     19  O   UNL     1      -0.601   2.796  26.516  0.00  0.00    -0.220 OA
ATOM     20  C   UNL     1      -0.089   2.245  25.301  0.00  0.00    +0.202 C 
ATOM     21  O   UNL     1       0.597   2.011  25.697  0.00  0.00    -0.219 OA
ATOM     22  C   UNL     1      -0.176   2.086  24.497  0.00  0.00    +0.131 C 
ATOM     23  C   UNL     1      -0.861   2.320  24.102  0.00  0.00    +0.064 C 
ENDROOT
BRANCH  15  13
ATOM     12  N   UNL     1      -2.885   2.758  24.413  0.00  0.00    -0.195 NA
ATOM     13  C   UNL     1      -2.174   3.097  24.660  0.00  0.00    +0.269 C 
ATOM     14  O   UNL     1      -2.179   3.821  25.055  0.00  0.00    -0.271 OA
BRANCH  12   4
ATOM      4  C   UNL     1      -3.599   3.141  24.561  0.00  0.00    +0.179 C 
BRANCH   4   2
ATOM      1  N   UNL     1      -4.084   4.450  24.255  0.00  0.00    -0.086 NA
ATOM      2  C   UNL     1      -3.896   3.684  24.015  0.00  0.00    +0.281 C 
ATOM      3  O   UNL     1      -4.006   3.461  23.228  0.00  0.00    -0.270 OA
ENDBRANCH   4   2
BRANCH   4   5
ATOM      5  C   UNL     1      -4.017   2.983  25.253  0.00  0.00    +0.057 C 
BRANCH   5   6
ATOM      6  C   UNL     1      -4.621   2.421  25.252  0.00  0.00    -0.020 A 
ATOM      7  C   UNL     1      -4.452   1.633  25.080  0.00  0.00    -0.004 A 
ATOM      8  C   UNL     1      -5.057   1.071  25.079  0.00  0.00    -0.000 A 
ATOM      9  C   UNL     1      -5.831   1.299  25.251  0.00  0.00    -0.000 A 
ATOM     10  C   UNL     1      -6.001   2.088  25.423  0.00  0.00    -0.000 A 
ATOM     11  C   UNL     1      -5.395   2.649  25.424  0.00  0.00    -0.004 A 
ENDBRANCH   5   6
ENDBRANCH   4   5
ENDBRANCH  12   4
ENDBRANCH  15  13
BRANCH  22  24
ATOM     24  N   UNL     1       0.424   1.693  24.087  0.00  0.00    -0.198 NA
ATOM     25  C   UNL     1       0.285   0.945  23.770  0.00  0.00    +0.300 C 
ATOM     26  O   UNL     1      -0.454   0.589  23.862  0.00  0.00    -0.265 OA
BRANCH  25  27
ATOM     27  C   UNL     1       0.884   0.553  23.361  0.00  0.00    +0.200 A 
ATOM     28  C   UNL     1       0.831  -0.200  23.029  0.00  0.00    +0.046 A 
ATOM     29  C   UNL     1       1.556  -0.374  22.674  0.00  0.00    +0.044 A 
ATOM     30  C   UNL     1       2.056   0.272  22.787  0.00  0.00    +0.180 A 
ATOM     31  O   UNL     1       1.641   0.845  23.211  0.00  0.00    -0.446 OA
ENDBRANCH  25  27
ENDBRANCH  22  24
TORSDOF 7
ENDMDL
MODEL 8
REMARK VINA RESULT:      -9.5     15.898     17.804
REMARK  Name = 
REMARK  7 active torsions:
REMARK  status: ('A' for Active; 'I' for Inactive)
REMARK    1  A    between atoms: C_2  and  C_4
REMARK    2  A    between atoms: C_4  and  C_5
REMARK    3  A    between atoms: C_4  and  N_12
REMARK    4  A    between atoms: C_5  and  C_6
REMARK    5  A    between atoms: C_13  and  C_15
REMARK    6  A    between atoms: C_22  and  N_24
REMARK    7  A    between atoms: C_25  and  C_27
REMARK                            x       y       z     vdW  Elec       q    Type
REMARK                         _______ _______ _______ _____ _____    ______ ____
ROOT
ATOM     15  C   UNL     1      12.912   7.675  19.781  0.00  0.00    +0.200 C 
ATOM     16  O   UNL     1      13.573   7.608  19.292  0.00  0.00    -0.216 OA
ATOM     17  C   UNL     1      12.436   7.626  20.453  0.00  0.00    +0.075 C 
ATOM     18  C   UNL     1      11.655   7.889  20.427  0.00  0.00    +0.187 C 
ATOM     19  O   UNL     1      11.181   7.840  21.099  0.00  0.00    -0.220 OA
ATOM     20  C   UNL     1      11.349   8.202  19.727  0.00  0.00    +0.202 C 
ATOM     21  O   UNL     1      10.567   8.465  19.702  0.00  0.00    -0.219 OA
ATOM     22  C   UNL     1      11.824   8.251  19.055  0.00  0.00    +0.131 C 
ATOM     23  C   UNL     1      12.605   7.988  19.082  0.00  0.00    +0.064 C 
ENDROOT
BRANCH  15  13
ATOM     12  N   UNL     1      14.234   7.592  20.318  0.00  0.00    -0.195 NA
ATOM     13  C   UNL     1      13.448   7.339  20.310  0.00  0.00    +0.269 C 
ATOM     14  O   UNL     1      13.199   6.751  20.831  0.00  0.00    -0.271 OA
BRANCH  12   4
ATOM      4  C   UNL     1      14.769   7.256  20.847  0.00  0.00    +0.179 C 
BRANCH   4   2
ATOM      1  N   UNL     1      14.896   7.289  22.270  0.00  0.00    -0.086 NA
ATOM      2  C   UNL     1      14.975   7.658  21.537  0.00  0.00    +0.281 C 
ATOM      3  O   UNL     1      15.260   8.431  21.495  0.00  0.00    -0.270 OA
ENDBRANCH   4   2
BRANCH   4   5
ATOM      5  C   UNL     1      15.100   6.518  20.687  0.00  0.00    +0.057 C 
BRANCH   5   6
ATOM      6  C   UNL     1      15.850   6.465  20.346  0.00  0.00    -0.020 A 
ATOM      7  C   UNL     1      16.522   6.498  20.822  0.00  0.00    -0.004 A 
ATOM      8  C   UNL     1      17.272   6.446  20.482  0.00  0.00    -0.000 A 
ATOM      9  C   UNL     1      17.348   6.361  19.665  0.00  0.00    -0.000 A 
ATOM     10  C   UNL     1      16.675   6.328  19.188  0.00  0.00    -0.000 A 
ATOM     11  C   UNL     1      15.926   6.381  19.529  0.00  0.00    -0.004 A 
ENDBRANCH   5   6
ENDBRANCH   4   5
ENDBRANCH  12   4
ENDBRANCH  15  13
BRANCH  22  24
ATOM     24  N   UNL     1      11.517   8.564  18.356  0.00  0.00    -0.198 NA
ATOM     25  C   UNL     1      11.533   8.119  17.662  0.00  0.00    +0.300 C 
ATOM     26  O   UNL     1      11.857   7.360  17.667  0.00  0.00    -0.265 OA
BRANCH  25  27
ATOM     27  C   UNL     1      11.226   8.433  16.963  0.00  0.00    +0.200 A 
ATOM     28  C   UNL     1      11.634   8.906  16.425  0.00  0.00    +0.046 A 
ATOM     29  C   UNL     1      11.117   9.094  15.809  0.00  0.00    +0.044 A 
ATOM     30  C   UNL     1      10.391   8.736  15.968  0.00  0.00    +0.180 A 
ATOM     31  O   UNL     1      10.459   8.328  16.681  0.00  0.00    -0.446 OA
ENDBRANCH  25  27
ENDBRANCH  22  24
TORSDOF 7
ENDMDL
