MODEL 1
REMARK VINA RESULT:      -9.3      0.000      0.000
REMARK  Name = 
REMARK  7 active torsions:
REMARK  status: ('A' for Active; 'I' for Inactive)
REMARK    1  A    between atoms: C_5  and  C_6
REMARK    2  A    between atoms: C_6  and  C_7
REMARK    3  A    between atoms: N_9  and  C_10
REMARK    4  A    between atoms: C_10  and  C_11
REMARK    5  A    between atoms: C_14  and  C_15
REMARK    6  A    between atoms: C_15  and  N_16
REMARK    7  A    between atoms: C_17  and  C_19
REMARK                            x       y       z     vdW  Elec       q    Type
REMARK                         _______ _______ _______ _____ _____    ______ ____
ROOT
ATOM      1  O   UNL     1      -5.820   3.505  25.735  0.00  0.00    -0.218 OA
ATOM      2  C   UNL     1      -5.348   2.879  25.479  0.00  0.00    +0.213 C 
ATOM      3  C   UNL     1      -5.617   2.169  25.155  0.00  0.00    +0.212 C 
ATOM      4  O   UNL     1      -6.405   1.961  25.030  0.00  0.00    -0.218 OA
ATOM      5  C   UNL     1      -4.959   1.705  24.978  0.00  0.00    +0.157 C 
ATOM     13  O   UNL     1      -4.283   2.127  25.193  0.00  0.00    -0.351 OA
ATOM     14  C   UNL     1      -4.523   2.853  25.503  0.00  0.00    +0.170 C 
ENDROOT
BRANCH   5   6
ATOM      6  C   UNL     1      -4.973   0.950  24.645  0.00  0.00    +0.119 C 
BRANCH   6   7
ATOM      7  C   UNL     1      -4.272   0.523  24.561  0.00  0.00    +0.245 C 
ATOM      8  O   UNL     1      -3.686   0.788  24.046  0.00  0.00    -0.273 OA
ATOM      9  N   UNL     1      -4.159  -0.170  24.995  0.00  0.00    -0.191 NA
BRANCH   9  10
ATOM     10  C   UNL     1      -3.458  -0.598  24.912  0.00  0.00    +0.191 C 
BRANCH  10  11
ATOM     11  C   UNL     1      -3.420  -1.381  25.168  0.00  0.00    -0.054 C 
ATOM     12  C   UNL     1      -3.381  -2.164  25.424  0.00  0.00    -0.012 C 
ENDBRANCH  10  11
ENDBRANCH   9  10
ENDBRANCH   6   7
ENDBRANCH   5   6
BRANCH  14  15
ATOM     15  C   UNL     1      -4.028   3.447  25.786  0.00  0.00    +0.148 C 
BRANCH  15  16
ATOM     16  N   UNL     1      -3.277   3.550  25.458  0.00  0.00    -0.196 NA
ATOM     17  C   UNL     1      -2.738   4.064  25.815  0.00  0.00    +0.300 C 
ATOM     18  O   UNL     1      -2.949   4.473  26.498  0.00  0.00    -0.265 OA
BRANCH  17  19
ATOM     19  C   UNL     1      -1.988   4.167  25.487  0.00  0.00    +0.200 A 
ATOM     20  C   UNL     1      -1.671   4.878  25.214  0.00  0.00    +0.046 A 
ATOM     21  C   UNL     1      -0.911   4.727  24.933  0.00  0.00    +0.044 A 
ATOM     22  C   UNL     1      -0.758   3.923  25.031  0.00  0.00    +0.180 A 
ATOM     23  O   UNL     1      -1.423   3.576  25.373  0.00  0.00    -0.446 OA
ENDBRANCH  17  19
ENDBRANCH  15  16
ENDBRANCH  14  15
TORSDOF 7
ENDMDL
MODEL 2
REMARK VINA RESULT:      -9.0      0.774      4.214
REMARK  Name = 
REMARK  7 active torsions:
REMARK  status: ('A' for Active; 'I' for Inactive)
REMARK    1  A    between atoms: C_5  and  C_6
REMARK    2  A    between atoms: C_6  and  C_7
REMARK    3  A    between atoms: N_9  and  C_10
REMARK    4  A    between atoms: C_10  and  C_11
REMARK    5  A    between atoms: C_14  and  C_15
REMARK    6  A    between atoms: C_15  and  N_16
REMARK    7  A    between atoms: C_17  and  C_19
REMARK                            x       y       z     vdW  Elec       q    Type
REMARK                         _______ _______ _______ _____ _____    ______ ____
ROOT
ATOM      1  O   UNL     1      -6.309   1.964  25.329  0.00  0.00    -0.218 OA
ATOM      2  C   UNL     1      -5.563   2.313  25.286  0.00  0.00    +0.213 C 
ATOM      3  C   UNL     1      -5.384   3.099  25.466  0.00  0.00    +0.212 C 
ATOM      4  O   UNL     1      -5.920   3.672  25.720  0.00  0.00    -0.218 OA
ATOM      5  C   UNL     1      -4.576   3.209  25.347  0.00  0.00    +0.157 C 
ATOM     13  O   UNL     1      -4.254   2.492  25.094  0.00  0.00    -0.351 OA
ATOM     14  C   UNL     1      -4.865   1.938  25.056  0.00  0.00    +0.170 C 
ENDROOT
BRANCH   5   6
ATOM      6  C   UNL     1      -4.160   3.913  25.461  0.00  0.00    +0.119 C 
BRANCH   6   7
ATOM      7  C   UNL     1      -3.389   3.894  25.753  0.00  0.00    +0.245 C 
ATOM      8  O   UNL     1      -3.241   3.606  26.512  0.00  0.00    -0.273 OA
ATOM      9  N   UNL     1      -2.765   4.162  25.285  0.00  0.00    -0.191 NA
BRANCH   9  10
ATOM     10  C   UNL     1      -1.993   4.143  25.576  0.00  0.00    +0.191 C 
BRANCH  10  11
ATOM     11  C   UNL     1      -1.393   4.546  25.179  0.00  0.00    -0.054 C 
ATOM     12  C   UNL     1      -0.791   4.949  24.782  0.00  0.00    -0.012 C 
ENDBRANCH  10  11
ENDBRANCH   9  10
ENDBRANCH   6   7
ENDBRANCH   5   6
BRANCH  14  15
ATOM     15  C   UNL     1      -4.790   1.149  24.829  0.00  0.00    +0.148 C 
BRANCH  15  16
ATOM     16  N   UNL     1      -4.151   0.701  25.098  0.00  0.00    -0.196 NA
ATOM     17  C   UNL     1      -4.046  -0.071  24.826  0.00  0.00    +0.300 C 
ATOM     18  O   UNL     1      -4.578  -0.394  24.285  0.00  0.00    -0.265 OA
BRANCH  17  19
ATOM     19  C   UNL     1      -3.408  -0.520  25.095  0.00  0.00    +0.200 A 
ATOM     20  C   UNL     1      -3.436  -1.103  25.677  0.00  0.00    +0.046 A 
ATOM     21  C   UNL     1      -2.676  -1.407  25.771  0.00  0.00    +0.044 A 
ATOM     22  C   UNL     1      -2.177  -1.011  25.246  0.00  0.00    +0.180 A 
ATOM     23  O   UNL     1      -2.629  -0.463  24.829  0.00  0.00    -0.446 OA
ENDBRANCH  17  19
ENDBRANCH  15  16
ENDBRANCH  14  15
TORSDOF 7
ENDMDL
MODEL 3
REMARK VINA RESULT:      -8.6      1.916      3.700
REMARK  Name = 
REMARK  7 active torsions:
REMARK  status: ('A' for Active; 'I' for Inactive)
REMARK    1  A    between atoms: C_5  and  C_6
REMARK    2  A    between atoms: C_6  and  C_7
REMARK    3  A    between atoms: N_9  and  C_10
REMARK    4  A    between atoms: C_10  and  C_11
REMARK    5  A    between atoms: C_14  and  C_15
REMARK    6  A    between atoms: C_15  and  N_16
REMARK    7  A    between atoms: C_17  and  C_19
REMARK                            x       y       z     vdW  Elec       q    Type
REMARK                         _______ _______ _______ _____ _____    ______ ____
ROOT
ATOM      1  O   UNL     1      -0.854   2.526  23.888  0.00  0.00    -0.218 OA
ATOM      2  C   UNL     1      -1.200   1.802  24.078  0.00  0.00    +0.213 C 
ATOM      3  C   UNL     1      -0.800   1.094  24.216  0.00  0.00    +0.212 C 
ATOM      4  O   UNL     1       0.017   0.986  24.190  0.00  0.00    -0.218 OA
ATOM      5  C   UNL     1      -1.361   0.514  24.386  0.00  0.00    +0.157 C 
ATOM     13  O   UNL     1      -2.108   0.863  24.352  0.00  0.00    -0.351 OA
ATOM     14  C   UNL     1      -2.009   1.659  24.162  0.00  0.00    +0.170 C 
ENDROOT
BRANCH   5   6
ATOM      6  C   UNL     1      -1.203  -0.278  24.559  0.00  0.00    +0.119 C 
BRANCH   6   7
ATOM      7  C   UNL     1      -1.741  -0.718  25.003  0.00  0.00    +0.245 C 
ATOM      8  O   UNL     1      -1.810  -0.588  25.815  0.00  0.00    -0.273 OA
ATOM      9  N   UNL     1      -2.210  -1.288  24.635  0.00  0.00    -0.191 NA
BRANCH   9  10
ATOM     10  C   UNL     1      -2.749  -1.728  25.079  0.00  0.00    +0.191 C 
BRANCH  10  11
ATOM     11  C   UNL     1      -3.246  -2.270  24.705  0.00  0.00    -0.054 C 
ATOM     12  C   UNL     1      -3.744  -2.811  24.331  0.00  0.00    -0.012 C 
ENDBRANCH  10  11
ENDBRANCH   9  10
ENDBRANCH   6   7
ENDBRANCH   5   6
BRANCH  14  15
ATOM     15  C   UNL     1      -2.612   2.215  24.071  0.00  0.00    +0.148 C 
BRANCH  15  16
ATOM     16  N   UNL     1      -3.322   2.123  24.481  0.00  0.00    -0.196 NA
ATOM     17  C   UNL     1      -3.955   2.630  24.326  0.00  0.00    +0.300 C 
ATOM     18  O   UNL     1      -3.878   3.227  23.764  0.00  0.00    -0.265 OA
BRANCH  17  19
ATOM     19  C   UNL     1      -4.666   2.538  24.736  0.00  0.00    +0.200 A 
ATOM     20  C   UNL     1      -4.926   3.004  25.366  0.00  0.00    +0.046 A 
ATOM     21  C   UNL     1      -5.661   2.719  25.606  0.00  0.00    +0.044 A 
ATOM     22  C   UNL     1      -5.856   2.077  25.126  0.00  0.00    +0.180 A 
ATOM     23  O   UNL     1      -5.240   1.966  24.588  0.00  0.00    -0.446 OA
ENDBRANCH  17  19
ENDBRANCH  15  16
ENDBRANCH  14  15
TORSDOF 7
ENDMDL
MODEL 4
REMARK VINA RESULT:      -8.5      1.865      4.795
REMARK  Name = 
REMARK  7 active torsions:
REMARK  status: ('A' for Active; 'I' for Inactive)
REMARK    1  A    between atoms: C_5  and  C_6
REMARK    2  A    between atoms: C_6  and  C_7
REMARK    3  A    between atoms: N_9  and  C_10
REMARK    4  A    between atoms: C_10  and  C_11
REMARK    5  A    between atoms: C_14  and  C_15
REMARK    6  A    between atoms: C_15  and  N_16
REMARK    7  A    between atoms: C_17  and  C_19
REMARK                            x       y       z     vdW  Elec       q    Type
REMARK                         _______ _______ _______ _____ _____    ______ ____
ROOT
ATOM      1  O   UNL     1      -0.013   1.651  25.474  0.00  0.00    -0.218 OA
ATOM      2  C   UNL     1      -0.812   1.766  25.305  0.00  0.00    +0.213 C 
ATOM      3  C   UNL     1      -1.192   2.494  25.224  0.00  0.00    +0.212 C 
ATOM      4  O   UNL     1      -0.838   3.235  25.297  0.00  0.00    -0.218 OA
ATOM      5  C   UNL     1      -1.986   2.350  25.056  0.00  0.00    +0.157 C 
ATOM     13  O   UNL     1      -2.099   1.532  25.034  0.00  0.00    -0.351 OA
ATOM     14  C   UNL     1      -1.373   1.171  25.188  0.00  0.00    +0.170 C 
ENDROOT
BRANCH   5   6
ATOM      6  C   UNL     1      -2.568   2.923  24.933  0.00  0.00    +0.119 C 
BRANCH   6   7
ATOM      7  C   UNL     1      -3.250   2.733  24.510  0.00  0.00    +0.245 C 
ATOM      8  O   UNL     1      -3.215   2.635  23.691  0.00  0.00    -0.273 OA
ATOM      9  N   UNL     1      -3.967   2.640  24.906  0.00  0.00    -0.191 NA
BRANCH   9  10
ATOM     10  C   UNL     1      -4.651   2.450  24.483  0.00  0.00    +0.191 C 
BRANCH  10  11
ATOM     11  C   UNL     1      -5.344   2.258  24.886  0.00  0.00    -0.054 C 
ATOM     12  C   UNL     1      -6.039   2.066  25.288  0.00  0.00    -0.012 C 
ENDBRANCH  10  11
ENDBRANCH   9  10
ENDBRANCH   6   7
ENDBRANCH   5   6
BRANCH  14  15
ATOM     15  C   UNL     1      -1.233   0.359  25.219  0.00  0.00    +0.148 C 
BRANCH  15  16
ATOM     16  N   UNL     1      -1.844  -0.172  25.060  0.00  0.00    -0.196 NA
ATOM     17  C   UNL     1      -1.714  -0.984  25.132  0.00  0.00    +0.300 C 
ATOM     18  O   UNL     1      -0.974  -1.264  25.362  0.00  0.00    -0.265 OA
BRANCH  17  19
ATOM     19  C   UNL     1      -2.325  -1.515  24.972  0.00  0.00    +0.200 A 
ATOM     20  C   UNL     1      -3.017  -1.604  25.413  0.00  0.00    +0.046 A 
ATOM     21  C   UNL     1      -3.470  -2.194  25.058  0.00  0.00    +0.044 A 
ATOM     22  C   UNL     1      -3.060  -2.469  24.397  0.00  0.00    +0.180 A 
ATOM     23  O   UNL     1      -2.352  -2.049  24.345  0.00  0.00    -0.446 OA
ENDBRANCH  17  19
ENDBRANCH  15  16
ENDBRANCH  14  15
TORSDOF 7
ENDMDL
MODEL 5
REMARK VINA RESULT:      -8.4      1.652      3.302
REMARK  Name = 
REMARK  7 active torsions:
REMARK  status: ('A' for Active; 'I' for Inactive)
REMARK    1  A    between atoms: C_5  and  C_6
REMARK    2  A    between atoms: C_6  and  C_7
REMARK    3  A    between atoms: N_9  and  C_10
REMARK    4  A    between atoms: C_10  and  C_11
REMARK    5  A    between atoms: C_14  and  C_15
REMARK    6  A    between atoms: C_15  and  N_16
REMARK    7  A    between atoms: C_17  and  C_19
REMARK                            x       y       z     vdW  Elec       q    Type
REMARK                         _______ _______ _______ _____ _____    ______ ____
ROOT
ATOM      1  O   UNL     1      -0.358  -0.399  24.993  0.00  0.00    -0.218 OA
ATOM      2  C   UNL     1      -1.138  -0.135  25.029  0.00  0.00    +0.213 C 
ATOM      3  C   UNL     1      -1.812  -0.593  24.903  0.00  0.00    +0.212 C 
ATOM      4  O   UNL     1      -1.824  -1.398  24.720  0.00  0.00    -0.218 OA
ATOM      5  C   UNL     1      -2.472  -0.107  24.993  0.00  0.00    +0.157 C 
ATOM     13  O   UNL     1      -2.206   0.653  25.174  0.00  0.00    -0.351 OA
ATOM     14  C   UNL     1      -1.382   0.636  25.196  0.00  0.00    +0.170 C 
ENDROOT
BRANCH   5   6
ATOM      6  C   UNL     1      -3.261  -0.339  24.916  0.00  0.00    +0.119 C 
BRANCH   6   7
ATOM      7  C   UNL     1      -3.803   0.161  24.547  0.00  0.00    +0.245 C 
ATOM      8  O   UNL     1      -3.784   0.257  23.728  0.00  0.00    -0.273 OA
ATOM      9  N   UNL     1      -4.364   0.564  24.997  0.00  0.00    -0.191 NA
BRANCH   9  10
ATOM     10  C   UNL     1      -4.907   1.065  24.628  0.00  0.00    +0.191 C 
BRANCH  10  11
ATOM     11  C   UNL     1      -5.389   1.555  25.083  0.00  0.00    -0.054 C 
ATOM     12  C   UNL     1      -5.873   2.046  25.537  0.00  0.00    -0.012 C 
ENDBRANCH  10  11
ENDBRANCH   9  10
ENDBRANCH   6   7
ENDBRANCH   5   6
BRANCH  14  15
ATOM     15  C   UNL     1      -0.888   1.276  25.357  0.00  0.00    +0.148 C 
BRANCH  15  16
ATOM     16  N   UNL     1      -1.157   2.047  25.233  0.00  0.00    -0.196 NA
ATOM     17  C   UNL     1      -0.721   2.687  25.519  0.00  0.00    +0.300 C 
ATOM     18  O   UNL     1      -0.018   2.557  25.929  0.00  0.00    -0.265 OA
BRANCH  17  19
ATOM     19  C   UNL     1      -0.990   3.457  25.395  0.00  0.00    +0.200 A 
ATOM     20  C   UNL     1      -0.589   4.051  24.988  0.00  0.00    +0.046 A 
ATOM     21  C   UNL     1      -1.058   4.729  24.998  0.00  0.00    +0.044 A 
ATOM     22  C   UNL     1      -1.750   4.554  25.411  0.00  0.00    +0.180 A 
ATOM     23  O   UNL     1      -1.708   3.768  25.657  0.00  0.00    -0.446 OA
ENDBRANCH  17  19
ENDBRANCH  15  16
ENDBRANCH  14  15
TORSDOF 7
ENDMDL
