MODEL 1
REMARK VINA RESULT:     -11.8      0.000      0.000
REMARK  Name = 
REMARK  4 active torsions:
REMARK  status: ('A' for Active; 'I' for Inactive)
REMARK    1  A    between atoms: C_1  and  C_2
REMARK    2  A    between atoms: C_1  and  C_18
REMARK    3  A    between atoms: C_5  and  C_7
REMARK    4  A    between atoms: N_10  and  C_12
REMARK                            x       y       z     vdW  Elec       q    Type
REMARK                         _______ _______ _______ _____ _____    ______ ____
ROOT
ATOM      2  C   UNL     1      -2.590  -0.458  25.487  0.00  0.00    +0.230 A 
ATOM      3  N   UNL     1      -1.789  -0.623  25.596  0.00  0.00    -0.111 NA
ATOM      4  N   UNL     1      -1.357   0.039  25.360  0.00  0.00    -0.112 NA
ATOM      5  C   UNL     1      -1.891   0.614  25.105  0.00  0.00    +0.227 A 
ATOM      6  O   UNL     1      -2.653   0.307  25.183  0.00  0.00    -0.423 OA
ENDROOT
BRANCH   5   7
ATOM      7  C   UNL     1      -1.698   1.364  24.821  0.00  0.00    +0.095 C 
ATOM      8  C   UNL     1      -1.386   1.535  24.076  0.00  0.00    +0.028 C 
ATOM      9  C   UNL     1      -1.278   2.351  24.026  0.00  0.00    +0.073 C 
ATOM     10  N   UNL     1      -1.522   2.685  24.741  0.00  0.00    -0.273 NA
ATOM     11  C   UNL     1      -1.781   2.075  25.232  0.00  0.00    +0.081 C 
BRANCH  10  12
ATOM     12  C   UNL     1      -1.508   3.487  24.930  0.00  0.00    +0.063 C 
ATOM     13  C   UNL     1      -2.179   3.848  25.249  0.00  0.00    +0.048 C 
ATOM     14  C   UNL     1      -2.165   4.650  25.439  0.00  0.00    +0.144 C 
ATOM     15  O   UNL     1      -1.480   5.093  25.309  0.00  0.00    -0.354 OA
ATOM     16  C   UNL     1      -0.811   4.733  24.991  0.00  0.00    +0.144 C 
ATOM     17  C   UNL     1      -0.824   3.930  24.801  0.00  0.00    +0.048 C 
ENDBRANCH  10  12
ENDBRANCH   5   7
BRANCH   2   1
ATOM      1  C   UNL     1      -3.217  -0.968  25.652  0.00  0.00    +0.113 C 
BRANCH   1  18
ATOM     18  C   UNL     1      -3.495  -1.481  25.070  0.00  0.00    -0.013 A 
ATOM     19  C   UNL     1      -3.234  -2.264  25.052  0.00  0.00    -0.004 A 
ATOM     20  C   UNL     1      -3.512  -2.779  24.469  0.00  0.00    -0.000 A 
ATOM     21  C   UNL     1      -4.050  -2.510  23.905  0.00  0.00    -0.000 A 
ATOM     22  C   UNL     1      -4.311  -1.727  23.923  0.00  0.00    -0.000 A 
ATOM     23  C   UNL     1      -4.033  -1.214  24.505  0.00  0.00    -0.004 A 
ENDBRANCH   1  18
ENDBRANCH   2   1
TORSDOF 4
ENDMDL
MODEL 2
REMARK VINA RESULT:     -11.8      1.690      5.437
REMARK  Name = 
REMARK  4 active torsions:
REMARK  status: ('A' for Active; 'I' for Inactive)
REMARK    1  A    between atoms: C_1  and  C_2
REMARK    2  A    between atoms: C_1  and  C_18
REMARK    3  A    between atoms: C_5  and  C_7
REMARK    4  A    between atoms: N_10  and  C_12
REMARK                            x       y       z     vdW  Elec       q    Type
REMARK                         _______ _______ _______ _____ _____    ______ ____
ROOT
ATOM      2  C   UNL     1      -3.357   3.452  25.342  0.00  0.00    +0.230 A 
ATOM      3  N   UNL     1      -3.776   3.614  24.650  0.00  0.00    -0.111 NA
ATOM      4  N   UNL     1      -4.158   2.921  24.416  0.00  0.00    -0.112 NA
ATOM      5  C   UNL     1      -3.976   2.331  24.963  0.00  0.00    +0.227 A 
ATOM      6  O   UNL     1      -3.481   2.660  25.536  0.00  0.00    -0.423 OA
ENDROOT
BRANCH   5   7
ATOM      7  C   UNL     1      -4.242   1.551  24.942  0.00  0.00    +0.095 C 
ATOM      8  C   UNL     1      -5.028   1.305  24.999  0.00  0.00    +0.028 C 
ATOM      9  C   UNL     1      -5.042   0.482  24.953  0.00  0.00    +0.073 C 
ATOM     10  N   UNL     1      -4.264   0.218  24.868  0.00  0.00    -0.273 NA
ATOM     11  C   UNL     1      -3.770   0.879  24.862  0.00  0.00    +0.081 C 
BRANCH  10  12
ATOM     12  C   UNL     1      -4.023  -0.567  24.801  0.00  0.00    +0.063 C 
ATOM     13  C   UNL     1      -4.210  -1.001  24.125  0.00  0.00    +0.048 C 
ATOM     14  C   UNL     1      -3.969  -1.787  24.058  0.00  0.00    +0.144 C 
ATOM     15  O   UNL     1      -3.540  -2.140  24.670  0.00  0.00    -0.354 OA
ATOM     16  C   UNL     1      -3.354  -1.707  25.345  0.00  0.00    +0.144 C 
ATOM     17  C   UNL     1      -3.595  -0.920  25.412  0.00  0.00    +0.048 C 
ENDBRANCH  10  12
ENDBRANCH   5   7
BRANCH   2   1
ATOM      1  C   UNL     1      -2.895   3.989  25.766  0.00  0.00    +0.113 C 
BRANCH   1  18
ATOM     18  C   UNL     1      -2.132   4.168  25.510  0.00  0.00    -0.013 A 
ATOM     19  C   UNL     1      -1.981   4.887  25.135  0.00  0.00    -0.004 A 
ATOM     20  C   UNL     1      -1.217   5.067  24.879  0.00  0.00    -0.000 A 
ATOM     21  C   UNL     1      -0.605   4.526  24.998  0.00  0.00    -0.000 A 
ATOM     22  C   UNL     1      -0.756   3.807  25.373  0.00  0.00    -0.000 A 
ATOM     23  C   UNL     1      -1.519   3.628  25.629  0.00  0.00    -0.004 A 
ENDBRANCH   1  18
ENDBRANCH   2   1
TORSDOF 4
ENDMDL
MODEL 3
REMARK VINA RESULT:     -11.6      1.209      5.410
REMARK  Name = 
REMARK  4 active torsions:
REMARK  status: ('A' for Active; 'I' for Inactive)
REMARK    1  A    between atoms: C_1  and  C_2
REMARK    2  A    between atoms: C_1  and  C_18
REMARK    3  A    between atoms: C_5  and  C_7
REMARK    4  A    between atoms: N_10  and  C_12
REMARK                            x       y       z     vdW  Elec       q    Type
REMARK                         _______ _______ _______ _____ _____    ______ ____
ROOT
ATOM      2  C   UNL     1      -1.471   2.253  24.894  0.00  0.00    +0.230 A 
ATOM      3  N   UNL     1      -1.337   2.123  24.091  0.00  0.00    -0.111 NA
ATOM      4  N   UNL     1      -1.851   1.529  23.839  0.00  0.00    -0.112 NA
ATOM      5  C   UNL     1      -2.303   1.291  24.487  0.00  0.00    +0.227 A 
ATOM      6  O   UNL     1      -2.069   1.739  25.140  0.00  0.00    -0.423 OA
ENDROOT
BRANCH   5   7
ATOM      7  C   UNL     1      -2.887   0.709  24.484  0.00  0.00    +0.095 C 
ATOM      8  C   UNL     1      -3.702   0.839  24.503  0.00  0.00    +0.028 C 
ATOM      9  C   UNL     1      -4.078   0.105  24.492  0.00  0.00    +0.073 C 
ATOM     10  N   UNL     1      -3.496  -0.479  24.465  0.00  0.00    -0.273 NA
ATOM     11  C   UNL     1      -2.760  -0.106  24.460  0.00  0.00    +0.081 C 
BRANCH  10  12
ATOM     12  C   UNL     1      -3.627  -1.293  24.446  0.00  0.00    +0.063 C 
ATOM     13  C   UNL     1      -3.291  -1.779  25.023  0.00  0.00    +0.048 C 
ATOM     14  C   UNL     1      -3.422  -2.592  25.004  0.00  0.00    +0.144 C 
ATOM     15  O   UNL     1      -3.889  -2.922  24.408  0.00  0.00    -0.354 OA
ATOM     16  C   UNL     1      -4.224  -2.437  23.832  0.00  0.00    +0.144 C 
ATOM     17  C   UNL     1      -4.093  -1.622  23.851  0.00  0.00    +0.048 C 
ENDBRANCH  10  12
ENDBRANCH   5   7
BRANCH   2   1
ATOM      1  C   UNL     1      -1.078   2.801  25.370  0.00  0.00    +0.113 C 
BRANCH   1  18
ATOM     18  C   UNL     1      -1.249   3.605  25.300  0.00  0.00    -0.013 A 
ATOM     19  C   UNL     1      -1.942   3.909  25.628  0.00  0.00    -0.004 A 
ATOM     20  C   UNL     1      -2.113   4.713  25.558  0.00  0.00    -0.000 A 
ATOM     21  C   UNL     1      -1.591   5.213  25.161  0.00  0.00    -0.000 A 
ATOM     22  C   UNL     1      -0.897   4.909  24.833  0.00  0.00    -0.000 A 
ATOM     23  C   UNL     1      -0.727   4.105  24.903  0.00  0.00    -0.004 A 
ENDBRANCH   1  18
ENDBRANCH   2   1
TORSDOF 4
ENDMDL
