MODEL 1
REMARK VINA RESULT:     -13.1      0.000      0.000
REMARK  Name = 
REMARK  3 active torsions:
REMARK  status: ('A' for Active; 'I' for Inactive)
REMARK    1  A    between atoms: O_2  and  C_3
REMARK    2  A    between atoms: C_6  and  C_9
REMARK    3  A    between atoms: C_17  and  C_19
REMARK                            x       y       z     vdW  Elec       q    Type
REMARK                         _______ _______ _______ _____ _____    ______ ____
ROOT
ATOM      9  C   UNL     1      -3.686   0.353  24.749  0.00  0.00    +0.012 A 
ATOM     10  C   UNL     1      -2.941   0.699  24.827  0.00  0.00    +0.041 A 
ATOM     11  C   UNL     1      -2.050   0.477  24.853  0.00  0.00    +0.058 C 
ATOM     12  C   UNL     1      -1.619  -0.076  24.819  0.00  0.00    +0.011 C 
ATOM     13  C   UNL     1      -1.556   0.731  24.908  0.00  0.00    +0.043 C 
ATOM     14  C   UNL     1      -1.278   1.672  25.022  0.00  0.00    +0.096 C 
ATOM     15  N   UNL     1      -2.027   2.041  25.019  0.00  0.00    -0.274 N 
ATOM     16  C   UNL     1      -1.765   1.381  24.964  0.00  0.00    +0.100 C 
ATOM     17  C   UNL     1      -2.587   2.647  25.051  0.00  0.00    +0.268 C 
ATOM     18  O   UNL     1      -3.391   2.470  24.988  0.00  0.00    -0.268 OA
ATOM     25  C   UNL     1      -2.485   0.973  24.881  0.00  0.00    +0.110 C 
ATOM     26  N   UNL     1      -2.874   1.517  24.917  0.00  0.00    -0.299 N 
ATOM     27  C   UNL     1      -3.551   1.988  24.928  0.00  0.00    +0.261 A 
ATOM     28  O   UNL     1      -3.740   2.787  25.002  0.00  0.00    -0.267 OA
ATOM     29  C   UNL     1      -4.295   1.642  24.850  0.00  0.00    +0.061 A 
ATOM     30  C   UNL     1      -4.363   0.824  24.761  0.00  0.00    +0.006 A 
ENDROOT
BRANCH   9   6
ATOM      3  C   UNL     1      -3.888  -2.100  24.480  0.00  0.00    +0.139 A 
ATOM      4  C   UNL     1      -3.802  -1.773  25.232  0.00  0.00    +0.037 A 
ATOM      5  C   UNL     1      -3.735  -0.955  25.322  0.00  0.00    +0.003 A 
ATOM      6  C   UNL     1      -3.753  -0.465  24.659  0.00  0.00    +0.001 A 
ATOM      7  C   UNL     1      -3.838  -0.791  23.907  0.00  0.00    +0.003 A 
ATOM      8  C   UNL     1      -3.906  -1.609  23.817  0.00  0.00    +0.037 A 
BRANCH   3   2
ATOM      1  C   UNL     1      -3.283  -3.393  24.435  0.00  0.00    +0.252 C 
ATOM      2  O   UNL     1      -3.955  -2.916  24.391  0.00  0.00    -0.471 OA
ENDBRANCH   3   2
ENDBRANCH   9   6
BRANCH  17  19
ATOM     19  C   UNL     1      -2.343   3.429  25.147  0.00  0.00    +0.154 A 
ATOM     20  C   UNL     1      -2.371   3.782  25.892  0.00  0.00    +0.123 A 
ATOM     21  N   UNL     1      -2.127   4.565  25.988  0.00  0.00    -0.239 NA
ATOM     22  C   UNL     1      -1.855   4.994  25.338  0.00  0.00    +0.120 A 
ATOM     23  C   UNL     1      -1.826   4.642  24.593  0.00  0.00    +0.120 A 
ATOM     24  N   UNL     1      -2.070   3.859  24.497  0.00  0.00    -0.236 NA
ENDBRANCH  17  19
TORSDOF 3
ENDMDL
MODEL 2
REMARK VINA RESULT:     -12.9      1.668      4.859
REMARK  Name = 
REMARK  3 active torsions:
REMARK  status: ('A' for Active; 'I' for Inactive)
REMARK    1  A    between atoms: O_2  and  C_3
REMARK    2  A    between atoms: C_6  and  C_9
REMARK    3  A    between atoms: C_17  and  C_19
REMARK                            x       y       z     vdW  Elec       q    Type
REMARK                         _______ _______ _______ _____ _____    ______ ____
ROOT
ATOM      9  C   UNL     1      -1.390   1.818  25.219  0.00  0.00    +0.012 A 
ATOM     10  C   UNL     1      -2.064   1.482  24.882  0.00  0.00    +0.041 A 
ATOM     11  C   UNL     1      -2.812   1.712  24.401  0.00  0.00    +0.058 C 
ATOM     12  C   UNL     1      -3.133   2.266  24.114  0.00  0.00    +0.011 C 
ATOM     13  C   UNL     1      -3.261   1.465  24.181  0.00  0.00    +0.043 C 
ATOM     14  C   UNL     1      -3.587   0.532  24.154  0.00  0.00    +0.096 C 
ATOM     15  N   UNL     1      -2.974   0.157  24.581  0.00  0.00    -0.274 N 
ATOM     16  C   UNL     1      -3.140   0.816  24.366  0.00  0.00    +0.100 C 
ATOM     17  C   UNL     1      -2.547  -0.450  24.940  0.00  0.00    +0.268 C 
ATOM     18  O   UNL     1      -1.838  -0.283  25.328  0.00  0.00    -0.268 OA
ATOM     25  C   UNL     1      -2.482   1.215  24.684  0.00  0.00    +0.110 C 
ATOM     26  N   UNL     1      -2.196   0.670  24.948  0.00  0.00    -0.299 N 
ATOM     27  C   UNL     1      -1.655   0.195  25.351  0.00  0.00    +0.261 A 
ATOM     28  O   UNL     1      -1.565  -0.602  25.545  0.00  0.00    -0.267 OA
ATOM     29  C   UNL     1      -0.982   0.531  25.688  0.00  0.00    +0.061 A 
ATOM     30  C   UNL     1      -0.849   1.343  25.622  0.00  0.00    +0.006 A 
ENDROOT
BRANCH   9   6
ATOM      3  C   UNL     1      -0.993   4.254  25.022  0.00  0.00    +0.139 A 
ATOM      4  C   UNL     1      -0.680   3.738  24.460  0.00  0.00    +0.037 A 
ATOM      5  C   UNL     1      -0.812   2.926  24.525  0.00  0.00    +0.003 A 
ATOM      6  C   UNL     1      -1.258   2.630  25.154  0.00  0.00    +0.001 A 
ATOM      7  C   UNL     1      -1.571   3.146  25.716  0.00  0.00    +0.003 A 
ATOM      8  C   UNL     1      -1.438   3.958  25.650  0.00  0.00    +0.037 A 
BRANCH   3   2
ATOM      1  C   UNL     1      -1.491   5.593  25.020  0.00  0.00    +0.252 C 
ATOM      2  O   UNL     1      -0.860   5.064  24.956  0.00  0.00    -0.471 OA
ENDBRANCH   3   2
ENDBRANCH   9   6
BRANCH  17  19
ATOM     19  C   UNL     1      -2.828  -1.225  24.912  0.00  0.00    +0.154 A 
ATOM     20  C   UNL     1      -3.360  -1.492  25.483  0.00  0.00    +0.123 A 
ATOM     21  N   UNL     1      -3.642  -2.268  25.454  0.00  0.00    -0.239 NA
ATOM     22  C   UNL     1      -3.391  -2.775  24.854  0.00  0.00    +0.120 A 
ATOM     23  C   UNL     1      -2.859  -2.509  24.283  0.00  0.00    +0.120 A 
ATOM     24  N   UNL     1      -2.578  -1.733  24.312  0.00  0.00    -0.236 NA
ENDBRANCH  17  19
TORSDOF 3
ENDMDL
