MODEL 1
REMARK VINA RESULT:     -11.7      0.000      0.000
REMARK  Name = 
REMARK  6 active torsions:
REMARK  status: ('A' for Active; 'I' for Inactive)
REMARK    1  A    between atoms: C_2  and  O_10
REMARK    2  A    between atoms: N_3  and  C_4
REMARK    3  A    between atoms: O_10  and  C_11
REMARK    4  A    between atoms: C_15  and  N_19
REMARK    5  A    between atoms: N_19  and  S_20
REMARK    6  A    between atoms: S_20  and  C_23
REMARK                            x       y       z     vdW  Elec       q    Type
REMARK                         _______ _______ _______ _____ _____    ______ ____
ROOT
ATOM     11  C   UNL     1      -0.792  -0.632  24.804  0.00  0.00    +0.229 C 
ATOM     12  C   UNL     1      -0.466  -0.389  24.086  0.00  0.00    +0.188 C 
ATOM     13  O   UNL     1      -0.320   0.421  24.133  0.00  0.00    -0.348 OA
ATOM     14  C   UNL     1      -0.556   0.679  24.881  0.00  0.00    +0.166 C 
ATOM     15  C   UNL     1      -0.612   1.340  25.372  0.00  0.00    +0.157 C 
ATOM     16  C   UNL     1      -0.938   1.097  26.089  0.00  0.00    +0.164 C 
ATOM     17  O   UNL     1      -1.084   0.287  26.042  0.00  0.00    -0.348 OA
ATOM     18  C   UNL     1      -0.848   0.028  25.295  0.00  0.00    +0.186 C 
ENDROOT
BRANCH  11  10
ATOM     10  O   UNL     1      -1.022  -1.400  24.997  0.00  0.00    -0.432 OA
BRANCH  10   2
ATOM      1  O   UNL     1      -1.582  -2.090  23.878  0.00  0.00    -0.225 OA
ATOM      2  C   UNL     1      -1.672  -1.743  24.620  0.00  0.00    +0.421 C 
ATOM      3  N   UNL     1      -2.411  -1.738  24.987  0.00  0.00    -0.170 NA
BRANCH   3   4
ATOM      4  C   UNL     1      -3.061  -2.081  24.610  0.00  0.00    +0.099 C 
ATOM      5  C   UNL     1      -3.155  -2.900  24.614  0.00  0.00    +0.022 C 
ATOM      6  C   UNL     1      -3.804  -3.243  24.238  0.00  0.00    +0.002 C 
ATOM      7  C   UNL     1      -4.359  -2.767  23.857  0.00  0.00    +0.000 C 
ATOM      8  C   UNL     1      -4.265  -1.947  23.853  0.00  0.00    +0.002 C 
ATOM      9  C   UNL     1      -3.616  -1.604  24.229  0.00  0.00    +0.022 C 
ENDBRANCH   3   4
ENDBRANCH  10   2
ENDBRANCH  11  10
BRANCH  15  19
ATOM     19  N   UNL     1      -0.382   2.108  25.178  0.00  0.00    -0.074 NA
BRANCH  19  20
ATOM     20  S   UNL     1      -0.895   2.739  25.316  0.00  0.00    +0.078 S 
ATOM     21  O   UNL     1      -1.244   2.616  24.578  0.00  0.00    -0.152 OA
ATOM     22  O   UNL     1      -0.546   2.863  26.053  0.00  0.00    -0.152 OA
BRANCH  20  23
ATOM     23  C   UNL     1      -1.409   3.370  25.453  0.00  0.00    +0.141 A 
ATOM     24  C   UNL     1      -2.115   3.245  25.861  0.00  0.00    +0.022 A 
ATOM     25  C   UNL     1      -2.629   3.877  25.998  0.00  0.00    +0.001 A 
ATOM     26  C   UNL     1      -2.435   4.632  25.727  0.00  0.00    +0.002 A 
ATOM     27  C   UNL     1      -1.729   4.757  25.320  0.00  0.00    +0.019 A 
ATOM     28  C   UNL     1      -1.215   4.125  25.182  0.00  0.00    +0.100 A 
ATOM     29  N   UNL     1      -0.509   4.250  24.775  0.00  0.00    -0.242 NA
ATOM     30  C   UNL     1      -0.316   5.004  24.504  0.00  0.00    +0.099 A 
ATOM     31  C   UNL     1      -0.830   5.636  24.642  0.00  0.00    +0.021 A 
ATOM     32  C   UNL     1      -1.536   5.512  25.049  0.00  0.00    +0.003 A 
ENDBRANCH  20  23
ENDBRANCH  19  20
ENDBRANCH  15  19
TORSDOF 6
ENDMDL
MODEL 2
REMARK VINA RESULT:     -10.9      2.256      6.314
REMARK  Name = 
REMARK  6 active torsions:
REMARK  status: ('A' for Active; 'I' for Inactive)
REMARK    1  A    between atoms: C_2  and  O_10
REMARK    2  A    between atoms: N_3  and  C_4
REMARK    3  A    between atoms: O_10  and  C_11
REMARK    4  A    between atoms: C_15  and  N_19
REMARK    5  A    between atoms: N_19  and  S_20
REMARK    6  A    between atoms: S_20  and  C_23
REMARK                            x       y       z     vdW  Elec       q    Type
REMARK                         _______ _______ _______ _____ _____    ______ ____
ROOT
ATOM     11  C   UNL     1      -4.002   3.002  24.407  0.00  0.00    +0.229 C 
ATOM     12  C   UNL     1      -3.862   2.793  23.621  0.00  0.00    +0.188 C 
ATOM     13  O   UNL     1      -4.030   1.991  23.535  0.00  0.00    -0.348 OA
ATOM     14  C   UNL     1      -4.276   1.703  24.269  0.00  0.00    +0.166 C 
ATOM     15  C   UNL     1      -4.533   1.028  24.670  0.00  0.00    +0.157 C 
ATOM     16  C   UNL     1      -4.673   1.236  25.455  0.00  0.00    +0.164 C 
ATOM     17  O   UNL     1      -4.504   2.039  25.540  0.00  0.00    -0.348 OA
ATOM     18  C   UNL     1      -4.259   2.327  24.807  0.00  0.00    +0.186 C 
ENDROOT
BRANCH  11  10
ATOM     10  O   UNL     1      -3.905   3.752  24.734  0.00  0.00    -0.432 OA
BRANCH  10   2
ATOM      1  O   UNL     1      -3.054   4.572  23.931  0.00  0.00    -0.225 OA
ATOM      2  C   UNL     1      -3.194   4.158  24.630  0.00  0.00    +0.421 C 
ATOM      3  N   UNL     1      -2.622   4.149  25.226  0.00  0.00    -0.170 NA
BRANCH   3   4
ATOM      4  C   UNL     1      -1.912   4.555  25.121  0.00  0.00    +0.099 C 
ATOM      5  C   UNL     1      -1.904   5.380  25.120  0.00  0.00    +0.022 C 
ATOM      6  C   UNL     1      -1.193   5.786  25.016  0.00  0.00    +0.002 C 
ATOM      7  C   UNL     1      -0.491   5.367  24.912  0.00  0.00    +0.000 C 
ATOM      8  C   UNL     1      -0.497   4.542  24.913  0.00  0.00    +0.002 C 
ATOM      9  C   UNL     1      -1.208   4.136  25.018  0.00  0.00    +0.022 C 
ENDBRANCH   3   4
ENDBRANCH  10   2
ENDBRANCH  11  10
BRANCH  15  19
ATOM     19  N   UNL     1      -4.630   0.277  24.341  0.00  0.00    -0.074 NA
BRANCH  19  20
ATOM     20  S   UNL     1      -4.210  -0.364  24.646  0.00  0.00    +0.078 S 
ATOM     21  O   UNL     1      -3.601  -0.220  24.109  0.00  0.00    -0.152 OA
ATOM     22  O   UNL     1      -4.820  -0.507  25.183  0.00  0.00    -0.152 OA
BRANCH  20  23
ATOM     23  C   UNL     1      -3.790  -1.005  24.951  0.00  0.00    +0.141 A 
ATOM     24  C   UNL     1      -3.325  -0.909  25.626  0.00  0.00    +0.022 A 
ATOM     25  C   UNL     1      -2.904  -1.551  25.931  0.00  0.00    +0.001 A 
ATOM     26  C   UNL     1      -2.950  -2.287  25.562  0.00  0.00    +0.002 A 
ATOM     27  C   UNL     1      -3.416  -2.383  24.887  0.00  0.00    +0.019 A 
ATOM     28  C   UNL     1      -3.836  -1.741  24.582  0.00  0.00    +0.100 A 
ATOM     29  N   UNL     1      -4.302  -1.836  23.908  0.00  0.00    -0.242 NA
ATOM     30  C   UNL     1      -4.347  -2.572  23.539  0.00  0.00    +0.099 A 
ATOM     31  C   UNL     1      -3.927  -3.214  23.844  0.00  0.00    +0.021 A 
ATOM     32  C   UNL     1      -3.461  -3.119  24.518  0.00  0.00    +0.003 A 
ENDBRANCH  20  23
ENDBRANCH  19  20
ENDBRANCH  15  19
TORSDOF 6
ENDMDL
MODEL 3
REMARK VINA RESULT:     -10.9      1.081      5.713
REMARK  Name = 
REMARK  6 active torsions:
REMARK  status: ('A' for Active; 'I' for Inactive)
REMARK    1  A    between atoms: C_2  and  O_10
REMARK    2  A    between atoms: N_3  and  C_4
REMARK    3  A    between atoms: O_10  and  C_11
REMARK    4  A    between atoms: C_15  and  N_19
REMARK    5  A    between atoms: N_19  and  S_20
REMARK    6  A    between atoms: S_20  and  C_23
REMARK                            x       y       z     vdW  Elec       q    Type
REMARK                         _______ _______ _______ _____ _____    ______ ____
ROOT
ATOM     11  C   UNL     1      -0.042   1.698  24.802  0.00  0.00    +0.229 C 
ATOM     12  C   UNL     1       0.115   1.404  24.048  0.00  0.00    +0.188 C 
ATOM     13  O   UNL     1      -0.223   0.654  23.989  0.00  0.00    -0.348 OA
ATOM     14  C   UNL     1      -0.590   0.484  24.709  0.00  0.00    +0.166 C 
ATOM     15  C   UNL     1      -1.026  -0.085  25.118  0.00  0.00    +0.157 C 
ATOM     16  C   UNL     1      -1.184   0.209  25.872  0.00  0.00    +0.164 C 
ATOM     17  O   UNL     1      -0.846   0.959  25.930  0.00  0.00    -0.348 OA
ATOM     18  C   UNL     1      -0.479   1.129  25.211  0.00  0.00    +0.186 C 
ENDROOT
BRANCH  11  10
ATOM     10  O   UNL     1       0.194   2.431  25.096  0.00  0.00    -0.432 OA
BRANCH  10   2
ATOM      1  O   UNL     1      -0.378   3.303  24.119  0.00  0.00    -0.225 OA
ATOM      2  C   UNL     1      -0.237   3.109  24.908  0.00  0.00    +0.421 C 
ATOM      3  N   UNL     1      -0.527   3.594  25.510  0.00  0.00    -0.170 NA
BRANCH   3   4
ATOM      4  C   UNL     1      -0.958   4.272  25.322  0.00  0.00    +0.099 C 
ATOM      5  C   UNL     1      -0.581   4.916  24.969  0.00  0.00    +0.022 C 
ATOM      6  C   UNL     1      -1.012   5.594  24.781  0.00  0.00    +0.002 C 
ATOM      7  C   UNL     1      -1.819   5.628  24.946  0.00  0.00    +0.000 C 
ATOM      8  C   UNL     1      -2.197   4.985  25.300  0.00  0.00    +0.002 C 
ATOM      9  C   UNL     1      -1.766   4.307  25.488  0.00  0.00    +0.022 C 
ENDBRANCH   3   4
ENDBRANCH  10   2
ENDBRANCH  11  10
BRANCH  15  19
ATOM     19  N   UNL     1      -1.263  -0.818  24.823  0.00  0.00    -0.074 NA
BRANCH  19  20
ATOM     20  S   UNL     1      -2.058  -0.958  24.656  0.00  0.00    +0.078 S 
ATOM     21  O   UNL     1      -2.217  -1.018  25.464  0.00  0.00    -0.152 OA
ATOM     22  O   UNL     1      -1.899  -0.898  23.849  0.00  0.00    -0.152 OA
BRANCH  20  23
ATOM     23  C   UNL     1      -2.854  -1.098  24.489  0.00  0.00    +0.141 A 
ATOM     24  C   UNL     1      -3.380  -0.465  24.432  0.00  0.00    +0.022 A 
ATOM     25  C   UNL     1      -4.177  -0.605  24.264  0.00  0.00    +0.001 A 
ATOM     26  C   UNL     1      -4.446  -1.378  24.155  0.00  0.00    +0.002 A 
ATOM     27  C   UNL     1      -3.919  -2.011  24.213  0.00  0.00    +0.019 A 
ATOM     28  C   UNL     1      -3.123  -1.871  24.380  0.00  0.00    +0.100 A 
ATOM     29  N   UNL     1      -2.596  -2.503  24.438  0.00  0.00    -0.242 NA
ATOM     30  C   UNL     1      -2.865  -3.274  24.329  0.00  0.00    +0.099 A 
ATOM     31  C   UNL     1      -3.662  -3.414  24.162  0.00  0.00    +0.021 A 
ATOM     32  C   UNL     1      -4.188  -2.782  24.104  0.00  0.00    +0.003 A 
ENDBRANCH  20  23
ENDBRANCH  19  20
ENDBRANCH  15  19
TORSDOF 6
ENDMDL
MODEL 4
REMARK VINA RESULT:     -10.5      3.023      5.328
REMARK  Name = 
REMARK  6 active torsions:
REMARK  status: ('A' for Active; 'I' for Inactive)
REMARK    1  A    between atoms: C_2  and  O_10
REMARK    2  A    between atoms: N_3  and  C_4
REMARK    3  A    between atoms: O_10  and  C_11
REMARK    4  A    between atoms: C_15  and  N_19
REMARK    5  A    between atoms: N_19  and  S_20
REMARK    6  A    between atoms: S_20  and  C_23
REMARK                            x       y       z     vdW  Elec       q    Type
REMARK                         _______ _______ _______ _____ _____    ______ ____
ROOT
ATOM     11  C   UNL     1       1.132   0.457  23.253  0.00  0.00    +0.229 C 
ATOM     12  C   UNL     1       1.060   1.246  23.485  0.00  0.00    +0.188 C 
ATOM     13  O   UNL     1       0.369   1.320  23.929  0.00  0.00    -0.348 OA
ATOM     14  C   UNL     1       0.013   0.576  23.971  0.00  0.00    +0.166 C 
ATOM     15  C   UNL     1      -0.634   0.161  24.272  0.00  0.00    +0.157 C 
ATOM     16  C   UNL     1      -0.562  -0.626  24.040  0.00  0.00    +0.164 C 
ATOM     17  O   UNL     1       0.129  -0.700  23.596  0.00  0.00    -0.348 OA
ATOM     18  C   UNL     1       0.485   0.043  23.554  0.00  0.00    +0.186 C 
ENDROOT
BRANCH  11  10
ATOM     10  O   UNL     1       1.743   0.139  22.801  0.00  0.00    -0.432 OA
BRANCH  10   2
ATOM      1  O   UNL     1       2.749   1.001  23.337  0.00  0.00    -0.225 OA
ATOM      2  C   UNL     1       2.528   0.274  23.015  0.00  0.00    +0.421 C 
ATOM      3  N   UNL     1       3.094  -0.317  22.906  0.00  0.00    -0.170 NA
BRANCH   3   4
ATOM      4  C   UNL     1       3.879  -0.182  23.120  0.00  0.00    +0.099 C 
ATOM      5  C   UNL     1       4.293   0.453  22.794  0.00  0.00    +0.022 C 
ATOM      6  C   UNL     1       5.078   0.588  23.008  0.00  0.00    +0.002 C 
ATOM      7  C   UNL     1       5.450   0.089  23.548  0.00  0.00    +0.000 C 
ATOM      8  C   UNL     1       5.037  -0.547  23.875  0.00  0.00    +0.002 C 
ATOM      9  C   UNL     1       4.252  -0.682  23.661  0.00  0.00    +0.022 C 
ENDBRANCH   3   4
ENDBRANCH  10   2
ENDBRANCH  11  10
BRANCH  15  19
ATOM     19  N   UNL     1      -1.246   0.481  24.724  0.00  0.00    -0.074 NA
BRANCH  19  20
ATOM     20  S   UNL     1      -2.005   0.161  24.675  0.00  0.00    +0.078 S 
ATOM     21  O   UNL     1      -2.099   0.501  23.929  0.00  0.00    -0.152 OA
ATOM     22  O   UNL     1      -1.911  -0.179  25.421  0.00  0.00    -0.152 OA
BRANCH  20  23
ATOM     23  C   UNL     1      -2.764  -0.158  24.625  0.00  0.00    +0.141 A 
ATOM     24  C   UNL     1      -2.864  -0.960  24.462  0.00  0.00    +0.022 A 
ATOM     25  C   UNL     1      -3.624  -1.280  24.412  0.00  0.00    +0.001 A 
ATOM     26  C   UNL     1      -4.282  -0.796  24.526  0.00  0.00    +0.002 A 
ATOM     27  C   UNL     1      -4.183   0.006  24.690  0.00  0.00    +0.019 A 
ATOM     28  C   UNL     1      -3.423   0.326  24.740  0.00  0.00    +0.100 A 
ATOM     29  N   UNL     1      -3.323   1.128  24.903  0.00  0.00    -0.242 NA
ATOM     30  C   UNL     1      -3.981   1.611  25.017  0.00  0.00    +0.099 A 
ATOM     31  C   UNL     1      -4.741   1.291  24.968  0.00  0.00    +0.021 A 
ATOM     32  C   UNL     1      -4.841   0.489  24.804  0.00  0.00    +0.003 A 
ENDBRANCH  20  23
ENDBRANCH  19  20
ENDBRANCH  15  19
TORSDOF 6
ENDMDL
MODEL 5
REMARK VINA RESULT:     -10.2      2.893      4.718
REMARK  Name = 
REMARK  6 active torsions:
REMARK  status: ('A' for Active; 'I' for Inactive)
REMARK    1  A    between atoms: C_2  and  O_10
REMARK    2  A    between atoms: N_3  and  C_4
REMARK    3  A    between atoms: O_10  and  C_11
REMARK    4  A    between atoms: C_15  and  N_19
REMARK    5  A    between atoms: N_19  and  S_20
REMARK    6  A    between atoms: S_20  and  C_23
REMARK                            x       y       z     vdW  Elec       q    Type
REMARK                         _______ _______ _______ _____ _____    ______ ____
ROOT
ATOM     11  C   UNL     1       0.282   0.990  23.692  0.00  0.00    +0.229 C 
ATOM     12  C   UNL     1       0.506   1.516  24.286  0.00  0.00    +0.188 C 
ATOM     13  O   UNL     1      -0.168   1.917  24.540  0.00  0.00    -0.348 OA
ATOM     14  C   UNL     1      -0.810   1.639  24.102  0.00  0.00    +0.166 C 
ATOM     15  C   UNL     1      -1.624   1.716  23.988  0.00  0.00    +0.157 C 
ATOM     16  C   UNL     1      -1.848   1.190  23.394  0.00  0.00    +0.164 C 
ATOM     17  O   UNL     1      -1.173   0.789  23.140  0.00  0.00    -0.348 OA
ATOM     18  C   UNL     1      -0.532   1.067  23.577  0.00  0.00    +0.186 C 
ENDROOT
BRANCH  11  10
ATOM     10  O   UNL     1       0.782   0.479  23.283  0.00  0.00    -0.432 OA
BRANCH  10   2
ATOM      1  O   UNL     1       1.921   1.162  23.810  0.00  0.00    -0.225 OA
ATOM      2  C   UNL     1       1.599   0.593  23.308  0.00  0.00    +0.421 C 
ATOM      3  N   UNL     1       2.094   0.138  22.829  0.00  0.00    -0.170 NA
BRANCH   3   4
ATOM      4  C   UNL     1       2.911   0.252  22.854  0.00  0.00    +0.099 C 
ATOM      5  C   UNL     1       3.248   0.907  22.483  0.00  0.00    +0.022 C 
ATOM      6  C   UNL     1       4.065   1.022  22.508  0.00  0.00    +0.002 C 
ATOM      7  C   UNL     1       4.544   0.481  22.904  0.00  0.00    +0.000 C 
ATOM      8  C   UNL     1       4.209  -0.175  23.276  0.00  0.00    +0.002 C 
ATOM      9  C   UNL     1       3.392  -0.289  23.251  0.00  0.00    +0.022 C 
ENDBRANCH   3   4
ENDBRANCH  10   2
ENDBRANCH  11  10
BRANCH  15  19
ATOM     19  N   UNL     1      -2.125   2.228  24.398  0.00  0.00    -0.074 NA
BRANCH  19  20
ATOM     20  S   UNL     1      -2.902   2.003  24.559  0.00  0.00    +0.078 S 
ATOM     21  O   UNL     1      -2.673   1.753  25.311  0.00  0.00    -0.152 OA
ATOM     22  O   UNL     1      -3.130   2.253  23.807  0.00  0.00    -0.152 OA
BRANCH  20  23
ATOM     23  C   UNL     1      -3.679   1.778  24.721  0.00  0.00    +0.141 A 
ATOM     24  C   UNL     1      -3.917   0.998  24.593  0.00  0.00    +0.022 A 
ATOM     25  C   UNL     1      -4.695   0.773  24.754  0.00  0.00    +0.001 A 
ATOM     26  C   UNL     1      -5.233   1.328  25.044  0.00  0.00    +0.002 A 
ATOM     27  C   UNL     1      -4.995   2.108  25.172  0.00  0.00    +0.019 A 
ATOM     28  C   UNL     1      -4.217   2.333  25.010  0.00  0.00    +0.100 A 
ATOM     29  N   UNL     1      -3.978   3.112  25.138  0.00  0.00    -0.242 NA
ATOM     30  C   UNL     1      -4.516   3.665  25.427  0.00  0.00    +0.099 A 
ATOM     31  C   UNL     1      -5.294   3.440  25.589  0.00  0.00    +0.021 A 
ATOM     32  C   UNL     1      -5.532   2.662  25.461  0.00  0.00    +0.003 A 
ENDBRANCH  20  23
ENDBRANCH  19  20
ENDBRANCH  15  19
TORSDOF 6
ENDMDL
MODEL 6
REMARK VINA RESULT:      -9.7      1.950      2.619
REMARK  Name = 
REMARK  6 active torsions:
REMARK  status: ('A' for Active; 'I' for Inactive)
REMARK    1  A    between atoms: C_2  and  O_10
REMARK    2  A    between atoms: N_3  and  C_4
REMARK    3  A    between atoms: O_10  and  C_11
REMARK    4  A    between atoms: C_15  and  N_19
REMARK    5  A    between atoms: N_19  and  S_20
REMARK    6  A    between atoms: S_20  and  C_23
REMARK                            x       y       z     vdW  Elec       q    Type
REMARK                         _______ _______ _______ _____ _____    ______ ____
ROOT
ATOM     11  C   UNL     1      -4.572   0.555  24.634  0.00  0.00    +0.229 C 
ATOM     12  C   UNL     1      -4.789   0.810  25.388  0.00  0.00    +0.188 C 
ATOM     13  O   UNL     1      -4.483   1.567  25.500  0.00  0.00    -0.348 OA
ATOM     14  C   UNL     1      -4.077   1.781  24.814  0.00  0.00    +0.166 C 
ATOM     15  C   UNL     1      -3.636   2.382  24.459  0.00  0.00    +0.157 C 
ATOM     16  C   UNL     1      -3.419   2.127  23.705  0.00  0.00    +0.164 C 
ATOM     17  O   UNL     1      -3.726   1.369  23.594  0.00  0.00    -0.348 OA
ATOM     18  C   UNL     1      -4.132   1.155  24.279  0.00  0.00    +0.186 C 
ENDROOT
BRANCH  11  10
ATOM     10  O   UNL     1      -4.762  -0.172  24.294  0.00  0.00    -0.432 OA
BRANCH  10   2
ATOM      1  O   UNL     1      -4.296  -1.070  25.304  0.00  0.00    -0.225 OA
ATOM      2  C   UNL     1      -4.344  -0.850  24.510  0.00  0.00    +0.421 C 
ATOM      3  N   UNL     1      -3.974  -1.308  23.932  0.00  0.00    -0.170 NA
BRANCH   3   4
ATOM      4  C   UNL     1      -3.556  -1.986  24.148  0.00  0.00    +0.099 C 
ATOM      5  C   UNL     1      -3.950  -2.707  24.224  0.00  0.00    +0.022 C 
ATOM      6  C   UNL     1      -3.532  -3.385  24.440  0.00  0.00    +0.002 C 
ATOM      7  C   UNL     1      -2.720  -3.342  24.579  0.00  0.00    +0.000 C 
ATOM      8  C   UNL     1      -2.326  -2.621  24.503  0.00  0.00    +0.002 C 
ATOM      9  C   UNL     1      -2.744  -1.943  24.287  0.00  0.00    +0.022 C 
ENDBRANCH   3   4
ENDBRANCH  10   2
ENDBRANCH  11  10
BRANCH  15  19
ATOM     19  N   UNL     1      -3.446   3.109  24.799  0.00  0.00    -0.074 NA
BRANCH  19  20
ATOM     20  S   UNL     1      -2.655   3.321  24.903  0.00  0.00    +0.078 S 
ATOM     21  O   UNL     1      -2.756   3.293  25.721  0.00  0.00    -0.152 OA
ATOM     22  O   UNL     1      -2.555   3.349  24.085  0.00  0.00    -0.152 OA
BRANCH  20  23
ATOM     23  C   UNL     1      -1.865   3.533  25.007  0.00  0.00    +0.141 A 
ATOM     24  C   UNL     1      -1.295   2.951  25.136  0.00  0.00    +0.022 A 
ATOM     25  C   UNL     1      -0.504   3.163  25.240  0.00  0.00    +0.001 A 
ATOM     26  C   UNL     1      -0.284   3.958  25.215  0.00  0.00    +0.002 A 
ATOM     27  C   UNL     1      -0.854   4.541  25.086  0.00  0.00    +0.019 A 
ATOM     28  C   UNL     1      -1.645   4.328  24.982  0.00  0.00    +0.100 A 
ATOM     29  N   UNL     1      -2.215   4.911  24.853  0.00  0.00    -0.242 NA
ATOM     30  C   UNL     1      -1.995   5.705  24.828  0.00  0.00    +0.099 A 
ATOM     31  C   UNL     1      -1.203   5.917  24.933  0.00  0.00    +0.021 A 
ATOM     32  C   UNL     1      -0.634   5.335  25.061  0.00  0.00    +0.003 A 
ENDBRANCH  20  23
ENDBRANCH  19  20
ENDBRANCH  15  19
TORSDOF 6
ENDMDL
