MODEL 1
REMARK VINA RESULT:      -9.6      0.000      0.000
REMARK  Name = 
REMARK  7 active torsions:
REMARK  status: ('A' for Active; 'I' for Inactive)
REMARK    1  A    between atoms: C_2  and  N_4
REMARK    2  A    between atoms: N_7  and  C_8
REMARK    3  A    between atoms: C_8  and  C_9
REMARK    4  A    between atoms: C_13  and  C_14
REMARK    5  A    between atoms: C_14  and  C_15
REMARK    6  A    between atoms: N_17  and  C_18
REMARK    7  A    between atoms: C_25  and  C_26
REMARK                            x       y       z     vdW  Elec       q    Type
REMARK                         _______ _______ _______ _____ _____    ______ ____
ROOT
ATOM      9  C   UNL     1      -2.998   1.802  24.901  0.00  0.00    +0.043 C 
ATOM     10  C   UNL     1      -2.302   1.368  24.984  0.00  0.00    -0.033 C 
ATOM     11  C   UNL     1      -2.332   0.544  25.033  0.00  0.00    -0.048 C 
ATOM     12  C   UNL     1      -1.635   0.110  25.116  0.00  0.00    +0.026 C 
ATOM     13  C   UNL     1      -3.059   0.156  24.999  0.00  0.00    +0.027 C 
ATOM     24  C   UNL     1      -3.756   0.590  24.916  0.00  0.00    +0.005 C 
ATOM     25  C   UNL     1      -3.725   1.413  24.867  0.00  0.00    +0.006 C 
ENDROOT
BRANCH  25  26
ATOM     26  C   UNL     1      -4.422   1.846  24.784  0.00  0.00    +0.000 C 
ATOM     27  C   UNL     1      -4.836   2.093  25.455  0.00  0.00    +0.000 C 
ATOM     28  C   UNL     1      -4.705   2.034  24.032  0.00  0.00    +0.000 C 
ENDBRANCH  25  26
BRANCH   9   8
ATOM      8  C   UNL     1      -2.967   2.624  24.852  0.00  0.00    +0.121 C 
BRANCH   8   7
ATOM      4  N   UNL     1      -1.550   4.205  25.361  0.00  0.00    -0.189 NA
ATOM      5  C   UNL     1      -2.153   3.792  24.977  0.00  0.00    +0.339 C 
ATOM      6  O   UNL     1      -2.543   4.133  24.335  0.00  0.00    -0.249 OA
ATOM      7  N   UNL     1      -2.364   3.038  25.236  0.00  0.00    -0.187 NA
BRANCH   4   2
ATOM      1  C   UNL     1      -0.631   5.070  24.691  0.00  0.00    +0.023 C 
ATOM      2  C   UNL     1      -1.338   4.959  25.102  0.00  0.00    +0.097 C 
ATOM      3  C   UNL     1      -1.832   5.602  25.254  0.00  0.00    +0.023 C 
ENDBRANCH   4   2
ENDBRANCH   8   7
ENDBRANCH   9   8
BRANCH  13  14
ATOM     14  C   UNL     1      -3.089  -0.668  25.049  0.00  0.00    +0.091 C 
BRANCH  14  15
ATOM     15  C   UNL     1      -3.433  -1.030  25.706  0.00  0.00    +0.247 C 
ATOM     16  O   UNL     1      -3.519  -0.608  26.410  0.00  0.00    -0.273 OA
ATOM     17  N   UNL     1      -3.690  -1.812  25.658  0.00  0.00    -0.160 NA
BRANCH  17  18
ATOM     18  C   UNL     1      -3.603  -2.232  24.955  0.00  0.00    +0.154 A 
ATOM     19  C   UNL     1      -4.203  -2.216  24.388  0.00  0.00    +0.036 A 
ATOM     20  C   UNL     1      -4.116  -2.638  23.683  0.00  0.00    +0.005 A 
ATOM     21  C   UNL     1      -3.430  -3.074  23.546  0.00  0.00    +0.021 A 
ATOM     22  C   UNL     1      -2.831  -3.090  24.113  0.00  0.00    +0.100 A 
ATOM     23  N   UNL     1      -2.917  -2.670  24.816  0.00  0.00    -0.227 NA
ENDBRANCH  17  18
ENDBRANCH  14  15
ENDBRANCH  13  14
TORSDOF 7
ENDMDL
MODEL 2
REMARK VINA RESULT:      -8.8      2.688      4.532
REMARK  Name = 
REMARK  7 active torsions:
REMARK  status: ('A' for Active; 'I' for Inactive)
REMARK    1  A    between atoms: C_2  and  N_4
REMARK    2  A    between atoms: N_7  and  C_8
REMARK    3  A    between atoms: C_8  and  C_9
REMARK    4  A    between atoms: C_13  and  C_14
REMARK    5  A    between atoms: C_14  and  C_15
REMARK    6  A    between atoms: N_17  and  C_18
REMARK    7  A    between atoms: C_25  and  C_26
REMARK                            x       y       z     vdW  Elec       q    Type
REMARK                         _______ _______ _______ _____ _____    ______ ____
ROOT
ATOM      9  C   UNL     1      -1.287   1.612  24.222  0.00  0.00    +0.043 C 
ATOM     10  C   UNL     1      -1.850   1.190  23.790  0.00  0.00    -0.033 C 
ATOM     11  C   UNL     1      -2.649   1.389  23.851  0.00  0.00    -0.048 C 
ATOM     12  C   UNL     1      -3.213   0.967  23.419  0.00  0.00    +0.026 C 
ATOM     13  C   UNL     1      -2.884   2.008  24.342  0.00  0.00    +0.027 C 
ATOM     24  C   UNL     1      -2.321   2.430  24.774  0.00  0.00    +0.005 C 
ATOM     25  C   UNL     1      -1.522   2.231  24.713  0.00  0.00    +0.006 C 
ENDROOT
BRANCH  25  26
ATOM     26  C   UNL     1      -0.960   2.653  25.144  0.00  0.00    +0.000 C 
ATOM     27  C   UNL     1      -0.752   2.405  25.904  0.00  0.00    +0.000 C 
ATOM     28  C   UNL     1      -0.604   3.321  24.817  0.00  0.00    +0.000 C 
ENDBRANCH  25  26
BRANCH   9   8
ATOM      8  C   UNL     1      -0.489   1.413  24.161  0.00  0.00    +0.121 C 
BRANCH   8   7
ATOM      4  N   UNL     1       0.704  -0.094  23.125  0.00  0.00    -0.189 NA
ATOM      5  C   UNL     1       0.483   0.620  23.476  0.00  0.00    +0.339 C 
ATOM      6  O   UNL     1       1.011   1.253  23.493  0.00  0.00    -0.249 OA
ATOM      7  N   UNL     1      -0.267   0.699  23.810  0.00  0.00    -0.187 NA
BRANCH   4   2
ATOM      1  C   UNL     1       1.538  -0.220  21.971  0.00  0.00    +0.023 C 
ATOM      2  C   UNL     1       1.454  -0.174  22.792  0.00  0.00    +0.097 C 
ATOM      3  C   UNL     1       2.121  -0.206  23.277  0.00  0.00    +0.023 C 
ENDBRANCH   4   2
ENDBRANCH   8   7
ENDBRANCH   9   8
BRANCH  13  14
ATOM     14  C   UNL     1      -3.683   2.207  24.402  0.00  0.00    +0.091 C 
BRANCH  14  15
ATOM     15  C   UNL     1      -3.947   2.943  24.138  0.00  0.00    +0.247 C 
ATOM     16  O   UNL     1      -3.484   3.383  23.616  0.00  0.00    -0.273 OA
ATOM     17  N   UNL     1      -4.672   3.237  24.395  0.00  0.00    -0.160 NA
BRANCH  17  18
ATOM     18  C   UNL     1      -5.135   2.797  24.917  0.00  0.00    +0.154 A 
ATOM     19  C   UNL     1      -5.098   2.947  25.727  0.00  0.00    +0.036 A 
ATOM     20  C   UNL     1      -5.561   2.507  26.250  0.00  0.00    +0.005 A 
ATOM     21  C   UNL     1      -6.060   1.917  25.962  0.00  0.00    +0.021 A 
ATOM     22  C   UNL     1      -6.097   1.767  25.151  0.00  0.00    +0.100 A 
ATOM     23  N   UNL     1      -5.634   2.207  24.629  0.00  0.00    -0.227 NA
ENDBRANCH  17  18
ENDBRANCH  14  15
ENDBRANCH  13  14
TORSDOF 7
ENDMDL
MODEL 3
REMARK VINA RESULT:      -8.5      3.131      3.926
REMARK  Name = 
REMARK  7 active torsions:
REMARK  status: ('A' for Active; 'I' for Inactive)
REMARK    1  A    between atoms: C_2  and  N_4
REMARK    2  A    between atoms: N_7  and  C_8
REMARK    3  A    between atoms: C_8  and  C_9
REMARK    4  A    between atoms: C_13  and  C_14
REMARK    5  A    between atoms: C_14  and  C_15
REMARK    6  A    between atoms: N_17  and  C_18
REMARK    7  A    between atoms: C_25  and  C_26
REMARK                            x       y       z     vdW  Elec       q    Type
REMARK                         _______ _______ _______ _____ _____    ______ ____
ROOT
ATOM      9  C   UNL     1       0.089   0.184  23.905  0.00  0.00    +0.043 C 
ATOM     10  C   UNL     1       0.139  -0.632  24.011  0.00  0.00    -0.033 C 
ATOM     11  C   UNL     1      -0.509  -1.050  24.306  0.00  0.00    -0.048 C 
ATOM     12  C   UNL     1      -0.460  -1.867  24.413  0.00  0.00    +0.026 C 
ATOM     13  C   UNL     1      -1.206  -0.650  24.495  0.00  0.00    +0.027 C 
ATOM     24  C   UNL     1      -1.255   0.167  24.389  0.00  0.00    +0.005 C 
ATOM     25  C   UNL     1      -0.607   0.584  24.094  0.00  0.00    +0.006 C 
ENDROOT
BRANCH  25  26
ATOM     26  C   UNL     1      -0.657   1.400  23.987  0.00  0.00    +0.000 C 
ATOM     27  C   UNL     1      -0.341   1.910  24.555  0.00  0.00    +0.000 C 
ATOM     28  C   UNL     1      -1.022   1.708  23.315  0.00  0.00    +0.000 C 
ENDBRANCH  25  26
BRANCH   9   8
ATOM      8  C   UNL     1       0.737   0.601  23.609  0.00  0.00    +0.121 C 
BRANCH   8   7
ATOM      4  N   UNL     1       2.667   0.130  22.703  0.00  0.00    -0.189 NA
ATOM      5  C   UNL     1       2.080   0.527  23.128  0.00  0.00    +0.339 C 
ATOM      6  O   UNL     1       2.252   1.246  23.494  0.00  0.00    -0.249 OA
ATOM      7  N   UNL     1       1.323   0.204  23.185  0.00  0.00    -0.187 NA
BRANCH   4   2
ATOM      1  C   UNL     1       3.994   0.268  23.213  0.00  0.00    +0.023 C 
ATOM      2  C   UNL     1       3.424   0.452  22.646  0.00  0.00    +0.097 C 
ATOM      3  C   UNL     1       3.610   0.959  22.022  0.00  0.00    +0.023 C 
ENDBRANCH   4   2
ENDBRANCH   8   7
ENDBRANCH   9   8
BRANCH  13  14
ATOM     14  C   UNL     1      -1.854  -1.068  24.791  0.00  0.00    +0.091 C 
BRANCH  14  15
ATOM     15  C   UNL     1      -2.199  -0.843  25.506  0.00  0.00    +0.247 C 
ATOM     16  O   UNL     1      -1.753  -0.434  26.067  0.00  0.00    -0.273 OA
ATOM     17  N   UNL     1      -2.988  -1.026  25.659  0.00  0.00    -0.160 NA
BRANCH  17  18
ATOM     18  C   UNL     1      -3.432  -1.435  25.098  0.00  0.00    +0.154 A 
ATOM     19  C   UNL     1      -3.909  -1.019  24.568  0.00  0.00    +0.036 A 
ATOM     20  C   UNL     1      -4.354  -1.428  24.005  0.00  0.00    +0.005 A 
ATOM     21  C   UNL     1      -4.323  -2.252  23.975  0.00  0.00    +0.021 A 
ATOM     22  C   UNL     1      -3.847  -2.667  24.505  0.00  0.00    +0.100 A 
ATOM     23  N   UNL     1      -3.402  -2.259  25.066  0.00  0.00    -0.227 NA
ENDBRANCH  17  18
ENDBRANCH  14  15
ENDBRANCH  13  14
TORSDOF 7
ENDMDL
MODEL 4
REMARK VINA RESULT:      -8.4      1.031      5.452
REMARK  Name = 
REMARK  7 active torsions:
REMARK  status: ('A' for Active; 'I' for Inactive)
REMARK    1  A    between atoms: C_2  and  N_4
REMARK    2  A    between atoms: N_7  and  C_8
REMARK    3  A    between atoms: C_8  and  C_9
REMARK    4  A    between atoms: C_13  and  C_14
REMARK    5  A    between atoms: C_14  and  C_15
REMARK    6  A    between atoms: N_17  and  C_18
REMARK    7  A    between atoms: C_25  and  C_26
REMARK                            x       y       z     vdW  Elec       q    Type
REMARK                         _______ _______ _______ _____ _____    ______ ____
ROOT
ATOM      9  C   UNL     1      -3.472   1.133  24.732  0.00  0.00    +0.043 C 
ATOM     10  C   UNL     1      -2.656   1.087  24.847  0.00  0.00    -0.033 C 
ATOM     11  C   UNL     1      -2.229   1.767  25.039  0.00  0.00    -0.048 C 
ATOM     12  C   UNL     1      -1.413   1.722  25.154  0.00  0.00    +0.026 C 
ATOM     13  C   UNL     1      -2.617   2.491  25.116  0.00  0.00    +0.027 C 
ATOM     24  C   UNL     1      -3.434   2.536  25.001  0.00  0.00    +0.005 C 
ATOM     25  C   UNL     1      -3.860   1.856  24.809  0.00  0.00    +0.006 C 
ENDROOT
BRANCH  25  26
ATOM     26  C   UNL     1      -4.676   1.902  24.694  0.00  0.00    +0.000 C 
ATOM     27  C   UNL     1      -4.976   2.160  23.970  0.00  0.00    +0.000 C 
ATOM     28  C   UNL     1      -5.191   1.689  25.302  0.00  0.00    +0.000 C 
ENDBRANCH  25  26
BRANCH   9   8
ATOM      8  C   UNL     1      -3.899   0.453  24.540  0.00  0.00    +0.121 C 
BRANCH   8   7
ATOM      4  N   UNL     1      -3.439  -1.626  24.057  0.00  0.00    -0.189 NA
ATOM      5  C   UNL     1      -3.832  -0.961  24.350  0.00  0.00    +0.339 C 
ATOM      6  O   UNL     1      -4.549  -1.049  24.748  0.00  0.00    -0.249 OA
ATOM      7  N   UNL     1      -3.506  -0.211  24.247  0.00  0.00    -0.187 NA
BRANCH   4   2
ATOM      1  C   UNL     1      -4.366  -2.637  23.659  0.00  0.00    +0.023 C 
ATOM      2  C   UNL     1      -3.765  -2.376  24.161  0.00  0.00    +0.097 C 
ATOM      3  C   UNL     1      -3.490  -2.866  24.765  0.00  0.00    +0.023 C 
ENDBRANCH   4   2
ENDBRANCH   8   7
ENDBRANCH   9   8
BRANCH  13  14
ATOM     14  C   UNL     1      -2.190   3.171  25.308  0.00  0.00    +0.091 C 
BRANCH  14  15
ATOM     15  C   UNL     1      -2.395   3.613  25.973  0.00  0.00    +0.247 C 
ATOM     16  O   UNL     1      -2.881   3.284  26.553  0.00  0.00    -0.273 OA
ATOM     17  N   UNL     1      -2.115   4.384  26.058  0.00  0.00    -0.160 NA
BRANCH  17  18
ATOM     18  C   UNL     1      -1.629   4.712  25.478  0.00  0.00    +0.154 A 
ATOM     19  C   UNL     1      -1.933   5.275  24.957  0.00  0.00    +0.036 A 
ATOM     20  C   UNL     1      -1.447   5.605  24.376  0.00  0.00    +0.005 A 
ATOM     21  C   UNL     1      -0.658   5.370  24.318  0.00  0.00    +0.021 A 
ATOM     22  C   UNL     1      -0.355   4.808  24.840  0.00  0.00    +0.100 A 
ATOM     23  N   UNL     1      -0.840   4.479  25.419  0.00  0.00    -0.227 NA
ENDBRANCH  17  18
ENDBRANCH  14  15
ENDBRANCH  13  14
TORSDOF 7
ENDMDL
