MODEL 1
REMARK VINA RESULT:     -12.4      0.000      0.000
REMARK  Name = 
REMARK  7 active torsions:
REMARK  status: ('A' for Active; 'I' for Inactive)
REMARK    1  A    between atoms: O_2  and  C_3
REMARK    2  A    between atoms: C_3  and  C_4
REMARK    3  A    between atoms: C_4  and  C_5
REMARK    4  A    between atoms: N_7  and  C_8
REMARK    5  A    between atoms: N_16  and  S_18
REMARK    6  A    between atoms: S_18  and  C_21
REMARK    7  A    between atoms: C_24  and  O_25
REMARK                            x       y       z     vdW  Elec       q    Type
REMARK                         _______ _______ _______ _____ _____    ______ ____
ROOT
ATOM      8  C   UNL     1      -3.155   0.291  24.526  0.00  0.00    +0.129 A 
ATOM      9  C   UNL     1      -3.929   0.051  24.368  0.00  0.00    +0.023 A 
ATOM     10  C   UNL     1      -4.112  -0.752  24.327  0.00  0.00    +0.014 A 
ATOM     11  C   UNL     1      -3.521  -1.316  24.443  0.00  0.00    +0.041 A 
ATOM     12  C   UNL     1      -3.398  -2.226  24.464  0.00  0.00    +0.056 C 
ATOM     13  C   UNL     1      -3.747  -2.831  24.390  0.00  0.00    +0.011 C 
ATOM     14  C   UNL     1      -2.984  -2.591  24.545  0.00  0.00    +0.041 C 
ATOM     15  C   UNL     1      -2.020  -2.502  24.741  0.00  0.00    +0.098 C 
ATOM     16  N   UNL     1      -1.956  -1.669  24.758  0.00  0.00    -0.155 NA
ATOM     17  C   UNL     1      -2.464  -2.157  24.653  0.00  0.00    +0.102 C 
ATOM     29  C   UNL     1      -3.103  -1.638  24.526  0.00  0.00    +0.110 C 
ATOM     30  N   UNL     1      -2.748  -1.076  24.601  0.00  0.00    -0.298 N 
ATOM     31  C   UNL     1      -2.564  -0.273  24.643  0.00  0.00    +0.276 A 
ATOM     32  O   UNL     1      -1.791  -0.034  24.801  0.00  0.00    -0.266 OA
ENDROOT
BRANCH   8   7
ATOM      5  C   UNL     1      -3.576   1.651  24.645  0.00  0.00    +0.248 C 
ATOM      6  O   UNL     1      -3.393   2.455  24.686  0.00  0.00    -0.273 OA
ATOM      7  N   UNL     1      -2.973   1.094  24.567  0.00  0.00    -0.174 NA
BRANCH   5   4
ATOM      4  C   UNL     1      -4.363   1.404  24.681  0.00  0.00    +0.119 C 
BRANCH   4   3
ATOM      3  C   UNL     1      -4.959   1.952  24.844  0.00  0.00    +0.152 C 
BRANCH   3   2
ATOM      1  C   UNL     1      -6.304   2.166  25.275  0.00  0.00    +0.174 C 
ATOM      2  O   UNL     1      -5.746   1.705  24.880  0.00  0.00    -0.351 OA
ENDBRANCH   3   2
ENDBRANCH   4   3
ENDBRANCH   5   4
ENDBRANCH   8   7
BRANCH  16  18
ATOM     18  S   UNL     1      -1.607  -0.926  24.833  0.00  0.00    +0.063 S 
ATOM     19  O   UNL     1      -1.771  -0.930  25.642  0.00  0.00    -0.153 OA
ATOM     20  O   UNL     1      -1.442  -0.921  24.024  0.00  0.00    -0.153 OA
BRANCH  18  21
ATOM     21  C   UNL     1      -1.257  -0.182  24.908  0.00  0.00    +0.122 A 
ATOM     22  C   UNL     1      -0.953   0.200  24.243  0.00  0.00    +0.023 A 
ATOM     23  C   UNL     1      -0.603   0.943  24.318  0.00  0.00    +0.038 A 
ATOM     24  C   UNL     1      -0.558   1.305  25.057  0.00  0.00    +0.139 A 
ATOM     27  C   UNL     1      -0.863   0.924  25.722  0.00  0.00    +0.038 A 
ATOM     28  C   UNL     1      -1.212   0.180  25.648  0.00  0.00    +0.023 A 
BRANCH  24  25
ATOM     25  O   UNL     1      -0.209   2.049  25.132  0.00  0.00    -0.471 OA
ATOM     26  C   UNL     1       0.026   2.322  25.874  0.00  0.00    +0.252 C 
ENDBRANCH  24  25
ENDBRANCH  18  21
ENDBRANCH  16  18
TORSDOF 7
ENDMDL
MODEL 2
REMARK VINA RESULT:     -12.3      1.264      4.182
REMARK  Name = 
REMARK  7 active torsions:
REMARK  status: ('A' for Active; 'I' for Inactive)
REMARK    1  A    between atoms: O_2  and  C_3
REMARK    2  A    between atoms: C_3  and  C_4
REMARK    3  A    between atoms: C_4  and  C_5
REMARK    4  A    between atoms: N_7  and  C_8
REMARK    5  A    between atoms: N_16  and  S_18
REMARK    6  A    between atoms: S_18  and  C_21
REMARK    7  A    between atoms: C_24  and  O_25
REMARK                            x       y       z     vdW  Elec       q    Type
REMARK                         _______ _______ _______ _____ _____    ______ ____
ROOT
ATOM      8  C   UNL     1      -2.800   1.310  24.801  0.00  0.00    +0.129 A 
ATOM      9  C   UNL     1      -2.557   2.096  24.863  0.00  0.00    +0.023 A 
ATOM     10  C   UNL     1      -3.115   2.693  24.976  0.00  0.00    +0.014 A 
ATOM     11  C   UNL     1      -3.916   2.504  25.026  0.00  0.00    +0.041 A 
ATOM     12  C   UNL     1      -4.737   2.901  25.140  0.00  0.00    +0.056 C 
ATOM     13  C   UNL     1      -5.037   3.529  25.233  0.00  0.00    +0.011 C 
ATOM     14  C   UNL     1      -5.273   2.752  25.171  0.00  0.00    +0.041 C 
ATOM     15  C   UNL     1      -5.750   1.887  25.121  0.00  0.00    +0.098 C 
ATOM     16  N   UNL     1      -5.099   1.375  25.009  0.00  0.00    -0.155 NA
ATOM     17  C   UNL     1      -5.212   2.074  25.093  0.00  0.00    +0.102 C 
ATOM     29  C   UNL     1      -4.420   2.328  25.051  0.00  0.00    +0.110 C 
ATOM     30  N   UNL     1      -4.159   1.718  24.963  0.00  0.00    -0.298 N 
ATOM     31  C   UNL     1      -3.601   1.121  24.851  0.00  0.00    +0.276 A 
ATOM     32  O   UNL     1      -3.845   0.335  24.788  0.00  0.00    -0.266 OA
ENDROOT
BRANCH   8   7
ATOM      5  C   UNL     1      -1.451   0.848  24.879  0.00  0.00    +0.248 C 
ATOM      6  O   UNL     1      -0.892   0.250  24.766  0.00  0.00    -0.273 OA
ATOM      7  N   UNL     1      -2.242   0.713  24.689  0.00  0.00    -0.174 NA
BRANCH   5   4
ATOM      4  C   UNL     1      -1.217   1.579  25.182  0.00  0.00    +0.119 C 
BRANCH   4   3
ATOM      3  C   UNL     1      -0.482   1.657  25.548  0.00  0.00    +0.152 C 
BRANCH   3   2
ATOM      1  C   UNL     1       0.295   2.579  26.316  0.00  0.00    +0.174 C 
ATOM      2  O   UNL     1      -0.145   2.405  25.641  0.00  0.00    -0.351 OA
ENDBRANCH   3   2
ENDBRANCH   4   3
ENDBRANCH   5   4
ENDBRANCH   8   7
BRANCH  16  18
ATOM     18  S   UNL     1      -4.685   0.670  24.898  0.00  0.00    +0.063 S 
ATOM     19  O   UNL     1      -4.644   0.565  25.715  0.00  0.00    -0.153 OA
ATOM     20  O   UNL     1      -4.726   0.775  24.080  0.00  0.00    -0.153 OA
BRANCH  18  21
ATOM     21  C   UNL     1      -4.271  -0.035  24.786  0.00  0.00    +0.122 A 
ATOM     22  C   UNL     1      -4.016  -0.471  25.438  0.00  0.00    +0.023 A 
ATOM     23  C   UNL     1      -3.602  -1.176  25.327  0.00  0.00    +0.038 A 
ATOM     24  C   UNL     1      -3.443  -1.444  24.563  0.00  0.00    +0.139 A 
ATOM     27  C   UNL     1      -3.698  -1.008  23.911  0.00  0.00    +0.038 A 
ATOM     28  C   UNL     1      -4.112  -0.303  24.023  0.00  0.00    +0.023 A 
BRANCH  24  25
ATOM     25  O   UNL     1      -3.029  -2.149  24.452  0.00  0.00    -0.471 OA
ATOM     26  C   UNL     1      -3.392  -2.871  24.615  0.00  0.00    +0.252 C 
ENDBRANCH  24  25
ENDBRANCH  18  21
ENDBRANCH  16  18
TORSDOF 7
ENDMDL
MODEL 3
REMARK VINA RESULT:     -12.1      1.305      3.565
REMARK  Name = 
REMARK  7 active torsions:
REMARK  status: ('A' for Active; 'I' for Inactive)
REMARK    1  A    between atoms: O_2  and  C_3
REMARK    2  A    between atoms: C_3  and  C_4
REMARK    3  A    between atoms: C_4  and  C_5
REMARK    4  A    between atoms: N_7  and  C_8
REMARK    5  A    between atoms: N_16  and  S_18
REMARK    6  A    between atoms: S_18  and  C_21
REMARK    7  A    between atoms: C_24  and  O_25
REMARK                            x       y       z     vdW  Elec       q    Type
REMARK                         _______ _______ _______ _____ _____    ______ ____
ROOT
ATOM      8  C   UNL     1      -3.339   0.639  24.747  0.00  0.00    +0.129 A 
ATOM      9  C   UNL     1      -3.970   0.126  24.886  0.00  0.00    +0.023 A 
ATOM     10  C   UNL     1      -4.727   0.428  25.012  0.00  0.00    +0.014 A 
ATOM     11  C   UNL     1      -4.854   1.243  25.000  0.00  0.00    +0.041 A 
ATOM     12  C   UNL     1      -5.526   1.862  25.096  0.00  0.00    +0.056 C 
ATOM     13  C   UNL     1      -6.215   1.912  25.221  0.00  0.00    +0.011 C 
ATOM     14  C   UNL     1      -5.589   2.416  25.083  0.00  0.00    +0.041 C 
ATOM     15  C   UNL     1      -4.974   3.175  24.937  0.00  0.00    +0.098 C 
ATOM     16  N   UNL     1      -4.260   2.756  24.824  0.00  0.00    -0.155 NA
ATOM     17  C   UNL     1      -4.943   2.606  24.956  0.00  0.00    +0.102 C 
ATOM     29  C   UNL     1      -4.881   1.776  24.981  0.00  0.00    +0.110 C 
ATOM     30  N   UNL     1      -4.223   1.756  24.861  0.00  0.00    -0.298 N 
ATOM     31  C   UNL     1      -3.465   1.454  24.735  0.00  0.00    +0.276 A 
ATOM     32  O   UNL     1      -2.834   1.968  24.596  0.00  0.00    -0.266 OA
ENDROOT
BRANCH   8   7
ATOM      5  C   UNL     1      -2.463  -0.479  24.591  0.00  0.00    +0.248 C 
ATOM      6  O   UNL     1      -1.705  -0.781  24.464  0.00  0.00    -0.273 OA
ATOM      7  N   UNL     1      -2.582   0.337  24.621  0.00  0.00    -0.174 NA
BRANCH   5   4
ATOM      4  C   UNL     1      -3.102  -0.992  24.687  0.00  0.00    +0.119 C 
BRANCH   4   3
ATOM      3  C   UNL     1      -3.002  -1.802  24.558  0.00  0.00    +0.152 C 
BRANCH   3   2
ATOM      1  C   UNL     1      -3.609  -3.095  24.551  0.00  0.00    +0.174 C 
ATOM      2  O   UNL     1      -3.544  -2.339  24.873  0.00  0.00    -0.351 OA
ENDBRANCH   3   2
ENDBRANCH   4   3
ENDBRANCH   5   4
ENDBRANCH   8   7
BRANCH  16  18
ATOM     18  S   UNL     1      -3.457   2.627  24.681  0.00  0.00    +0.063 S 
ATOM     19  O   UNL     1      -3.307   2.669  25.492  0.00  0.00    -0.153 OA
ATOM     20  O   UNL     1      -3.607   2.586  23.871  0.00  0.00    -0.153 OA
BRANCH  18  21
ATOM     21  C   UNL     1      -2.654   2.499  24.539  0.00  0.00    +0.122 A 
ATOM     22  C   UNL     1      -2.383   2.398  23.767  0.00  0.00    +0.023 A 
ATOM     23  C   UNL     1      -1.581   2.270  23.625  0.00  0.00    +0.038 A 
ATOM     24  C   UNL     1      -1.050   2.243  24.255  0.00  0.00    +0.139 A 
ATOM     27  C   UNL     1      -1.320   2.344  25.027  0.00  0.00    +0.038 A 
ATOM     28  C   UNL     1      -2.123   2.472  25.170  0.00  0.00    +0.023 A 
BRANCH  24  25
ATOM     25  O   UNL     1      -0.247   2.114  24.113  0.00  0.00    -0.471 OA
ATOM     26  C   UNL     1       0.305   2.255  24.709  0.00  0.00    +0.252 C 
ENDBRANCH  24  25
ENDBRANCH  18  21
ENDBRANCH  16  18
TORSDOF 7
ENDMDL
MODEL 4
REMARK VINA RESULT:     -11.9      1.337      3.208
REMARK  Name = 
REMARK  7 active torsions:
REMARK  status: ('A' for Active; 'I' for Inactive)
REMARK    1  A    between atoms: O_2  and  C_3
REMARK    2  A    between atoms: C_3  and  C_4
REMARK    3  A    between atoms: C_4  and  C_5
REMARK    4  A    between atoms: N_7  and  C_8
REMARK    5  A    between atoms: N_16  and  S_18
REMARK    6  A    between atoms: S_18  and  C_21
REMARK    7  A    between atoms: C_24  and  O_25
REMARK                            x       y       z     vdW  Elec       q    Type
REMARK                         _______ _______ _______ _____ _____    ______ ____
ROOT
ATOM      8  C   UNL     1      -1.879   0.017  24.561  0.00  0.00    +0.129 A 
ATOM      9  C   UNL     1      -1.404  -0.649  24.668  0.00  0.00    +0.023 A 
ATOM     10  C   UNL     1      -1.740  -1.402  24.661  0.00  0.00    +0.014 A 
ATOM     11  C   UNL     1      -2.553  -1.489  24.547  0.00  0.00    +0.041 A 
ATOM     12  C   UNL     1      -3.199  -2.140  24.489  0.00  0.00    +0.056 C 
ATOM     13  C   UNL     1      -3.284  -2.836  24.517  0.00  0.00    +0.011 C 
ATOM     14  C   UNL     1      -3.750  -2.176  24.411  0.00  0.00    +0.041 C 
ATOM     15  C   UNL     1      -4.469  -1.514  24.268  0.00  0.00    +0.098 C 
ATOM     16  N   UNL     1      -4.019  -0.811  24.294  0.00  0.00    -0.155 NA
ATOM     17  C   UNL     1      -3.905  -1.511  24.350  0.00  0.00    +0.102 C 
ATOM     29  C   UNL     1      -3.082  -1.490  24.470  0.00  0.00    +0.110 C 
ATOM     30  N   UNL     1      -3.028  -0.823  24.440  0.00  0.00    -0.298 N 
ATOM     31  C   UNL     1      -2.691  -0.070  24.446  0.00  0.00    +0.276 A 
ATOM     32  O   UNL     1      -3.166   0.595  24.339  0.00  0.00    -0.266 OA
ENDROOT
BRANCH   8   7
ATOM      5  C   UNL     1      -0.761   0.874  24.321  0.00  0.00    +0.248 C 
ATOM      6  O   UNL     1      -0.424   1.627  24.328  0.00  0.00    -0.273 OA
ATOM      7  N   UNL     1      -1.541   0.769  24.567  0.00  0.00    -0.174 NA
BRANCH   5   4
ATOM      4  C   UNL     1      -0.318   0.226  24.067  0.00  0.00    +0.119 C 
BRANCH   4   3
ATOM      3  C   UNL     1       0.402   0.344  23.681  0.00  0.00    +0.152 C 
BRANCH   3   2
ATOM      1  C   UNL     1       1.423  -0.123  22.797  0.00  0.00    +0.174 C 
ATOM      2  O   UNL     1       0.706  -0.243  23.187  0.00  0.00    -0.351 OA
ENDBRANCH   3   2
ENDBRANCH   4   3
ENDBRANCH   5   4
ENDBRANCH   8   7
BRANCH  16  18
ATOM     18  S   UNL     1      -3.851  -0.003  24.273  0.00  0.00    +0.063 S 
ATOM     19  O   UNL     1      -3.733  -0.049  23.457  0.00  0.00    -0.153 OA
ATOM     20  O   UNL     1      -3.968   0.043  25.088  0.00  0.00    -0.153 OA
BRANCH  18  21
ATOM     21  C   UNL     1      -3.683   0.805  24.251  0.00  0.00    +0.122 A 
ATOM     22  C   UNL     1      -3.513   1.172  23.533  0.00  0.00    +0.023 A 
ATOM     23  C   UNL     1      -3.345   1.980  23.511  0.00  0.00    +0.038 A 
ATOM     24  C   UNL     1      -3.347   2.420  24.209  0.00  0.00    +0.139 A 
ATOM     27  C   UNL     1      -3.517   2.053  24.928  0.00  0.00    +0.038 A 
ATOM     28  C   UNL     1      -3.685   1.245  24.949  0.00  0.00    +0.023 A 
BRANCH  24  25
ATOM     25  O   UNL     1      -3.179   3.227  24.188  0.00  0.00    -0.471 OA
ATOM     26  C   UNL     1      -3.724   3.770  24.486  0.00  0.00    +0.252 C 
ENDBRANCH  24  25
ENDBRANCH  18  21
ENDBRANCH  16  18
TORSDOF 7
ENDMDL
MODEL 5
REMARK VINA RESULT:     -11.8      1.877      4.988
REMARK  Name = 
REMARK  7 active torsions:
REMARK  status: ('A' for Active; 'I' for Inactive)
REMARK    1  A    between atoms: O_2  and  C_3
REMARK    2  A    between atoms: C_3  and  C_4
REMARK    3  A    between atoms: C_4  and  C_5
REMARK    4  A    between atoms: N_7  and  C_8
REMARK    5  A    between atoms: N_16  and  S_18
REMARK    6  A    between atoms: S_18  and  C_21
REMARK    7  A    between atoms: C_24  and  O_25
REMARK                            x       y       z     vdW  Elec       q    Type
REMARK                         _______ _______ _______ _____ _____    ______ ____
ROOT
ATOM      8  C   UNL     1      -2.371   1.930  24.962  0.00  0.00    +0.129 A 
ATOM      9  C   UNL     1      -1.566   1.749  24.992  0.00  0.00    +0.023 A 
ATOM     10  C   UNL     1      -1.009   2.355  25.048  0.00  0.00    +0.014 A 
ATOM     11  C   UNL     1      -1.257   3.142  25.074  0.00  0.00    +0.041 A 
ATOM     12  C   UNL     1      -0.920   3.994  25.132  0.00  0.00    +0.056 C 
ATOM     13  C   UNL     1      -0.313   4.345  25.178  0.00  0.00    +0.011 C 
ATOM     14  C   UNL     1      -1.108   4.519  25.149  0.00  0.00    +0.041 C 
ATOM     15  C   UNL     1      -2.008   4.926  25.126  0.00  0.00    +0.098 C 
ATOM     16  N   UNL     1      -2.474   4.234  25.070  0.00  0.00    -0.155 NA
ATOM     17  C   UNL     1      -1.783   4.403  25.111  0.00  0.00    +0.102 C 
ATOM     29  C   UNL     1      -1.470   3.632  25.088  0.00  0.00    +0.110 C 
ATOM     30  N   UNL     1      -2.062   3.322  25.045  0.00  0.00    -0.298 N 
ATOM     31  C   UNL     1      -2.619   2.716  24.989  0.00  0.00    +0.276 A 
ATOM     32  O   UNL     1      -3.423   2.896  24.960  0.00  0.00    -0.266 OA
ENDROOT
BRANCH   8   7
ATOM      5  C   UNL     1      -2.684   0.536  24.939  0.00  0.00    +0.248 C 
ATOM      6  O   UNL     1      -3.241  -0.071  24.883  0.00  0.00    -0.273 OA
ATOM      7  N   UNL     1      -2.927   1.323  24.907  0.00  0.00    -0.174 NA
BRANCH   5   4
ATOM      4  C   UNL     1      -1.884   0.354  25.027  0.00  0.00    +0.119 C 
BRANCH   4   3
ATOM      3  C   UNL     1      -1.650  -0.426  25.159  0.00  0.00    +0.152 C 
BRANCH   3   2
ATOM      1  C   UNL     1      -0.611  -1.405  25.210  0.00  0.00    +0.174 C 
ATOM      2  O   UNL     1      -0.884  -0.665  24.969  0.00  0.00    -0.351 OA
ENDBRANCH   3   2
ENDBRANCH   4   3
ENDBRANCH   5   4
ENDBRANCH   8   7
BRANCH  16  18
ATOM     18  S   UNL     1      -3.149   3.763  25.015  0.00  0.00    +0.063 S 
ATOM     19  O   UNL     1      -3.192   3.728  25.839  0.00  0.00    -0.153 OA
ATOM     20  O   UNL     1      -3.107   3.799  24.192  0.00  0.00    -0.153 OA
BRANCH  18  21
ATOM     21  C   UNL     1      -3.825   3.292  24.960  0.00  0.00    +0.122 A 
ATOM     22  C   UNL     1      -4.105   3.058  24.221  0.00  0.00    +0.023 A 
ATOM     23  C   UNL     1      -4.781   2.587  24.166  0.00  0.00    +0.038 A 
ATOM     24  C   UNL     1      -5.175   2.352  24.851  0.00  0.00    +0.139 A 
ATOM     27  C   UNL     1      -4.895   2.586  25.590  0.00  0.00    +0.038 A 
ATOM     28  C   UNL     1      -4.219   3.057  25.645  0.00  0.00    +0.023 A 
BRANCH  24  25
ATOM     25  O   UNL     1      -5.851   1.881  24.796  0.00  0.00    -0.471 OA
ATOM     26  C   UNL     1      -6.372   1.831  25.433  0.00  0.00    +0.252 C 
ENDBRANCH  24  25
ENDBRANCH  18  21
ENDBRANCH  16  18
TORSDOF 7
ENDMDL
MODEL 6
REMARK VINA RESULT:     -11.7      1.822      3.914
REMARK  Name = 
REMARK  7 active torsions:
REMARK  status: ('A' for Active; 'I' for Inactive)
REMARK    1  A    between atoms: O_2  and  C_3
REMARK    2  A    between atoms: C_3  and  C_4
REMARK    3  A    between atoms: C_4  and  C_5
REMARK    4  A    between atoms: N_7  and  C_8
REMARK    5  A    between atoms: N_16  and  S_18
REMARK    6  A    between atoms: S_18  and  C_21
REMARK    7  A    between atoms: C_24  and  O_25
REMARK                            x       y       z     vdW  Elec       q    Type
REMARK                         _______ _______ _______ _____ _____    ______ ____
ROOT
ATOM      8  C   UNL     1      -2.738   2.210  24.876  0.00  0.00    +0.129 A 
ATOM      9  C   UNL     1      -3.313   2.801  24.922  0.00  0.00    +0.023 A 
ATOM     10  C   UNL     1      -3.088   3.589  25.012  0.00  0.00    +0.014 A 
ATOM     11  C   UNL     1      -2.289   3.788  25.055  0.00  0.00    +0.041 A 
ATOM     12  C   UNL     1      -1.739   4.518  25.148  0.00  0.00    +0.056 C 
ATOM     13  C   UNL     1      -1.758   5.216  25.221  0.00  0.00    +0.011 C 
ATOM     14  C   UNL     1      -1.194   4.631  25.175  0.00  0.00    +0.041 C 
ATOM     15  C   UNL     1      -0.376   4.077  25.139  0.00  0.00    +0.098 C 
ATOM     16  N   UNL     1      -0.722   3.322  25.050  0.00  0.00    -0.155 NA
ATOM     17  C   UNL     1      -0.939   3.997  25.115  0.00  0.00    +0.102 C 
ATOM     29  C   UNL     1      -1.760   3.862  25.078  0.00  0.00    +0.110 C 
ATOM     30  N   UNL     1      -1.714   3.197  25.009  0.00  0.00    -0.298 N 
ATOM     31  C   UNL     1      -1.939   2.409  24.919  0.00  0.00    +0.276 A 
ATOM     32  O   UNL     1      -1.364   1.818  24.873  0.00  0.00    -0.266 OA
ENDROOT
BRANCH   8   7
ATOM      5  C   UNL     1      -3.763   1.219  24.787  0.00  0.00    +0.248 C 
ATOM      6  O   UNL     1      -3.988   0.429  24.698  0.00  0.00    -0.273 OA
ATOM      7  N   UNL     1      -2.964   1.422  24.786  0.00  0.00    -0.174 NA
BRANCH   5   4
ATOM      4  C   UNL     1      -4.338   1.804  24.878  0.00  0.00    +0.119 C 
BRANCH   4   3
ATOM      3  C   UNL     1      -5.130   1.593  24.971  0.00  0.00    +0.152 C 
BRANCH   3   2
ATOM      1  C   UNL     1      -6.511   1.958  25.011  0.00  0.00    +0.174 C 
ATOM      2  O   UNL     1      -5.721   2.164  24.896  0.00  0.00    -0.351 OA
ENDBRANCH   3   2
ENDBRANCH   4   3
ENDBRANCH   5   4
ENDBRANCH   8   7
BRANCH  16  18
ATOM     18  S   UNL     1      -0.769   2.503  24.962  0.00  0.00    +0.063 S 
ATOM     19  O   UNL     1      -0.746   2.589  24.141  0.00  0.00    -0.153 OA
ATOM     20  O   UNL     1      -0.792   2.416  25.782  0.00  0.00    -0.153 OA
BRANCH  18  21
ATOM     21  C   UNL     1      -0.817   1.683  24.874  0.00  0.00    +0.122 A 
ATOM     22  C   UNL     1      -0.813   1.349  24.120  0.00  0.00    +0.023 A 
ATOM     23  C   UNL     1      -0.861   0.529  24.032  0.00  0.00    +0.038 A 
ATOM     24  C   UNL     1      -0.912   0.046  24.698  0.00  0.00    +0.139 A 
ATOM     27  C   UNL     1      -0.915   0.381  25.452  0.00  0.00    +0.038 A 
ATOM     28  C   UNL     1      -0.867   1.200  25.540  0.00  0.00    +0.023 A 
BRANCH  24  25
ATOM     25  O   UNL     1      -0.959  -0.773  24.611  0.00  0.00    -0.471 OA
ATOM     26  C   UNL     1      -0.520  -1.267  25.104  0.00  0.00    +0.252 C 
ENDBRANCH  24  25
ENDBRANCH  18  21
ENDBRANCH  16  18
TORSDOF 7
ENDMDL
