MODEL 1
REMARK VINA RESULT:     -13.5      0.000      0.000
REMARK  Name = 
REMARK  5 active torsions:
REMARK  status: ('A' for Active; 'I' for Inactive)
REMARK    1  A    between atoms: C_4  and  C_26
REMARK    2  A    between atoms: C_6  and  C_7
REMARK    3  A    between atoms: C_14  and  C_15
REMARK    4  A    between atoms: C_15  and  N_16
REMARK    5  A    between atoms: C_17  and  C_19
REMARK                            x       y       z     vdW  Elec       q    Type
REMARK                         _______ _______ _______ _____ _____    ______ ____
ROOT
ATOM      7  C   UNL     1      -0.536   0.766  24.020  0.00  0.00    +0.056 C 
ATOM      8  C   UNL     1      -0.143   1.298  23.610  0.00  0.00    +0.078 C 
ATOM      9  N   UNL     1       0.019   0.490  23.639  0.00  0.00    -0.272 NA
ATOM     10  C   UNL     1      -0.690   0.055  24.278  0.00  0.00    +0.072 C 
ATOM     11  C   UNL     1      -0.940  -0.471  24.575  0.00  0.00    +0.018 C 
ATOM     12  C   UNL     1      -0.370  -0.026  24.043  0.00  0.00    +0.010 C 
ATOM     13  C   UNL     1       0.249  -0.510  23.652  0.00  0.00    +0.018 C 
ATOM     14  C   UNL     1       0.659  -0.020  23.236  0.00  0.00    +0.079 C 
ENDROOT
BRANCH   7   6
ATOM      1  C   UNL     1      -0.433   1.671  25.566  0.00  0.00    +0.153 C 
ATOM      2  N   UNL     1      -1.128   1.448  25.180  0.00  0.00    -0.253 N 
ATOM      3  N   UNL     1      -1.896   1.602  25.436  0.00  0.00    -0.170 NA
ATOM      4  C   UNL     1      -2.418   1.281  24.885  0.00  0.00    +0.102 A 
ATOM      5  C   UNL     1      -1.972   0.928  24.287  0.00  0.00    +0.035 A 
ATOM      6  C   UNL     1      -1.175   1.032  24.470  0.00  0.00    +0.058 A 
BRANCH   4  26
ATOM     26  C   UNL     1      -3.242   1.307  24.924  0.00  0.00    +0.019 A 
ATOM     27  C   UNL     1      -3.627   2.031  25.018  0.00  0.00    +0.002 A 
ATOM     28  C   UNL     1      -4.452   2.057  25.057  0.00  0.00    +0.000 A 
ATOM     29  C   UNL     1      -4.889   1.360  25.002  0.00  0.00    +0.000 A 
ATOM     30  C   UNL     1      -5.713   1.386  25.041  0.00  0.00    +0.000 A 
ATOM     31  C   UNL     1      -6.099   2.110  25.136  0.00  0.00    +0.000 A 
ATOM     32  C   UNL     1      -5.660   2.806  25.191  0.00  0.00    +0.000 A 
ATOM     33  C   UNL     1      -4.837   2.780  25.152  0.00  0.00    +0.000 A 
ATOM     34  C   UNL     1      -4.504   0.636  24.908  0.00  0.00    +0.000 A 
ATOM     35  C   UNL     1      -3.680   0.610  24.869  0.00  0.00    +0.002 A 
ENDBRANCH   4  26
ENDBRANCH   7   6
BRANCH  14  15
ATOM     15  C   UNL     1       1.303   0.024  22.723  0.00  0.00    +0.131 C 
BRANCH  15  16
ATOM     16  N   UNL     1       2.070   0.063  23.026  0.00  0.00    -0.200 NA
ATOM     17  C   UNL     1       2.716   0.078  22.512  0.00  0.00    +0.265 C 
ATOM     18  O   UNL     1       2.595   0.053  21.698  0.00  0.00    -0.268 OA
BRANCH  17  19
ATOM     19  C   UNL     1       3.483   0.118  22.816  0.00  0.00    +0.055 A 
ATOM     20  C   UNL     1       3.912   0.820  22.760  0.00  0.00    +0.004 A 
ATOM     21  C   UNL     1       4.678   0.860  23.063  0.00  0.00    -0.004 A 
ATOM     22  C   UNL     1       5.015   0.198  23.422  0.00  0.00    -0.022 A 
ATOM     23  C   UNL     1       5.781   0.238  23.725  0.00  0.00    +0.031 C 
ATOM     24  C   UNL     1       4.586  -0.504  23.477  0.00  0.00    -0.004 A 
ATOM     25  C   UNL     1       3.819  -0.544  23.174  0.00  0.00    +0.004 A 
ENDBRANCH  17  19
ENDBRANCH  15  16
ENDBRANCH  14  15
TORSDOF 5
ENDMDL
MODEL 2
REMARK VINA RESULT:     -10.5      1.371      7.308
REMARK  Name = 
REMARK  5 active torsions:
REMARK  status: ('A' for Active; 'I' for Inactive)
REMARK    1  A    between atoms: C_4  and  C_26
REMARK    2  A    between atoms: C_6  and  C_7
REMARK    3  A    between atoms: C_14  and  C_15
REMARK    4  A    between atoms: C_15  and  N_16
REMARK    5  A    between atoms: C_17  and  C_19
REMARK                            x       y       z     vdW  Elec       q    Type
REMARK                         _______ _______ _______ _____ _____    ______ ____
ROOT
ATOM      7  C   UNL     1       0.275   0.003  23.527  0.00  0.00    +0.056 C 
ATOM      8  C   UNL     1      -0.127  -0.662  23.556  0.00  0.00    +0.078 C 
ATOM      9  N   UNL     1      -0.358   0.061  23.880  0.00  0.00    -0.272 NA
ATOM     10  C   UNL     1       0.402   0.751  23.668  0.00  0.00    +0.072 C 
ATOM     11  C   UNL     1       0.646   1.356  23.707  0.00  0.00    +0.018 C 
ATOM     12  C   UNL     1       0.041   0.709  23.848  0.00  0.00    +0.010 C 
ATOM     13  C   UNL     1      -0.677   0.943  24.295  0.00  0.00    +0.018 C 
ATOM     14  C   UNL     1      -1.102   0.312  24.345  0.00  0.00    +0.079 C 
ENDROOT
BRANCH   7   6
ATOM      1  C   UNL     1       0.532  -0.368  21.791  0.00  0.00    +0.153 C 
ATOM      2  N   UNL     1       1.120  -0.183  22.339  0.00  0.00    -0.253 N 
ATOM      3  N   UNL     1       1.929  -0.135  22.185  0.00  0.00    -0.170 NA
ATOM      4  C   UNL     1       2.311   0.065  22.888  0.00  0.00    +0.102 A 
ATOM      5  C   UNL     1       1.738   0.141  23.476  0.00  0.00    +0.035 A 
ATOM      6  C   UNL     1       1.003  -0.012  23.137  0.00  0.00    +0.058 A 
BRANCH   4  26
ATOM     26  C   UNL     1       3.124   0.170  22.985  0.00  0.00    +0.019 A 
ATOM     27  C   UNL     1       3.567  -0.398  23.387  0.00  0.00    +0.002 A 
ATOM     28  C   UNL     1       4.381  -0.293  23.484  0.00  0.00    +0.000 A 
ATOM     29  C   UNL     1       4.748   0.380  23.180  0.00  0.00    +0.000 A 
ATOM     30  C   UNL     1       5.561   0.485  23.277  0.00  0.00    +0.000 A 
ATOM     31  C   UNL     1       6.006  -0.083  23.679  0.00  0.00    +0.000 A 
ATOM     32  C   UNL     1       5.637  -0.755  23.982  0.00  0.00    +0.000 A 
ATOM     33  C   UNL     1       4.825  -0.861  23.885  0.00  0.00    +0.000 A 
ATOM     34  C   UNL     1       4.305   0.948  22.779  0.00  0.00    +0.000 A 
ATOM     35  C   UNL     1       3.491   0.843  22.681  0.00  0.00    +0.002 A 
ENDBRANCH   4  26
ENDBRANCH   7   6
BRANCH  14  15
ATOM     15  C   UNL     1      -1.815   0.025  24.644  0.00  0.00    +0.131 C 
BRANCH  15  16
ATOM     16  N   UNL     1      -2.489   0.501  24.632  0.00  0.00    -0.200 NA
ATOM     17  C   UNL     1      -3.195   0.225  24.958  0.00  0.00    +0.265 C 
ATOM     18  O   UNL     1      -3.227  -0.527  25.295  0.00  0.00    -0.268 OA
BRANCH  17  19
ATOM     19  C   UNL     1      -3.869   0.701  24.946  0.00  0.00    +0.055 A 
ATOM     20  C   UNL     1      -4.618   0.356  24.963  0.00  0.00    +0.004 A 
ATOM     21  C   UNL     1      -5.292   0.833  24.951  0.00  0.00    -0.004 A 
ATOM     22  C   UNL     1      -5.216   1.654  24.922  0.00  0.00    -0.022 A 
ATOM     23  C   UNL     1      -5.889   2.130  24.909  0.00  0.00    +0.031 C 
ATOM     24  C   UNL     1      -4.467   1.999  24.904  0.00  0.00    -0.004 A 
ATOM     25  C   UNL     1      -3.793   1.522  24.917  0.00  0.00    +0.004 A 
ENDBRANCH  17  19
ENDBRANCH  15  16
ENDBRANCH  14  15
TORSDOF 5
ENDMDL
