MODEL 1
REMARK VINA RESULT:     -11.3      0.000      0.000
REMARK  Name = 
REMARK  9 active torsions:
REMARK  status: ('A' for Active; 'I' for Inactive)
REMARK    1  A    between atoms: C_2  and  C_3
REMARK    2  A    between atoms: C_3  and  C_4
REMARK    3  A    between atoms: C_9  and  C_10
REMARK    4  A    between atoms: C_10  and  C_11
REMARK    5  A    between atoms: C_14  and  C_15
REMARK    6  A    between atoms: C_15  and  S_16
REMARK    7  A    between atoms: S_16  and  C_17
REMARK    8  A    between atoms: N_24  and  C_25
REMARK    9  A    between atoms: C_25  and  C_26
REMARK                            x       y       z     vdW  Elec       q    Type
REMARK                         _______ _______ _______ _____ _____    ______ ____
ROOT
ATOM      4  C   UNL     1      -1.331   3.383  25.418  0.00  0.00    +0.012 C 
ATOM      5  C   UNL     1      -1.216   4.056  24.953  0.00  0.00    +0.019 C 
ATOM      6  C   UNL     1      -0.629   4.062  24.374  0.00  0.00    +0.089 C 
ATOM      7  N   UNL     1      -0.156   3.395  24.259  0.00  0.00    -0.218 NA
ATOM      8  C   UNL     1      -0.270   2.724  24.723  0.00  0.00    +0.089 C 
ATOM      9  C   UNL     1      -0.857   2.717  25.302  0.00  0.00    +0.024 C 
ENDROOT
BRANCH   4   3
ATOM      3  C   UNL     1      -1.918   3.377  25.997  0.00  0.00    +0.087 C 
BRANCH   3   2
ATOM      1  O   UNL     1      -2.740   4.533  25.830  0.00  0.00    -0.273 OA
ATOM      2  C   UNL     1      -2.655   3.713  25.841  0.00  0.00    +0.242 C 
ATOM     24  N   UNL     1      -3.307   3.230  25.695  0.00  0.00    -0.200 NA
BRANCH  24  25
ATOM     25  C   UNL     1      -4.043   3.566  25.539  0.00  0.00    +0.148 C 
BRANCH  25  26
ATOM     26  C   UNL     1      -4.690   3.082  25.370  0.00  0.00    +0.029 A 
ATOM     27  C   UNL     1      -4.776   2.600  24.705  0.00  0.00    +0.004 A 
ATOM     28  C   UNL     1      -5.504   2.216  24.762  0.00  0.00    +0.007 A 
ATOM     29  C   UNL     1      -5.868   2.460  25.462  0.00  0.00    +0.035 A 
ATOM     30  S   UNL     1      -5.365   2.995  25.837  0.00  0.00    -0.089 S 
ENDBRANCH  25  26
ENDBRANCH  24  25
ENDBRANCH   3   2
ENDBRANCH   4   3
BRANCH   9  10
ATOM     10  C   UNL     1      -0.971   2.045  25.766  0.00  0.00    +0.051 C 
BRANCH  10  11
ATOM     11  C   UNL     1      -0.958   1.297  25.419  0.00  0.00    +0.100 A 
ATOM     12  N   UNL     1      -0.286   0.892  25.165  0.00  0.00    -0.082 NA
ATOM     13  O   UNL     1      -0.527   0.168  24.854  0.00  0.00    -0.357 OA
ATOM     14  C   UNL     1      -1.348   0.124  24.916  0.00  0.00    +0.165 A 
ATOM     23  C   UNL     1      -1.615   0.822  25.265  0.00  0.00    +0.054 A 
BRANCH  14  15
ATOM     15  C   UNL     1      -1.820  -0.507  24.671  0.00  0.00    +0.129 C 
BRANCH  15  16
ATOM     16  S   UNL     1      -2.566  -0.619  25.006  0.00  0.00    -0.105 S 
BRANCH  16  17
ATOM     17  C   UNL     1      -3.063  -1.211  24.718  0.00  0.00    +0.026 A 
ATOM     18  C   UNL     1      -3.700  -1.015  24.231  0.00  0.00    +0.006 A 
ATOM     19  C   UNL     1      -4.196  -1.607  23.943  0.00  0.00    +0.001 A 
ATOM     20  C   UNL     1      -4.057  -2.396  24.141  0.00  0.00    +0.000 A 
ATOM     21  C   UNL     1      -3.420  -2.592  24.628  0.00  0.00    +0.001 A 
ATOM     22  C   UNL     1      -2.924  -2.000  24.916  0.00  0.00    +0.006 A 
ENDBRANCH  16  17
ENDBRANCH  15  16
ENDBRANCH  14  15
ENDBRANCH  10  11
ENDBRANCH   9  10
TORSDOF 9
ENDMDL
MODEL 2
REMARK VINA RESULT:     -11.2      1.528      3.478
REMARK  Name = 
REMARK  9 active torsions:
REMARK  status: ('A' for Active; 'I' for Inactive)
REMARK    1  A    between atoms: C_2  and  C_3
REMARK    2  A    between atoms: C_3  and  C_4
REMARK    3  A    between atoms: C_9  and  C_10
REMARK    4  A    between atoms: C_10  and  C_11
REMARK    5  A    between atoms: C_14  and  C_15
REMARK    6  A    between atoms: C_15  and  S_16
REMARK    7  A    between atoms: S_16  and  C_17
REMARK    8  A    between atoms: N_24  and  C_25
REMARK    9  A    between atoms: C_25  and  C_26
REMARK                            x       y       z     vdW  Elec       q    Type
REMARK                         _______ _______ _______ _____ _____    ______ ____
ROOT
ATOM      4  C   UNL     1      -2.731   3.455  24.906  0.00  0.00    +0.012 C 
ATOM      5  C   UNL     1      -2.348   3.892  25.491  0.00  0.00    +0.019 C 
ATOM      6  C   UNL     1      -2.766   4.155  26.151  0.00  0.00    +0.089 C 
ATOM      7  N   UNL     1      -3.570   3.981  26.226  0.00  0.00    -0.218 NA
ATOM      8  C   UNL     1      -3.953   3.544  25.641  0.00  0.00    +0.089 C 
ATOM      9  C   UNL     1      -3.535   3.281  24.981  0.00  0.00    +0.024 C 
ENDROOT
BRANCH   4   3
ATOM      3  C   UNL     1      -2.312   3.192  24.246  0.00  0.00    +0.087 C 
BRANCH   3   2
ATOM      1  O   UNL     1      -0.946   3.511  24.516  0.00  0.00    -0.273 OA
ATOM      2  C   UNL     1      -1.525   2.957  24.324  0.00  0.00    +0.242 C 
ATOM     24  N   UNL     1      -1.317   2.167  24.209  0.00  0.00    -0.200 NA
BRANCH  24  25
ATOM     25  C   UNL     1      -0.531   1.932  24.287  0.00  0.00    +0.148 C 
BRANCH  25  26
ATOM     26  C   UNL     1      -0.331   1.133  24.228  0.00  0.00    +0.029 A 
ATOM     27  C   UNL     1      -0.480   0.552  24.796  0.00  0.00    +0.004 A 
ATOM     28  C   UNL     1      -0.188  -0.164  24.509  0.00  0.00    +0.007 A 
ATOM     29  C   UNL     1       0.141  -0.027  23.765  0.00  0.00    +0.035 A 
ATOM     30  S   UNL     1       0.053   0.775  23.591  0.00  0.00    -0.089 S 
ENDBRANCH  25  26
ENDBRANCH  24  25
ENDBRANCH   3   2
ENDBRANCH   4   3
BRANCH   9  10
ATOM     10  C   UNL     1      -3.918   2.844  24.396  0.00  0.00    +0.051 C 
BRANCH  10  11
ATOM     11  C   UNL     1      -4.329   2.157  24.597  0.00  0.00    +0.100 A 
ATOM     12  N   UNL     1      -5.103   2.121  24.880  0.00  0.00    -0.082 NA
ATOM     13  O   UNL     1      -5.290   1.328  25.008  0.00  0.00    -0.357 OA
ATOM     14  C   UNL     1      -4.632   0.874  24.804  0.00  0.00    +0.165 A 
ATOM     23  C   UNL     1      -4.038   1.386  24.551  0.00  0.00    +0.054 A 
BRANCH  14  15
ATOM     15  C   UNL     1      -4.578   0.052  24.848  0.00  0.00    +0.129 C 
BRANCH  15  16
ATOM     16  S   UNL     1      -4.088  -0.358  24.324  0.00  0.00    -0.105 S 
BRANCH  16  17
ATOM     17  C   UNL     1      -3.947  -1.163  24.436  0.00  0.00    +0.026 A 
ATOM     18  C   UNL     1      -3.542  -1.421  25.107  0.00  0.00    +0.006 A 
ATOM     19  C   UNL     1      -3.402  -2.226  25.219  0.00  0.00    +0.001 A 
ATOM     20  C   UNL     1      -3.665  -2.773  24.660  0.00  0.00    +0.000 A 
ATOM     21  C   UNL     1      -4.070  -2.514  23.989  0.00  0.00    +0.001 A 
ATOM     22  C   UNL     1      -4.210  -1.709  23.877  0.00  0.00    +0.006 A 
ENDBRANCH  16  17
ENDBRANCH  15  16
ENDBRANCH  14  15
ENDBRANCH  10  11
ENDBRANCH   9  10
TORSDOF 9
ENDMDL
MODEL 3
REMARK VINA RESULT:     -10.7      1.703      3.536
REMARK  Name = 
REMARK  9 active torsions:
REMARK  status: ('A' for Active; 'I' for Inactive)
REMARK    1  A    between atoms: C_2  and  C_3
REMARK    2  A    between atoms: C_3  and  C_4
REMARK    3  A    between atoms: C_9  and  C_10
REMARK    4  A    between atoms: C_10  and  C_11
REMARK    5  A    between atoms: C_14  and  C_15
REMARK    6  A    between atoms: C_15  and  S_16
REMARK    7  A    between atoms: S_16  and  C_17
REMARK    8  A    between atoms: N_24  and  C_25
REMARK    9  A    between atoms: C_25  and  C_26
REMARK                            x       y       z     vdW  Elec       q    Type
REMARK                         _______ _______ _______ _____ _____    ______ ____
ROOT
ATOM      4  C   UNL     1      -3.815   3.678  25.125  0.00  0.00    +0.012 C 
ATOM      5  C   UNL     1      -3.790   4.220  25.748  0.00  0.00    +0.019 C 
ATOM      6  C   UNL     1      -4.389   4.226  26.314  0.00  0.00    +0.089 C 
ATOM      7  N   UNL     1      -5.015   3.691  26.259  0.00  0.00    -0.218 NA
ATOM      8  C   UNL     1      -5.041   3.150  25.637  0.00  0.00    +0.089 C 
ATOM      9  C   UNL     1      -4.442   3.143  25.070  0.00  0.00    +0.024 C 
ENDROOT
BRANCH   4   3
ATOM      3  C   UNL     1      -3.216   3.672  24.559  0.00  0.00    +0.087 C 
BRANCH   3   2
ATOM      1  O   UNL     1      -2.266   4.685  24.897  0.00  0.00    -0.273 OA
ATOM      2  C   UNL     1      -2.449   3.891  24.768  0.00  0.00    +0.242 C 
ATOM     24  N   UNL     1      -1.863   3.316  24.849  0.00  0.00    -0.200 NA
BRANCH  24  25
ATOM     25  C   UNL     1      -1.096   3.535  25.058  0.00  0.00    +0.148 C 
BRANCH  25  26
ATOM     26  C   UNL     1      -0.539   2.956  25.248  0.00  0.00    +0.029 A 
ATOM     27  C   UNL     1      -0.266   2.777  26.006  0.00  0.00    +0.004 A 
ATOM     28  C   UNL     1       0.284   2.165  25.940  0.00  0.00    +0.007 A 
ATOM     29  C   UNL     1       0.351   1.966  25.142  0.00  0.00    +0.035 A 
ATOM     30  S   UNL     1      -0.158   2.455  24.714  0.00  0.00    -0.089 S 
ENDBRANCH  25  26
ENDBRANCH  24  25
ENDBRANCH   3   2
ENDBRANCH   4   3
BRANCH   9  10
ATOM     10  C   UNL     1      -4.467   2.602  24.448  0.00  0.00    +0.051 C 
BRANCH  10  11
ATOM     11  C   UNL     1      -4.704   1.824  24.588  0.00  0.00    +0.100 A 
ATOM     12  N   UNL     1      -5.481   1.560  24.670  0.00  0.00    -0.082 NA
ATOM     13  O   UNL     1      -5.461   0.747  24.803  0.00  0.00    -0.357 OA
ATOM     14  C   UNL     1      -4.672   0.507  24.804  0.00  0.00    +0.165 A 
ATOM     23  C   UNL     1      -4.203   1.173  24.672  0.00  0.00    +0.054 A 
BRANCH  14  15
ATOM     15  C   UNL     1      -4.399  -0.263  24.918  0.00  0.00    +0.129 C 
BRANCH  15  16
ATOM     16  S   UNL     1      -4.055  -0.677  24.292  0.00  0.00    -0.105 S 
BRANCH  16  17
ATOM     17  C   UNL     1      -3.860  -1.473  24.382  0.00  0.00    +0.026 A 
ATOM     18  C   UNL     1      -3.332  -1.704  24.973  0.00  0.00    +0.006 A 
ATOM     19  C   UNL     1      -3.137  -2.500  25.062  0.00  0.00    +0.001 A 
ATOM     20  C   UNL     1      -3.470  -3.066  24.561  0.00  0.00    +0.000 A 
ATOM     21  C   UNL     1      -3.997  -2.834  23.971  0.00  0.00    +0.001 A 
ATOM     22  C   UNL     1      -4.192  -2.038  23.881  0.00  0.00    +0.006 A 
ENDBRANCH  16  17
ENDBRANCH  15  16
ENDBRANCH  14  15
ENDBRANCH  10  11
ENDBRANCH   9  10
TORSDOF 9
ENDMDL
MODEL 4
REMARK VINA RESULT:     -10.7      1.616      4.395
REMARK  Name = 
REMARK  9 active torsions:
REMARK  status: ('A' for Active; 'I' for Inactive)
REMARK    1  A    between atoms: C_2  and  C_3
REMARK    2  A    between atoms: C_3  and  C_4
REMARK    3  A    between atoms: C_9  and  C_10
REMARK    4  A    between atoms: C_10  and  C_11
REMARK    5  A    between atoms: C_14  and  C_15
REMARK    6  A    between atoms: C_15  and  S_16
REMARK    7  A    between atoms: S_16  and  C_17
REMARK    8  A    between atoms: N_24  and  C_25
REMARK    9  A    between atoms: C_25  and  C_26
REMARK                            x       y       z     vdW  Elec       q    Type
REMARK                         _______ _______ _______ _____ _____    ______ ____
ROOT
ATOM      4  C   UNL     1      -2.454  -1.234  25.237  0.00  0.00    +0.012 C 
ATOM      5  C   UNL     1      -2.709  -1.840  24.738  0.00  0.00    +0.019 C 
ATOM      6  C   UNL     1      -2.164  -2.252  24.277  0.00  0.00    +0.089 C 
ATOM      7  N   UNL     1      -1.361  -2.060  24.316  0.00  0.00    -0.218 NA
ATOM      8  C   UNL     1      -1.106  -1.455  24.814  0.00  0.00    +0.089 C 
ATOM      9  C   UNL     1      -1.651  -1.042  25.276  0.00  0.00    +0.024 C 
ENDROOT
BRANCH   4   3
ATOM      3  C   UNL     1      -2.999  -0.822  25.698  0.00  0.00    +0.087 C 
BRANCH   3   2
ATOM      1  O   UNL     1      -4.248  -1.244  25.146  0.00  0.00    -0.273 OA
ATOM      2  C   UNL     1      -3.743  -0.639  25.392  0.00  0.00    +0.242 C 
ATOM     24  N   UNL     1      -3.983   0.147  25.331  0.00  0.00    -0.200 NA
BRANCH  24  25
ATOM     25  C   UNL     1      -4.727   0.329  25.026  0.00  0.00    +0.148 C 
BRANCH  25  26
ATOM     26  C   UNL     1      -4.965   1.117  24.963  0.00  0.00    +0.029 A 
ATOM     27  C   UNL     1      -4.617   1.693  24.485  0.00  0.00    +0.004 A 
ATOM     28  C   UNL     1      -5.031   2.398  24.593  0.00  0.00    +0.007 A 
ATOM     29  C   UNL     1      -5.636   2.259  25.138  0.00  0.00    +0.035 A 
ATOM     30  S   UNL     1      -5.595   1.467  25.366  0.00  0.00    -0.089 S 
ENDBRANCH  25  26
ENDBRANCH  24  25
ENDBRANCH   3   2
ENDBRANCH   4   3
BRANCH   9  10
ATOM     10  C   UNL     1      -1.396  -0.437  25.775  0.00  0.00    +0.051 C 
BRANCH  10  11
ATOM     11  C   UNL     1      -0.985   0.208  25.464  0.00  0.00    +0.100 A 
ATOM     12  N   UNL     1      -0.351   0.171  24.938  0.00  0.00    -0.082 NA
ATOM     13  O   UNL     1      -0.111   0.943  24.775  0.00  0.00    -0.357 OA
ATOM     14  C   UNL     1      -0.596   1.457  25.200  0.00  0.00    +0.165 A 
ATOM     23  C   UNL     1      -1.137   1.003  25.626  0.00  0.00    +0.054 A 
BRANCH  14  15
ATOM     15  C   UNL     1      -0.549   2.281  25.199  0.00  0.00    +0.129 C 
BRANCH  15  16
ATOM     16  S   UNL     1      -1.087   2.724  24.756  0.00  0.00    -0.105 S 
BRANCH  16  17
ATOM     17  C   UNL     1      -1.148   3.538  24.878  0.00  0.00    +0.026 A 
ATOM     18  C   UNL     1      -0.558   4.042  24.598  0.00  0.00    +0.006 A 
ATOM     19  C   UNL     1      -0.619   4.855  24.720  0.00  0.00    +0.001 A 
ATOM     20  C   UNL     1      -1.271   5.165  25.122  0.00  0.00    +0.000 A 
ATOM     21  C   UNL     1      -1.860   4.660  25.401  0.00  0.00    +0.001 A 
ATOM     22  C   UNL     1      -1.799   3.847  25.279  0.00  0.00    +0.006 A 
ENDBRANCH  16  17
ENDBRANCH  15  16
ENDBRANCH  14  15
ENDBRANCH  10  11
ENDBRANCH   9  10
TORSDOF 9
ENDMDL
MODEL 5
REMARK VINA RESULT:     -10.3      1.300      4.222
REMARK  Name = 
REMARK  9 active torsions:
REMARK  status: ('A' for Active; 'I' for Inactive)
REMARK    1  A    between atoms: C_2  and  C_3
REMARK    2  A    between atoms: C_3  and  C_4
REMARK    3  A    between atoms: C_9  and  C_10
REMARK    4  A    between atoms: C_10  and  C_11
REMARK    5  A    between atoms: C_14  and  C_15
REMARK    6  A    between atoms: C_15  and  S_16
REMARK    7  A    between atoms: S_16  and  C_17
REMARK    8  A    between atoms: N_24  and  C_25
REMARK    9  A    between atoms: C_25  and  C_26
REMARK                            x       y       z     vdW  Elec       q    Type
REMARK                         _______ _______ _______ _____ _____    ______ ____
ROOT
ATOM      4  C   UNL     1      -0.427   0.054  24.644  0.00  0.00    +0.012 C 
ATOM      5  C   UNL     1      -0.102  -0.372  24.016  0.00  0.00    +0.019 C 
ATOM      6  C   UNL     1       0.323   0.020  23.429  0.00  0.00    +0.089 C 
ATOM      7  N   UNL     1       0.425   0.839  23.469  0.00  0.00    -0.218 NA
ATOM      8  C   UNL     1       0.100   1.264  24.096  0.00  0.00    +0.089 C 
ATOM      9  C   UNL     1      -0.326   0.872  24.685  0.00  0.00    +0.024 C 
ENDROOT
BRANCH   4   3
ATOM      3  C   UNL     1      -0.853  -0.338  25.232  0.00  0.00    +0.087 C 
BRANCH   3   2
ATOM      1  O   UNL     1      -0.676  -1.751  25.114  0.00  0.00    -0.273 OA
ATOM      2  C   UNL     1      -1.165  -1.088  25.085  0.00  0.00    +0.242 C 
ATOM     24  N   UNL     1      -1.966  -1.174  24.908  0.00  0.00    -0.200 NA
BRANCH  24  25
ATOM     25  C   UNL     1      -2.277  -1.923  24.761  0.00  0.00    +0.148 C 
BRANCH  25  26
ATOM     26  C   UNL     1      -3.051  -2.001  24.482  0.00  0.00    +0.029 A 
ATOM     27  C   UNL     1      -3.565  -1.382  24.297  0.00  0.00    +0.004 A 
ATOM     28  C   UNL     1      -4.276  -1.711  24.041  0.00  0.00    +0.007 A 
ATOM     29  C   UNL     1      -4.203  -2.533  24.067  0.00  0.00    +0.035 A 
ATOM     30  S   UNL     1      -3.445  -2.712  24.340  0.00  0.00    -0.089 S 
ENDBRANCH  25  26
ENDBRANCH  24  25
ENDBRANCH   3   2
ENDBRANCH   4   3
BRANCH   9  10
ATOM     10  C   UNL     1      -0.651   1.298  25.312  0.00  0.00    +0.051 C 
BRANCH  10  11
ATOM     11  C   UNL     1      -1.151   1.937  25.162  0.00  0.00    +0.100 A 
ATOM     12  N   UNL     1      -0.936   2.645  24.798  0.00  0.00    -0.082 NA
ATOM     13  O   UNL     1      -1.606   3.125  24.761  0.00  0.00    -0.357 OA
ATOM     14  C   UNL     1      -2.234   2.714  25.102  0.00  0.00    +0.165 A 
ATOM     23  C   UNL     1      -1.953   1.979  25.350  0.00  0.00    +0.054 A 
BRANCH  14  15
ATOM     15  C   UNL     1      -3.008   2.989  25.182  0.00  0.00    +0.129 C 
BRANCH  15  16
ATOM     16  S   UNL     1      -3.595   2.726  24.664  0.00  0.00    -0.105 S 
BRANCH  16  17
ATOM     17  C   UNL     1      -4.382   2.707  24.910  0.00  0.00    +0.026 A 
ATOM     18  C   UNL     1      -4.712   3.362  25.289  0.00  0.00    +0.006 A 
ATOM     19  C   UNL     1      -5.499   3.343  25.535  0.00  0.00    +0.001 A 
ATOM     20  C   UNL     1      -5.957   2.669  25.402  0.00  0.00    +0.000 A 
ATOM     21  C   UNL     1      -5.627   2.015  25.023  0.00  0.00    +0.001 A 
ATOM     22  C   UNL     1      -4.839   2.034  24.777  0.00  0.00    +0.006 A 
ENDBRANCH  16  17
ENDBRANCH  15  16
ENDBRANCH  14  15
ENDBRANCH  10  11
ENDBRANCH   9  10
TORSDOF 9
ENDMDL
MODEL 6
REMARK VINA RESULT:      -9.9      1.808      4.895
REMARK  Name = 
REMARK  9 active torsions:
REMARK  status: ('A' for Active; 'I' for Inactive)
REMARK    1  A    between atoms: C_2  and  C_3
REMARK    2  A    between atoms: C_3  and  C_4
REMARK    3  A    between atoms: C_9  and  C_10
REMARK    4  A    between atoms: C_10  and  C_11
REMARK    5  A    between atoms: C_14  and  C_15
REMARK    6  A    between atoms: C_15  and  S_16
REMARK    7  A    between atoms: S_16  and  C_17
REMARK    8  A    between atoms: N_24  and  C_25
REMARK    9  A    between atoms: C_25  and  C_26
REMARK                            x       y       z     vdW  Elec       q    Type
REMARK                         _______ _______ _______ _____ _____    ______ ____
ROOT
ATOM      4  C   UNL     1      -1.945  -1.536  25.134  0.00  0.00    +0.012 C 
ATOM      5  C   UNL     1      -1.423  -1.964  24.658  0.00  0.00    +0.019 C 
ATOM      6  C   UNL     1      -1.712  -2.539  24.143  0.00  0.00    +0.089 C 
ATOM      7  N   UNL     1      -2.523  -2.689  24.103  0.00  0.00    -0.218 NA
ATOM      8  C   UNL     1      -3.044  -2.262  24.578  0.00  0.00    +0.089 C 
ATOM      9  C   UNL     1      -2.756  -1.685  25.093  0.00  0.00    +0.024 C 
ENDROOT
BRANCH   4   3
ATOM      3  C   UNL     1      -1.657  -0.960  25.649  0.00  0.00    +0.087 C 
BRANCH   3   2
ATOM      1  O   UNL     1      -0.286  -0.884  25.252  0.00  0.00    -0.273 OA
ATOM      2  C   UNL     1      -0.998  -0.511  25.438  0.00  0.00    +0.242 C 
ATOM     24  N   UNL     1      -1.050   0.312  25.412  0.00  0.00    -0.200 NA
BRANCH  24  25
ATOM     25  C   UNL     1      -0.392   0.760  25.201  0.00  0.00    +0.148 C 
BRANCH  25  26
ATOM     26  C   UNL     1      -0.436   1.585  25.203  0.00  0.00    +0.029 A 
ATOM     27  C   UNL     1      -0.542   2.064  25.867  0.00  0.00    +0.004 A 
ATOM     28  C   UNL     1      -0.554   2.849  25.614  0.00  0.00    +0.007 A 
ATOM     29  C   UNL     1      -0.456   2.856  24.794  0.00  0.00    +0.035 A 
ATOM     30  S   UNL     1      -0.383   2.075  24.540  0.00  0.00    -0.089 S 
ENDBRANCH  25  26
ENDBRANCH  24  25
ENDBRANCH   3   2
ENDBRANCH   4   3
BRANCH   9  10
ATOM     10  C   UNL     1      -3.278  -1.258  25.568  0.00  0.00    +0.051 C 
BRANCH  10  11
ATOM     11  C   UNL     1      -3.843  -0.767  25.222  0.00  0.00    +0.100 A 
ATOM     12  N   UNL     1      -4.340  -0.966  24.595  0.00  0.00    -0.082 NA
ATOM     13  O   UNL     1      -4.814  -0.312  24.427  0.00  0.00    -0.357 OA
ATOM     14  C   UNL     1      -4.609   0.291  24.951  0.00  0.00    +0.165 A 
ATOM     23  C   UNL     1      -4.009   0.011  25.442  0.00  0.00    +0.054 A 
BRANCH  14  15
ATOM     15  C   UNL     1      -4.947   1.044  24.979  0.00  0.00    +0.129 C 
BRANCH  15  16
ATOM     16  S   UNL     1      -4.563   1.682  24.622  0.00  0.00    -0.105 S 
BRANCH  16  17
ATOM     17  C   UNL     1      -4.706   2.450  24.887  0.00  0.00    +0.026 A 
ATOM     18  C   UNL     1      -5.418   2.630  25.264  0.00  0.00    +0.006 A 
ATOM     19  C   UNL     1      -5.561   3.397  25.529  0.00  0.00    +0.001 A 
ATOM     20  C   UNL     1      -4.993   3.986  25.417  0.00  0.00    +0.000 A 
ATOM     21  C   UNL     1      -4.282   3.805  25.040  0.00  0.00    +0.001 A 
ATOM     22  C   UNL     1      -4.138   3.037  24.775  0.00  0.00    +0.006 A 
ENDBRANCH  16  17
ENDBRANCH  15  16
ENDBRANCH  14  15
ENDBRANCH  10  11
ENDBRANCH   9  10
TORSDOF 9
ENDMDL
