MODEL 1
REMARK VINA RESULT:      -9.4      0.000      0.000
REMARK  Name = 
REMARK  9 active torsions:
REMARK  status: ('A' for Active; 'I' for Inactive)
REMARK    1  A    between atoms: O_2  and  C_3
REMARK    2  A    between atoms: C_5  and  N_6
REMARK    3  A    between atoms: N_9  and  C_10
REMARK    4  A    between atoms: C_14  and  C_15
REMARK    5  A    between atoms: N_17  and  C_18
REMARK    6  A    between atoms: C_18  and  C_19
REMARK    7  A    between atoms: C_18  and  C_25
REMARK    8  A    between atoms: C_19  and  C_20
REMARK    9  A    between atoms: C_28  and  C_30
REMARK                            x       y       z     vdW  Elec       q    Type
REMARK                         _______ _______ _______ _____ _____    ______ ____
ROOT
ATOM     10  C   UNL     1      -0.858   1.022  23.982  0.00  0.00    +0.126 C 
ATOM     11  C   UNL     1      -0.854   1.739  23.574  0.00  0.00    +0.045 C 
ATOM     12  C   UNL     1      -1.483   2.195  23.852  0.00  0.00    +0.096 C 
ATOM     13  N   UNL     1      -1.876   1.759  24.433  0.00  0.00    -0.267 N 
ATOM     14  C   UNL     1      -1.489   1.034  24.513  0.00  0.00    +0.174 C 
ATOM     28  C   UNL     1      -2.538   2.005  24.858  0.00  0.00    +0.265 C 
ATOM     29  O   UNL     1      -2.873   1.507  25.425  0.00  0.00    -0.268 OA
ENDROOT
BRANCH  28  30
ATOM     30  C   UNL     1      -2.866   2.749  24.717  0.00  0.00    +0.114 A 
ATOM     31  C   UNL     1      -2.486   3.474  24.822  0.00  0.00    +0.023 A 
ATOM     32  C   UNL     1      -3.017   4.071  24.617  0.00  0.00    +0.020 A 
ATOM     33  C   UNL     1      -3.724   3.715  24.385  0.00  0.00    +0.076 A 
ATOM     34  N   UNL     1      -3.631   2.898  24.447  0.00  0.00    -0.320 N 
ATOM     35  C   UNL     1      -4.203   2.330  24.269  0.00  0.00    +0.131 C 
ENDBRANCH  28  30
BRANCH  10   9
ATOM      6  N   UNL     1       0.896  -0.102  23.330  0.00  0.00    -0.161 NA
ATOM      7  C   UNL     1       0.362   0.519  23.434  0.00  0.00    +0.344 C 
ATOM      8  O   UNL     1       0.514   1.255  23.096  0.00  0.00    -0.249 OA
ATOM      9  N   UNL     1      -0.324   0.402  23.878  0.00  0.00    -0.186 NA
BRANCH   6   5
ATOM      3  C   UNL     1       2.917   0.514  22.781  0.00  0.00    +0.140 A 
ATOM      4  C   UNL     1       2.231   0.398  23.224  0.00  0.00    +0.054 A 
ATOM      5  C   UNL     1       1.582   0.014  22.887  0.00  0.00    +0.078 A 
ATOM     36  C   UNL     1       1.620  -0.253  22.107  0.00  0.00    +0.017 A 
ATOM     37  C   UNL     1       2.307  -0.137  21.665  0.00  0.00    +0.004 A 
ATOM     38  C   UNL     1       2.955   0.246  22.002  0.00  0.00    +0.037 A 
BRANCH   3   2
ATOM      1  C   UNL     1       4.320   0.572  23.045  0.00  0.00    +0.252 C 
ATOM      2  O   UNL     1       3.565   0.897  23.118  0.00  0.00    -0.471 OA
ENDBRANCH   3   2
ENDBRANCH   6   5
ENDBRANCH  10   9
BRANCH  14  15
ATOM     15  C   UNL     1      -1.698   0.428  25.032  0.00  0.00    +0.262 C 
ATOM     16  O   UNL     1      -1.606   0.533  25.845  0.00  0.00    -0.271 OA
ATOM     17  N   UNL     1      -1.998  -0.282  24.739  0.00  0.00    -0.196 NA
BRANCH  17  18
ATOM     18  C   UNL     1      -2.206  -0.887  25.258  0.00  0.00    +0.179 C 
BRANCH  18  25
ATOM     25  C   UNL     1      -1.620  -1.316  25.649  0.00  0.00    +0.281 C 
ATOM     26  N   UNL     1      -1.532  -1.246  26.466  0.00  0.00    -0.086 NA
ATOM     27  O   UNL     1      -1.121  -1.816  25.222  0.00  0.00    -0.270 OA
ENDBRANCH  18  25
BRANCH  18  19
ATOM     19  C   UNL     1      -3.002  -1.064  25.387  0.00  0.00    +0.064 C 
BRANCH  19  20
ATOM     20  C   UNL     1      -3.414  -1.532  24.847  0.00  0.00    +0.010 A 
ATOM     21  C   UNL     1      -3.908  -1.258  24.245  0.00  0.00    +0.003 A 
ATOM     22  C   UNL     1      -4.203  -1.913  23.840  0.00  0.00    +0.007 A 
ATOM     23  C   UNL     1      -3.892  -2.591  24.190  0.00  0.00    +0.035 A 
ATOM     24  S   UNL     1      -3.404  -2.356  24.813  0.00  0.00    -0.091 S 
ENDBRANCH  19  20
ENDBRANCH  18  19
ENDBRANCH  17  18
ENDBRANCH  14  15
TORSDOF 9
ENDMDL
MODEL 2
REMARK VINA RESULT:      -9.2      1.388      3.329
REMARK  Name = 
REMARK  9 active torsions:
REMARK  status: ('A' for Active; 'I' for Inactive)
REMARK    1  A    between atoms: O_2  and  C_3
REMARK    2  A    between atoms: C_5  and  N_6
REMARK    3  A    between atoms: N_9  and  C_10
REMARK    4  A    between atoms: C_14  and  C_15
REMARK    5  A    between atoms: N_17  and  C_18
REMARK    6  A    between atoms: C_18  and  C_19
REMARK    7  A    between atoms: C_18  and  C_25
REMARK    8  A    between atoms: C_19  and  C_20
REMARK    9  A    between atoms: C_28  and  C_30
REMARK                            x       y       z     vdW  Elec       q    Type
REMARK                         _______ _______ _______ _____ _____    ______ ____
ROOT
ATOM     10  C   UNL     1      -0.472   0.023  24.057  0.00  0.00    +0.126 C 
ATOM     11  C   UNL     1      -0.505  -0.747  23.763  0.00  0.00    +0.045 C 
ATOM     12  C   UNL     1      -1.190  -1.103  24.056  0.00  0.00    +0.096 C 
ATOM     13  N   UNL     1      -1.580  -0.552  24.531  0.00  0.00    -0.267 N 
ATOM     14  C   UNL     1      -1.136   0.143  24.532  0.00  0.00    +0.174 C 
ATOM     28  C   UNL     1      -2.288  -0.675  24.935  0.00  0.00    +0.265 C 
ATOM     29  O   UNL     1      -2.614  -0.070  25.391  0.00  0.00    -0.268 OA
ENDROOT
BRANCH  28  30
ATOM     30  C   UNL     1      -2.672  -1.405  24.882  0.00  0.00    +0.114 A 
ATOM     31  C   UNL     1      -2.338  -2.141  25.048  0.00  0.00    +0.023 A 
ATOM     32  C   UNL     1      -2.917  -2.716  24.922  0.00  0.00    +0.020 A 
ATOM     33  C   UNL     1      -3.606  -2.335  24.678  0.00  0.00    +0.076 A 
ATOM     34  N   UNL     1      -3.455  -1.524  24.653  0.00  0.00    -0.320 N 
ATOM     35  C   UNL     1      -3.994  -0.937  24.437  0.00  0.00    +0.131 C 
ENDBRANCH  28  30
BRANCH  10   9
ATOM      6  N   UNL     1       1.405   0.894  23.364  0.00  0.00    -0.161 NA
ATOM      7  C   UNL     1       0.812   0.342  23.518  0.00  0.00    +0.344 C 
ATOM      8  O   UNL     1       0.910  -0.443  23.286  0.00  0.00    -0.249 OA
ATOM      9  N   UNL     1       0.121   0.576  23.903  0.00  0.00    -0.186 NA
BRANCH   6   5
ATOM      3  C   UNL     1       3.522   0.668  22.885  0.00  0.00    +0.140 A 
ATOM      4  C   UNL     1       2.831   0.901  23.270  0.00  0.00    +0.054 A 
ATOM      5  C   UNL     1       2.096   0.662  22.979  0.00  0.00    +0.078 A 
ATOM     36  C   UNL     1       2.054   0.190  22.303  0.00  0.00    +0.017 A 
ATOM     37  C   UNL     1       2.746  -0.042  21.918  0.00  0.00    +0.004 A 
ATOM     38  C   UNL     1       3.480   0.197  22.209  0.00  0.00    +0.037 A 
BRANCH   3   2
ATOM      1  C   UNL     1       4.865   0.357  23.262  0.00  0.00    +0.252 C 
ATOM      2  O   UNL     1       4.257   0.907  23.176  0.00  0.00    -0.471 OA
ENDBRANCH   3   2
ENDBRANCH   6   5
ENDBRANCH  10   9
BRANCH  14  15
ATOM     15  C   UNL     1      -1.323   0.838  24.936  0.00  0.00    +0.262 C 
ATOM     16  O   UNL     1      -1.248   0.870  25.757  0.00  0.00    -0.271 OA
ATOM     17  N   UNL     1      -1.585   1.500  24.520  0.00  0.00    -0.196 NA
BRANCH  17  18
ATOM     18  C   UNL     1      -1.773   2.194  24.924  0.00  0.00    +0.179 C 
BRANCH  18  25
ATOM     25  C   UNL     1      -1.184   2.748  25.089  0.00  0.00    +0.281 C 
ATOM     26  N   UNL     1      -1.003   2.938  25.871  0.00  0.00    -0.086 NA
ATOM     27  O   UNL     1      -0.775   3.111  24.471  0.00  0.00    -0.270 OA
ENDBRANCH  18  25
BRANCH  18  19
ATOM     19  C   UNL     1      -2.549   2.334  25.164  0.00  0.00    +0.064 C 
BRANCH  19  20
ATOM     20  C   UNL     1      -3.069   2.736  24.665  0.00  0.00    +0.010 A 
ATOM     21  C   UNL     1      -3.164   2.604  23.855  0.00  0.00    +0.003 A 
ATOM     22  C   UNL     1      -3.739   3.126  23.578  0.00  0.00    +0.007 A 
ATOM     23  C   UNL     1      -4.000   3.580  24.215  0.00  0.00    +0.035 A 
ATOM     24  S   UNL     1      -3.586   3.339  24.887  0.00  0.00    -0.091 S 
ENDBRANCH  19  20
ENDBRANCH  18  19
ENDBRANCH  17  18
ENDBRANCH  14  15
TORSDOF 9
ENDMDL
MODEL 3
REMARK VINA RESULT:      -8.1      2.559      6.032
REMARK  Name = 
REMARK  9 active torsions:
REMARK  status: ('A' for Active; 'I' for Inactive)
REMARK    1  A    between atoms: O_2  and  C_3
REMARK    2  A    between atoms: C_5  and  N_6
REMARK    3  A    between atoms: N_9  and  C_10
REMARK    4  A    between atoms: C_14  and  C_15
REMARK    5  A    between atoms: N_17  and  C_18
REMARK    6  A    between atoms: C_18  and  C_19
REMARK    7  A    between atoms: C_18  and  C_25
REMARK    8  A    between atoms: C_19  and  C_20
REMARK    9  A    between atoms: C_28  and  C_30
REMARK                            x       y       z     vdW  Elec       q    Type
REMARK                         _______ _______ _______ _____ _____    ______ ____
ROOT
ATOM     10  C   UNL     1      -2.871   0.683  24.237  0.00  0.00    +0.126 C 
ATOM     11  C   UNL     1      -3.267  -0.032  24.352  0.00  0.00    +0.045 C 
ATOM     12  C   UNL     1      -2.701  -0.626  24.442  0.00  0.00    +0.096 C 
ATOM     13  N   UNL     1      -1.955  -0.278  24.382  0.00  0.00    -0.267 N 
ATOM     14  C   UNL     1      -2.060   0.531  24.256  0.00  0.00    +0.174 C 
ATOM     28  C   UNL     1      -1.231  -0.669  24.439  0.00  0.00    +0.265 C 
ATOM     29  O   UNL     1      -0.526  -0.246  24.368  0.00  0.00    -0.268 OA
ENDROOT
BRANCH  28  30
ATOM     30  C   UNL     1      -1.212  -1.484  24.567  0.00  0.00    +0.114 A 
ATOM     31  C   UNL     1      -1.620  -2.053  24.130  0.00  0.00    +0.023 A 
ATOM     32  C   UNL     1      -1.442  -2.794  24.448  0.00  0.00    +0.020 A 
ATOM     33  C   UNL     1      -0.924  -2.682  25.080  0.00  0.00    +0.076 A 
ATOM     34  N   UNL     1      -0.782  -1.872  25.154  0.00  0.00    -0.320 N 
ATOM     35  C   UNL     1      -0.295  -1.515  25.717  0.00  0.00    +0.131 C 
ENDBRANCH  28  30
BRANCH  10   9
ATOM      6  N   UNL     1      -4.271   2.348  24.413  0.00  0.00    -0.161 NA
ATOM      7  C   UNL     1      -3.918   1.611  24.527  0.00  0.00    +0.344 C 
ATOM      8  O   UNL     1      -4.259   1.066  25.043  0.00  0.00    -0.249 OA
ATOM      9  N   UNL     1      -3.224   1.420  24.124  0.00  0.00    -0.186 NA
BRANCH   6   5
ATOM      3  C   UNL     1      -5.716   3.449  25.623  0.00  0.00    +0.140 A 
ATOM      4  C   UNL     1      -5.022   3.257  25.221  0.00  0.00    +0.054 A 
ATOM      5  C   UNL     1      -4.965   2.540  24.816  0.00  0.00    +0.078 A 
ATOM     36  C   UNL     1      -5.602   2.015  24.814  0.00  0.00    +0.017 A 
ATOM     37  C   UNL     1      -6.296   2.209  25.217  0.00  0.00    +0.004 A 
ATOM     38  C   UNL     1      -6.353   2.925  25.622  0.00  0.00    +0.037 A 
BRANCH   3   2
ATOM      1  C   UNL     1      -5.909   4.865  25.611  0.00  0.00    +0.252 C 
ATOM      2  O   UNL     1      -5.772   4.166  26.028  0.00  0.00    -0.471 OA
ENDBRANCH   3   2
ENDBRANCH   6   5
ENDBRANCH  10   9
BRANCH  14  15
ATOM     15  C   UNL     1      -1.460   1.090  24.164  0.00  0.00    +0.262 C 
ATOM     16  O   UNL     1      -1.045   1.136  23.453  0.00  0.00    -0.271 OA
ATOM     17  N   UNL     1      -1.275   1.602  24.784  0.00  0.00    -0.196 NA
BRANCH  17  18
ATOM     18  C   UNL     1      -0.676   2.161  24.692  0.00  0.00    +0.179 C 
BRANCH  18  25
ATOM     25  C   UNL     1       0.068   2.026  25.024  0.00  0.00    +0.281 C 
ATOM     26  N   UNL     1       0.741   2.033  24.546  0.00  0.00    -0.086 NA
ATOM     27  O   UNL     1       0.138   1.886  25.833  0.00  0.00    -0.270 OA
ENDBRANCH  18  25
BRANCH  18  19
ATOM     19  C   UNL     1      -0.819   2.854  24.268  0.00  0.00    +0.064 C 
BRANCH  19  20
ATOM     20  C   UNL     1      -1.026   3.546  24.667  0.00  0.00    +0.010 A 
ATOM     21  C   UNL     1      -1.327   3.593  25.434  0.00  0.00    +0.003 A 
ATOM     22  C   UNL     1      -1.454   4.388  25.610  0.00  0.00    +0.007 A 
ATOM     23  C   UNL     1      -1.233   4.833  24.952  0.00  0.00    +0.035 A 
ATOM     24  S   UNL     1      -0.968   4.313  24.369  0.00  0.00    -0.091 S 
ENDBRANCH  19  20
ENDBRANCH  18  19
ENDBRANCH  17  18
ENDBRANCH  14  15
TORSDOF 9
ENDMDL
MODEL 4
REMARK VINA RESULT:      -7.9      1.392      4.755
REMARK  Name = 
REMARK  9 active torsions:
REMARK  status: ('A' for Active; 'I' for Inactive)
REMARK    1  A    between atoms: O_2  and  C_3
REMARK    2  A    between atoms: C_5  and  N_6
REMARK    3  A    between atoms: N_9  and  C_10
REMARK    4  A    between atoms: C_14  and  C_15
REMARK    5  A    between atoms: N_17  and  C_18
REMARK    6  A    between atoms: C_18  and  C_19
REMARK    7  A    between atoms: C_18  and  C_25
REMARK    8  A    between atoms: C_19  and  C_20
REMARK    9  A    between atoms: C_28  and  C_30
REMARK                            x       y       z     vdW  Elec       q    Type
REMARK                         _______ _______ _______ _____ _____    ______ ____
ROOT
ATOM     10  C   UNL     1      -0.192   1.259  24.473  0.00  0.00    +0.126 C 
ATOM     11  C   UNL     1       0.452   1.763  24.358  0.00  0.00    +0.045 C 
ATOM     12  C   UNL     1       1.001   1.370  23.883  0.00  0.00    +0.096 C 
ATOM     13  N   UNL     1       0.696   0.624  23.705  0.00  0.00    -0.267 N 
ATOM     14  C   UNL     1      -0.041   0.556  24.069  0.00  0.00    +0.174 C 
ATOM     28  C   UNL     1       1.063   0.047  23.244  0.00  0.00    +0.265 C 
ATOM     29  O   UNL     1       0.690  -0.677  23.113  0.00  0.00    -0.268 OA
ENDROOT
BRANCH  28  30
ATOM     30  C   UNL     1       1.805   0.195  22.913  0.00  0.00    +0.114 A 
ATOM     31  C   UNL     1       2.435   0.576  23.286  0.00  0.00    +0.023 A 
ATOM     32  C   UNL     1       3.066   0.604  22.754  0.00  0.00    +0.020 A 
ATOM     33  C   UNL     1       2.826   0.239  22.055  0.00  0.00    +0.076 A 
ATOM     34  N   UNL     1       2.047  -0.014  22.153  0.00  0.00    -0.320 N 
ATOM     35  C   UNL     1       1.590  -0.407  21.588  0.00  0.00    +0.131 C 
ENDBRANCH  28  30
BRANCH  10   9
ATOM      6  N   UNL     1      -1.874   2.357  25.327  0.00  0.00    -0.161 NA
ATOM      7  C   UNL     1      -1.198   2.186  24.886  0.00  0.00    +0.344 C 
ATOM      8  O   UNL     1      -0.853   2.771  24.418  0.00  0.00    -0.249 OA
ATOM      9  N   UNL     1      -0.868   1.430  24.914  0.00  0.00    -0.186 NA
BRANCH   6   5
ATOM      3  C   UNL     1      -3.269   3.984  24.913  0.00  0.00    +0.140 A 
ATOM      4  C   UNL     1      -2.939   3.228  24.940  0.00  0.00    +0.054 A 
ATOM      5  C   UNL     1      -2.205   3.112  25.300  0.00  0.00    +0.078 A 
ATOM     36  C   UNL     1      -1.802   3.751  25.633  0.00  0.00    +0.017 A 
ATOM     37  C   UNL     1      -2.134   4.506  25.605  0.00  0.00    +0.004 A 
ATOM     38  C   UNL     1      -2.867   4.623  25.246  0.00  0.00    +0.037 A 
BRANCH   3   2
ATOM      1  C   UNL     1      -4.685   3.788  24.898  0.00  0.00    +0.252 C 
ATOM      2  O   UNL     1      -4.003   4.100  24.553  0.00  0.00    -0.471 OA
ENDBRANCH   3   2
ENDBRANCH   6   5
ENDBRANCH  10   9
BRANCH  14  15
ATOM     15  C   UNL     1      -0.540  -0.101  24.036  0.00  0.00    +0.262 C 
ATOM     16  O   UNL     1      -0.835  -0.358  23.310  0.00  0.00    -0.271 OA
ATOM     17  N   UNL     1      -0.743  -0.500  24.729  0.00  0.00    -0.196 NA
BRANCH  17  18
ATOM     18  C   UNL     1      -1.242  -1.156  24.696  0.00  0.00    +0.179 C 
BRANCH  18  25
ATOM     25  C   UNL     1      -0.963  -1.898  24.924  0.00  0.00    +0.281 C 
ATOM     26  N   UNL     1      -1.159  -2.567  24.481  0.00  0.00    -0.086 NA
ATOM     27  O   UNL     1      -0.490  -1.972  25.596  0.00  0.00    -0.270 OA
ENDBRANCH  18  25
BRANCH  18  19
ATOM     19  C   UNL     1      -2.019  -1.070  24.434  0.00  0.00    +0.064 C 
BRANCH  19  20
ATOM     20  C   UNL     1      -2.636  -1.026  24.980  0.00  0.00    +0.010 A 
ATOM     21  C   UNL     1      -2.567  -1.107  25.799  0.00  0.00    +0.003 A 
ATOM     22  C   UNL     1      -3.319  -1.025  26.128  0.00  0.00    +0.007 A 
ATOM     23  C   UNL     1      -3.853  -0.894  25.513  0.00  0.00    +0.035 A 
ATOM     24  S   UNL     1      -3.431  -0.895  24.804  0.00  0.00    -0.091 S 
ENDBRANCH  19  20
ENDBRANCH  18  19
ENDBRANCH  17  18
ENDBRANCH  14  15
TORSDOF 9
ENDMDL
MODEL 5
REMARK VINA RESULT:      -7.5      2.709      4.905
REMARK  Name = 
REMARK  9 active torsions:
REMARK  status: ('A' for Active; 'I' for Inactive)
REMARK    1  A    between atoms: O_2  and  C_3
REMARK    2  A    between atoms: C_5  and  N_6
REMARK    3  A    between atoms: N_9  and  C_10
REMARK    4  A    between atoms: C_14  and  C_15
REMARK    5  A    between atoms: N_17  and  C_18
REMARK    6  A    between atoms: C_18  and  C_19
REMARK    7  A    between atoms: C_18  and  C_25
REMARK    8  A    between atoms: C_19  and  C_20
REMARK    9  A    between atoms: C_28  and  C_30
REMARK                            x       y       z     vdW  Elec       q    Type
REMARK                         _______ _______ _______ _____ _____    ______ ____
ROOT
ATOM     10  C   UNL     1      -2.598   1.302  24.973  0.00  0.00    +0.126 C 
ATOM     11  C   UNL     1      -1.793   1.121  25.003  0.00  0.00    +0.045 C 
ATOM     12  C   UNL     1      -1.370   1.806  24.822  0.00  0.00    +0.096 C 
ATOM     13  N   UNL     1      -1.914   2.410  24.680  0.00  0.00    -0.267 N 
ATOM     14  C   UNL     1      -2.672   2.098  24.773  0.00  0.00    +0.174 C 
ATOM     28  C   UNL     1      -1.732   3.189  24.480  0.00  0.00    +0.265 C 
ATOM     29  O   UNL     1      -2.337   3.736  24.354  0.00  0.00    -0.268 OA
ENDROOT
BRANCH  28  30
ATOM     30  C   UNL     1      -0.943   3.423  24.406  0.00  0.00    +0.114 A 
ATOM     31  C   UNL     1      -0.346   2.998  24.028  0.00  0.00    +0.023 A 
ATOM     32  C   UNL     1       0.352   3.435  24.086  0.00  0.00    +0.020 A 
ATOM     33  C   UNL     1       0.185   4.128  24.500  0.00  0.00    +0.076 A 
ATOM     34  N   UNL     1      -0.616   4.121  24.698  0.00  0.00    -0.320 N 
ATOM     35  C   UNL     1      -1.017   4.710  25.115  0.00  0.00    +0.131 C 
ENDBRANCH  28  30
BRANCH  10   9
ATOM      6  N   UNL     1      -3.721  -0.559  25.171  0.00  0.00    -0.161 NA
ATOM      7  C   UNL     1      -3.101  -0.034  25.027  0.00  0.00    +0.344 C 
ATOM      8  O   UNL     1      -2.364  -0.322  24.793  0.00  0.00    -0.249 OA
ATOM      9  N   UNL     1      -3.218   0.777  25.117  0.00  0.00    -0.186 NA
BRANCH   6   5
ATOM      3  C   UNL     1      -3.694  -2.552  24.283  0.00  0.00    +0.140 A 
ATOM      4  C   UNL     1      -3.810  -1.740  24.372  0.00  0.00    +0.054 A 
ATOM      5  C   UNL     1      -3.605  -1.370  25.082  0.00  0.00    +0.078 A 
ATOM     36  C   UNL     1      -3.285  -1.813  25.700  0.00  0.00    +0.017 A 
ATOM     37  C   UNL     1      -3.170  -2.625  25.609  0.00  0.00    +0.004 A 
ATOM     38  C   UNL     1      -3.374  -2.994  24.901  0.00  0.00    +0.037 A 
BRANCH   3   2
ATOM      1  C   UNL     1      -4.692  -2.981  23.354  0.00  0.00    +0.252 C 
ATOM      2  O   UNL     1      -3.899  -2.922  23.573  0.00  0.00    -0.471 OA
ENDBRANCH   3   2
ENDBRANCH   6   5
ENDBRANCH  10   9
BRANCH  14  15
ATOM     15  C   UNL     1      -3.381   2.511  24.683  0.00  0.00    +0.262 C 
ATOM     16  O   UNL     1      -3.620   2.759  23.933  0.00  0.00    -0.271 OA
ATOM     17  N   UNL     1      -3.850   2.675  25.341  0.00  0.00    -0.196 NA
BRANCH  17  18
ATOM     18  C   UNL     1      -4.558   3.088  25.250  0.00  0.00    +0.179 C 
BRANCH  18  25
ATOM     25  C   UNL     1      -4.625   3.860  25.531  0.00  0.00    +0.281 C 
ATOM     26  N   UNL     1      -4.982   4.440  25.064  0.00  0.00    -0.086 NA
ATOM     27  O   UNL     1      -4.336   4.054  26.279  0.00  0.00    -0.270 OA
ENDBRANCH  18  25
BRANCH  18  19
ATOM     19  C   UNL     1      -5.200   2.727  24.878  0.00  0.00    +0.064 C 
BRANCH  19  20
ATOM     20  C   UNL     1      -5.754   2.309  25.324  0.00  0.00    +0.010 A 
ATOM     21  C   UNL     1      -5.821   2.317  26.147  0.00  0.00    +0.003 A 
ATOM     22  C   UNL     1      -6.446   1.822  26.356  0.00  0.00    +0.007 A 
ATOM     23  C   UNL     1      -6.766   1.508  25.664  0.00  0.00    +0.035 A 
ATOM     24  S   UNL     1      -6.338   1.809  25.026  0.00  0.00    -0.091 S 
ENDBRANCH  19  20
ENDBRANCH  18  19
ENDBRANCH  17  18
ENDBRANCH  14  15
TORSDOF 9
ENDMDL
MODEL 6
REMARK VINA RESULT:      -7.5      1.632      5.551
REMARK  Name = 
REMARK  9 active torsions:
REMARK  status: ('A' for Active; 'I' for Inactive)
REMARK    1  A    between atoms: O_2  and  C_3
REMARK    2  A    between atoms: C_5  and  N_6
REMARK    3  A    between atoms: N_9  and  C_10
REMARK    4  A    between atoms: C_14  and  C_15
REMARK    5  A    between atoms: N_17  and  C_18
REMARK    6  A    between atoms: C_18  and  C_19
REMARK    7  A    between atoms: C_18  and  C_25
REMARK    8  A    between atoms: C_19  and  C_20
REMARK    9  A    between atoms: C_28  and  C_30
REMARK                            x       y       z     vdW  Elec       q    Type
REMARK                         _______ _______ _______ _____ _____    ______ ____
ROOT
ATOM     10  C   UNL     1      -2.674   0.745  24.338  0.00  0.00    +0.126 C 
ATOM     11  C   UNL     1      -3.395   0.347  24.272  0.00  0.00    +0.045 C 
ATOM     12  C   UNL     1      -3.254  -0.456  24.397  0.00  0.00    +0.096 C 
ATOM     13  N   UNL     1      -2.448  -0.555  24.540  0.00  0.00    -0.267 N 
ATOM     14  C   UNL     1      -2.090   0.188  24.503  0.00  0.00    +0.174 C 
ATOM     28  C   UNL     1      -2.066  -1.270  24.692  0.00  0.00    +0.265 C 
ATOM     29  O   UNL     1      -1.252  -1.283  24.825  0.00  0.00    -0.268 OA
ENDROOT
BRANCH  28  30
ATOM     30  C   UNL     1      -2.499  -1.972  24.712  0.00  0.00    +0.114 A 
ATOM     31  C   UNL     1      -3.221  -2.086  25.094  0.00  0.00    +0.023 A 
ATOM     32  C   UNL     1      -3.454  -2.869  24.970  0.00  0.00    +0.020 A 
ATOM     33  C   UNL     1      -2.875  -3.237  24.512  0.00  0.00    +0.076 A 
ATOM     34  N   UNL     1      -2.285  -2.683  24.352  0.00  0.00    -0.320 N 
ATOM     35  C   UNL     1      -1.601  -2.817  23.909  0.00  0.00    +0.131 C 
ENDBRANCH  28  30
BRANCH  10   9
ATOM      6  N   UNL     1      -2.883   2.898  24.628  0.00  0.00    -0.161 NA
ATOM      7  C   UNL     1      -2.998   2.086  24.713  0.00  0.00    +0.344 C 
ATOM      8  O   UNL     1      -3.549   1.802  25.256  0.00  0.00    -0.249 OA
ATOM      9  N   UNL     1      -2.560   1.558  24.253  0.00  0.00    -0.186 NA
BRANCH   6   5
ATOM      3  C   UNL     1      -4.543   4.118  25.350  0.00  0.00    +0.140 A 
ATOM      4  C   UNL     1      -4.106   3.590  24.892  0.00  0.00    +0.054 A 
ATOM      5  C   UNL     1      -3.320   3.427  25.086  0.00  0.00    +0.078 A 
ATOM     36  C   UNL     1      -2.972   3.793  25.739  0.00  0.00    +0.017 A 
ATOM     37  C   UNL     1      -3.410   4.322  26.197  0.00  0.00    +0.004 A 
ATOM     38  C   UNL     1      -4.195   4.484  26.003  0.00  0.00    +0.037 A 
BRANCH   3   2
ATOM      1  C   UNL     1      -5.937   4.014  25.643  0.00  0.00    +0.252 C 
ATOM      2  O   UNL     1      -5.328   4.281  25.155  0.00  0.00    -0.471 OA
ENDBRANCH   3   2
ENDBRANCH   6   5
ENDBRANCH  10   9
BRANCH  14  15
ATOM     15  C   UNL     1      -1.287   0.345  24.613  0.00  0.00    +0.262 C 
ATOM     16  O   UNL     1      -0.950   0.267  25.362  0.00  0.00    -0.271 OA
ATOM     17  N   UNL     1      -0.821   0.580  23.974  0.00  0.00    -0.196 NA
BRANCH  17  18
ATOM     18  C   UNL     1      -0.020   0.737  24.083  0.00  0.00    +0.179 C 
BRANCH  18  25
ATOM     25  C   UNL     1       0.230   1.501  24.268  0.00  0.00    +0.281 C 
ATOM     26  N   UNL     1       0.605   1.651  24.988  0.00  0.00    -0.086 NA
ATOM     27  O   UNL     1       0.106   2.116  23.732  0.00  0.00    -0.270 OA
ENDBRANCH  18  25
BRANCH  18  19
ATOM     19  C   UNL     1       0.533   0.129  24.009  0.00  0.00    +0.064 C 
BRANCH  19  20
ATOM     20  C   UNL     1       0.929   0.017  23.293  0.00  0.00    +0.010 A 
ATOM     21  C   UNL     1       0.585  -0.215  22.580  0.00  0.00    +0.003 A 
ATOM     22  C   UNL     1       1.182  -0.258  22.012  0.00  0.00    +0.007 A 
ATOM     23  C   UNL     1       1.894  -0.053  22.373  0.00  0.00    +0.035 A 
ATOM     24  S   UNL     1       1.737   0.117  23.165  0.00  0.00    -0.091 S 
ENDBRANCH  19  20
ENDBRANCH  18  19
ENDBRANCH  17  18
ENDBRANCH  14  15
TORSDOF 9
ENDMDL
MODEL 7
REMARK VINA RESULT:      -7.4      2.085      4.487
REMARK  Name = 
REMARK  9 active torsions:
REMARK  status: ('A' for Active; 'I' for Inactive)
REMARK    1  A    between atoms: O_2  and  C_3
REMARK    2  A    between atoms: C_5  and  N_6
REMARK    3  A    between atoms: N_9  and  C_10
REMARK    4  A    between atoms: C_14  and  C_15
REMARK    5  A    between atoms: N_17  and  C_18
REMARK    6  A    between atoms: C_18  and  C_19
REMARK    7  A    between atoms: C_18  and  C_25
REMARK    8  A    between atoms: C_19  and  C_20
REMARK    9  A    between atoms: C_28  and  C_30
REMARK                            x       y       z     vdW  Elec       q    Type
REMARK                         _______ _______ _______ _____ _____    ______ ____
ROOT
ATOM     10  C   UNL     1      -3.534   1.204  24.154  0.00  0.00    +0.126 C 
ATOM     11  C   UNL     1      -4.308   1.330  24.413  0.00  0.00    +0.045 C 
ATOM     12  C   UNL     1      -4.347   2.087  24.739  0.00  0.00    +0.096 C 
ATOM     13  N   UNL     1      -3.597   2.428  24.682  0.00  0.00    -0.267 N 
ATOM     14  C   UNL     1      -3.096   1.882  24.320  0.00  0.00    +0.174 C 
ATOM     28  C   UNL     1      -3.387   3.182  24.941  0.00  0.00    +0.265 C 
ATOM     29  O   UNL     1      -2.612   3.450  24.846  0.00  0.00    -0.268 OA
ENDROOT
BRANCH  28  30
ATOM     30  C   UNL     1      -3.951   3.670  25.294  0.00  0.00    +0.114 A 
ATOM     31  C   UNL     1      -4.714   3.811  25.013  0.00  0.00    +0.023 A 
ATOM     32  C   UNL     1      -5.086   4.330  25.536  0.00  0.00    +0.020 A 
ATOM     33  C   UNL     1      -4.553   4.508  26.140  0.00  0.00    +0.076 A 
ATOM     34  N   UNL     1      -3.852   4.100  25.991  0.00  0.00    -0.320 N 
ATOM     35  C   UNL     1      -3.170   4.120  26.457  0.00  0.00    +0.131 C 
ENDBRANCH  28  30
BRANCH  10   9
ATOM      6  N   UNL     1      -3.276  -0.902  23.641  0.00  0.00    -0.161 NA
ATOM      7  C   UNL     1      -3.560  -0.217  24.002  0.00  0.00    +0.344 C 
ATOM      8  O   UNL     1      -4.153  -0.268  24.573  0.00  0.00    -0.249 OA
ATOM      9  N   UNL     1      -3.250   0.519  23.792  0.00  0.00    -0.186 NA
BRANCH   6   5
ATOM      3  C   UNL     1      -3.507  -2.838  24.621  0.00  0.00    +0.140 A 
ATOM      4  C   UNL     1      -3.198  -2.103  24.412  0.00  0.00    +0.054 A 
ATOM      5  C   UNL     1      -3.585  -1.638  23.850  0.00  0.00    +0.078 A 
ATOM     36  C   UNL     1      -4.280  -1.909  23.497  0.00  0.00    +0.017 A 
ATOM     37  C   UNL     1      -4.588  -2.645  23.707  0.00  0.00    +0.004 A 
ATOM     38  C   UNL     1      -4.202  -3.110  24.268  0.00  0.00    +0.037 A 
BRANCH   3   2
ATOM      1  C   UNL     1      -3.056  -3.039  25.961  0.00  0.00    +0.252 C 
ATOM      2  O   UNL     1      -3.120  -3.303  25.183  0.00  0.00    -0.471 OA
ENDBRANCH   3   2
ENDBRANCH   6   5
ENDBRANCH  10   9
BRANCH  14  15
ATOM     15  C   UNL     1      -2.295   1.994  24.155  0.00  0.00    +0.262 C 
ATOM     16  O   UNL     1      -2.068   2.496  23.541  0.00  0.00    -0.271 OA
ATOM     17  N   UNL     1      -1.722   1.605  24.603  0.00  0.00    -0.196 NA
BRANCH  17  18
ATOM     18  C   UNL     1      -0.922   1.717  24.437  0.00  0.00    +0.179 C 
BRANCH  18  25
ATOM     25  C   UNL     1      -0.451   2.155  24.953  0.00  0.00    +0.281 C 
ATOM     26  N   UNL     1       0.020   2.768  24.664  0.00  0.00    -0.086 NA
ATOM     27  O   UNL     1      -0.450   1.979  25.759  0.00  0.00    -0.270 OA
ENDBRANCH  18  25
BRANCH  18  19
ATOM     19  C   UNL     1      -0.594   1.393  23.753  0.00  0.00    +0.064 C 
BRANCH  19  20
ATOM     20  C   UNL     1      -0.210   0.662  23.787  0.00  0.00    +0.010 A 
ATOM     21  C   UNL     1      -0.229   0.133  24.420  0.00  0.00    +0.003 A 
ATOM     22  C   UNL     1       0.229  -0.523  24.217  0.00  0.00    +0.007 A 
ATOM     23  C   UNL     1       0.529  -0.399  23.459  0.00  0.00    +0.035 A 
ATOM     24  S   UNL     1       0.258   0.333  23.193  0.00  0.00    -0.091 S 
ENDBRANCH  19  20
ENDBRANCH  18  19
ENDBRANCH  17  18
ENDBRANCH  14  15
TORSDOF 9
ENDMDL
