MODEL 1
REMARK VINA RESULT:     -12.2      0.000      0.000
REMARK  Name = 
REMARK  7 active torsions:
REMARK  status: ('A' for Active; 'I' for Inactive)
REMARK    1  A    between atoms: O_2  and  C_3
REMARK    2  A    between atoms: C_3  and  C_5
REMARK    3  A    between atoms: N_10  and  S_11
REMARK    4  A    between atoms: S_11  and  C_14
REMARK    5  A    between atoms: C_19  and  N_20
REMARK    6  A    between atoms: N_27  and  C_28
REMARK    7  A    between atoms: C_28  and  C_29
REMARK                            x       y       z     vdW  Elec       q    Type
REMARK                         _______ _______ _______ _____ _____    ______ ____
ROOT
ATOM      5  C   UNL     1      -0.889   0.877  24.423  0.00  0.00    +0.184 C 
ATOM      6  C   UNL     1      -0.522   0.154  24.268  0.00  0.00    +0.076 C 
ATOM      7  C   UNL     1      -0.907  -0.552  24.451  0.00  0.00    +0.076 A 
ATOM      8  C   UNL     1      -1.659  -0.536  24.789  0.00  0.00    +0.070 A 
ATOM      9  C   UNL     1      -2.026   0.188  24.944  0.00  0.00    +0.141 C 
ATOM     10  N   UNL     1      -1.641   0.893  24.761  0.00  0.00    -0.140 NA
ATOM     27  N   UNL     1      -1.901  -1.314  24.909  0.00  0.00    -0.307 N 
ATOM     35  C   UNL     1      -1.299  -1.813  24.645  0.00  0.00    +0.178 A 
ATOM     36  N   UNL     1      -0.685  -1.341  24.362  0.00  0.00    -0.229 NA
ENDROOT
BRANCH  10  11
ATOM     11  S   UNL     1      -2.008   1.615  24.916  0.00  0.00    +0.064 S 
ATOM     12  O   UNL     1      -1.849   1.524  25.720  0.00  0.00    -0.153 OA
ATOM     13  O   UNL     1      -2.167   1.707  24.112  0.00  0.00    -0.153 OA
BRANCH  11  14
ATOM     14  C   UNL     1      -2.375   2.338  25.071  0.00  0.00    +0.122 A 
ATOM     15  C   UNL     1      -3.181   2.430  24.925  0.00  0.00    +0.020 A 
ATOM     16  C   UNL     1      -3.622   1.800  24.623  0.00  0.00    +0.001 A 
ATOM     17  C   UNL     1      -4.428   1.893  24.477  0.00  0.00    +0.001 A 
ATOM     18  C   UNL     1      -4.795   2.616  24.632  0.00  0.00    +0.015 A 
ATOM     19  C   UNL     1      -4.356   3.245  24.933  0.00  0.00    +0.048 A 
ATOM     23  C   UNL     1      -3.549   3.153  25.080  0.00  0.00    +0.015 A 
ATOM     24  C   UNL     1      -3.109   3.783  25.381  0.00  0.00    +0.001 A 
ATOM     25  C   UNL     1      -2.303   3.690  25.527  0.00  0.00    +0.001 A 
ATOM     26  C   UNL     1      -1.936   2.967  25.372  0.00  0.00    +0.020 A 
BRANCH  19  20
ATOM     20  N   UNL     1      -4.723   3.968  25.088  0.00  0.00    -0.304 N 
ATOM     21  C   UNL     1      -4.644   4.593  24.557  0.00  0.00    +0.112 C 
ATOM     22  C   UNL     1      -5.170   4.065  25.776  0.00  0.00    +0.112 C 
ENDBRANCH  19  20
ENDBRANCH  11  14
ENDBRANCH  10  11
BRANCH   5   3
ATOM      3  C   UNL     1      -0.503   1.583  24.239  0.00  0.00    +0.334 C 
ATOM      4  O   UNL     1      -0.707   2.001  23.557  0.00  0.00    -0.249 OA
BRANCH   3   2
ATOM      1  C   UNL     1       0.788   2.168  24.420  0.00  0.00    +0.256 C 
ATOM      2  O   UNL     1       0.087   1.872  24.739  0.00  0.00    -0.443 OA
ENDBRANCH   3   2
ENDBRANCH   5   3
BRANCH  27  28
ATOM     28  C   UNL     1      -2.620  -1.554  25.236  0.00  0.00    +0.134 C 
BRANCH  28  29
ATOM     29  C   UNL     1      -3.147  -2.004  24.787  0.00  0.00    +0.000 A 
ATOM     30  C   UNL     1      -3.734  -1.630  24.345  0.00  0.00    -0.002 A 
ATOM     31  C   UNL     1      -4.262  -2.079  23.896  0.00  0.00    -0.000 A 
ATOM     32  C   UNL     1      -4.201  -2.902  23.890  0.00  0.00    -0.000 A 
ATOM     33  C   UNL     1      -3.613  -3.275  24.333  0.00  0.00    -0.000 A 
ATOM     34  C   UNL     1      -3.086  -2.826  24.781  0.00  0.00    -0.002 A 
ENDBRANCH  28  29
ENDBRANCH  27  28
TORSDOF 7
ENDMDL
MODEL 2
REMARK VINA RESULT:     -11.8      1.637      5.420
REMARK  Name = 
REMARK  7 active torsions:
REMARK  status: ('A' for Active; 'I' for Inactive)
REMARK    1  A    between atoms: O_2  and  C_3
REMARK    2  A    between atoms: C_3  and  C_5
REMARK    3  A    between atoms: N_10  and  S_11
REMARK    4  A    between atoms: S_11  and  C_14
REMARK    5  A    between atoms: C_19  and  N_20
REMARK    6  A    between atoms: N_27  and  C_28
REMARK    7  A    between atoms: C_28  and  C_29
REMARK                            x       y       z     vdW  Elec       q    Type
REMARK                         _______ _______ _______ _____ _____    ______ ____
ROOT
ATOM      5  C   UNL     1      -4.655   2.182  25.147  0.00  0.00    +0.184 C 
ATOM      6  C   UNL     1      -4.677   2.975  25.377  0.00  0.00    +0.076 C 
ATOM      7  C   UNL     1      -3.975   3.380  25.528  0.00  0.00    +0.076 A 
ATOM      8  C   UNL     1      -3.251   2.993  25.450  0.00  0.00    +0.070 A 
ATOM      9  C   UNL     1      -3.229   2.200  25.220  0.00  0.00    +0.141 C 
ATOM     10  N   UNL     1      -3.931   1.795  25.069  0.00  0.00    -0.140 NA
ATOM     27  N   UNL     1      -2.653   3.530  25.635  0.00  0.00    -0.307 N 
ATOM     35  C   UNL     1      -3.008   4.250  25.827  0.00  0.00    +0.178 A 
ATOM     36  N   UNL     1      -3.825   4.157  25.761  0.00  0.00    -0.229 NA
ENDROOT
BRANCH  10  11
ATOM     11  S   UNL     1      -3.908   1.003  24.840  0.00  0.00    +0.064 S 
ATOM     12  O   UNL     1      -3.681   1.230  24.080  0.00  0.00    -0.153 OA
ATOM     13  O   UNL     1      -4.136   0.777  25.600  0.00  0.00    -0.153 OA
BRANCH  11  14
ATOM     14  C   UNL     1      -3.886   0.211  24.610  0.00  0.00    +0.122 A 
ATOM     15  C   UNL     1      -3.304  -0.289  24.911  0.00  0.00    +0.020 A 
ATOM     16  C   UNL     1      -2.743   0.002  25.441  0.00  0.00    +0.001 A 
ATOM     17  C   UNL     1      -2.160  -0.498  25.741  0.00  0.00    +0.001 A 
ATOM     18  C   UNL     1      -2.138  -1.291  25.512  0.00  0.00    +0.015 A 
ATOM     19  C   UNL     1      -2.698  -1.582  24.982  0.00  0.00    +0.048 A 
ATOM     23  C   UNL     1      -3.282  -1.082  24.681  0.00  0.00    +0.015 A 
ATOM     24  C   UNL     1      -3.842  -1.373  24.151  0.00  0.00    +0.001 A 
ATOM     25  C   UNL     1      -4.425  -0.873  23.851  0.00  0.00    +0.001 A 
ATOM     26  C   UNL     1      -4.447  -0.080  24.081  0.00  0.00    +0.020 A 
BRANCH  19  20
ATOM     20  N   UNL     1      -2.676  -2.374  24.753  0.00  0.00    -0.304 N 
ATOM     21  C   UNL     1      -3.224  -2.909  25.061  0.00  0.00    +0.112 C 
ATOM     22  C   UNL     1      -2.106  -2.632  24.214  0.00  0.00    +0.112 C 
ENDBRANCH  19  20
ENDBRANCH  11  14
ENDBRANCH  10  11
BRANCH   5   3
ATOM      3  C   UNL     1      -5.358   1.777  24.996  0.00  0.00    +0.334 C 
ATOM      4  O   UNL     1      -5.611   1.664  24.219  0.00  0.00    -0.249 OA
BRANCH   3   2
ATOM      1  C   UNL     1      -6.620   1.629  25.651  0.00  0.00    +0.256 C 
ATOM      2  O   UNL     1      -5.807   1.484  25.623  0.00  0.00    -0.443 OA
ENDBRANCH   3   2
ENDBRANCH   5   3
BRANCH  27  28
ATOM     28  C   UNL     1      -1.843   3.377  25.628  0.00  0.00    +0.134 C 
BRANCH  28  29
ATOM     29  C   UNL     1      -1.336   3.854  25.185  0.00  0.00    +0.000 A 
ATOM     30  C   UNL     1      -0.880   3.522  24.583  0.00  0.00    -0.002 A 
ATOM     31  C   UNL     1      -0.374   4.000  24.139  0.00  0.00    -0.000 A 
ATOM     32  C   UNL     1      -0.323   4.807  24.298  0.00  0.00    -0.000 A 
ATOM     33  C   UNL     1      -0.780   5.138  24.900  0.00  0.00    -0.000 A 
ATOM     34  C   UNL     1      -1.286   4.662  25.344  0.00  0.00    -0.002 A 
ENDBRANCH  28  29
ENDBRANCH  27  28
TORSDOF 7
ENDMDL
MODEL 3
REMARK VINA RESULT:     -11.6      1.079      4.513
REMARK  Name = 
REMARK  7 active torsions:
REMARK  status: ('A' for Active; 'I' for Inactive)
REMARK    1  A    between atoms: O_2  and  C_3
REMARK    2  A    between atoms: C_3  and  C_5
REMARK    3  A    between atoms: N_10  and  S_11
REMARK    4  A    between atoms: S_11  and  C_14
REMARK    5  A    between atoms: C_19  and  N_20
REMARK    6  A    between atoms: N_27  and  C_28
REMARK    7  A    between atoms: C_28  and  C_29
REMARK                            x       y       z     vdW  Elec       q    Type
REMARK                         _______ _______ _______ _____ _____    ______ ____
ROOT
ATOM      5  C   UNL     1      -1.153   2.603  25.338  0.00  0.00    +0.184 C 
ATOM      6  C   UNL     1      -1.418   3.368  25.499  0.00  0.00    +0.076 C 
ATOM      7  C   UNL     1      -2.181   3.594  25.285  0.00  0.00    +0.076 A 
ATOM      8  C   UNL     1      -2.681   3.055  24.910  0.00  0.00    +0.070 A 
ATOM      9  C   UNL     1      -2.416   2.290  24.749  0.00  0.00    +0.141 C 
ATOM     10  N   UNL     1      -1.652   2.064  24.964  0.00  0.00    -0.140 NA
ATOM     27  N   UNL     1      -3.399   3.432  24.764  0.00  0.00    -0.307 N 
ATOM     35  C   UNL     1      -3.345   4.204  25.049  0.00  0.00    +0.178 A 
ATOM     36  N   UNL     1      -2.592   4.304  25.371  0.00  0.00    -0.229 NA
ENDROOT
BRANCH  10  11
ATOM     11  S   UNL     1      -1.388   1.299  24.803  0.00  0.00    +0.064 S 
ATOM     12  O   UNL     1      -1.446   1.111  25.604  0.00  0.00    -0.153 OA
ATOM     13  O   UNL     1      -1.330   1.488  24.002  0.00  0.00    -0.153 OA
BRANCH  11  14
ATOM     14  C   UNL     1      -1.123   0.535  24.643  0.00  0.00    +0.122 A 
ATOM     15  C   UNL     1      -1.594  -0.113  24.838  0.00  0.00    +0.020 A 
ATOM     16  C   UNL     1      -2.329   0.002  25.194  0.00  0.00    +0.001 A 
ATOM     17  C   UNL     1      -2.800  -0.646  25.389  0.00  0.00    +0.001 A 
ATOM     18  C   UNL     1      -2.535  -1.412  25.229  0.00  0.00    +0.015 A 
ATOM     19  C   UNL     1      -1.800  -1.528  24.873  0.00  0.00    +0.048 A 
ATOM     23  C   UNL     1      -1.329  -0.879  24.677  0.00  0.00    +0.015 A 
ATOM     24  C   UNL     1      -0.594  -0.995  24.322  0.00  0.00    +0.001 A 
ATOM     25  C   UNL     1      -0.124  -0.347  24.126  0.00  0.00    +0.001 A 
ATOM     26  C   UNL     1      -0.389   0.419  24.287  0.00  0.00    +0.020 A 
BRANCH  19  20
ATOM     20  N   UNL     1      -1.536  -2.293  24.713  0.00  0.00    -0.304 N 
ATOM     21  C   UNL     1      -1.823  -2.700  24.056  0.00  0.00    +0.112 C 
ATOM     22  C   UNL     1      -0.983  -2.651  25.210  0.00  0.00    +0.112 C 
ENDBRANCH  19  20
ENDBRANCH  11  14
ENDBRANCH  10  11
BRANCH   5   3
ATOM      3  C   UNL     1      -0.389   2.378  25.553  0.00  0.00    +0.334 C 
ATOM      4  O   UNL     1       0.209   2.349  24.985  0.00  0.00    -0.249 OA
BRANCH   3   2
ATOM      1  C   UNL     1       0.459   2.473  26.700  0.00  0.00    +0.256 C 
ATOM      2  O   UNL     1      -0.222   2.181  26.337  0.00  0.00    -0.443 OA
ENDBRANCH   3   2
ENDBRANCH   5   3
BRANCH  27  28
ATOM     28  C   UNL     1      -4.058   3.096  24.398  0.00  0.00    +0.134 C 
BRANCH  28  29
ATOM     29  C   UNL     1      -4.737   2.934  24.839  0.00  0.00    +0.000 A 
ATOM     30  C   UNL     1      -5.033   2.165  24.871  0.00  0.00    -0.002 A 
ATOM     31  C   UNL     1      -5.712   2.003  25.312  0.00  0.00    -0.000 A 
ATOM     32  C   UNL     1      -6.093   2.610  25.720  0.00  0.00    -0.000 A 
ATOM     33  C   UNL     1      -5.796   3.379  25.688  0.00  0.00    -0.000 A 
ATOM     34  C   UNL     1      -5.118   3.541  25.248  0.00  0.00    -0.002 A 
ENDBRANCH  28  29
ENDBRANCH  27  28
TORSDOF 7
ENDMDL
MODEL 4
REMARK VINA RESULT:     -11.4      1.427      4.623
REMARK  Name = 
REMARK  7 active torsions:
REMARK  status: ('A' for Active; 'I' for Inactive)
REMARK    1  A    between atoms: O_2  and  C_3
REMARK    2  A    between atoms: C_3  and  C_5
REMARK    3  A    between atoms: N_10  and  S_11
REMARK    4  A    between atoms: S_11  and  C_14
REMARK    5  A    between atoms: C_19  and  N_20
REMARK    6  A    between atoms: N_27  and  C_28
REMARK    7  A    between atoms: C_28  and  C_29
REMARK                            x       y       z     vdW  Elec       q    Type
REMARK                         _______ _______ _______ _____ _____    ______ ____
ROOT
ATOM      5  C   UNL     1      -0.104   0.779  24.254  0.00  0.00    +0.184 C 
ATOM      6  C   UNL     1       0.231   1.534  24.273  0.00  0.00    +0.076 C 
ATOM      7  C   UNL     1      -0.148   2.143  24.679  0.00  0.00    +0.076 A 
ATOM      8  C   UNL     1      -0.862   1.999  25.065  0.00  0.00    +0.070 A 
ATOM      9  C   UNL     1      -1.197   1.244  25.046  0.00  0.00    +0.141 C 
ATOM     10  N   UNL     1      -0.817   0.635  24.641  0.00  0.00    -0.140 NA
ATOM     27  N   UNL     1      -1.108   2.702  25.418  0.00  0.00    -0.307 N 
ATOM     35  C   UNL     1      -0.546   3.282  25.250  0.00  0.00    +0.178 A 
ATOM     36  N   UNL     1       0.047   2.936  24.793  0.00  0.00    -0.229 NA
ENDROOT
BRANCH  10  11
ATOM     11  S   UNL     1      -1.152  -0.119  24.621  0.00  0.00    +0.064 S 
ATOM     12  O   UNL     1      -1.414   0.017  23.851  0.00  0.00    -0.153 OA
ATOM     13  O   UNL     1      -0.890  -0.255  25.392  0.00  0.00    -0.153 OA
BRANCH  11  14
ATOM     14  C   UNL     1      -1.487  -0.873  24.602  0.00  0.00    +0.122 A 
ATOM     15  C   UNL     1      -2.304  -0.959  24.538  0.00  0.00    +0.020 A 
ATOM     16  C   UNL     1      -2.788  -0.293  24.492  0.00  0.00    +0.001 A 
ATOM     17  C   UNL     1      -3.605  -0.379  24.427  0.00  0.00    +0.001 A 
ATOM     18  C   UNL     1      -3.940  -1.134  24.408  0.00  0.00    +0.015 A 
ATOM     19  C   UNL     1      -3.457  -1.800  24.454  0.00  0.00    +0.048 A 
ATOM     23  C   UNL     1      -2.639  -1.714  24.518  0.00  0.00    +0.015 A 
ATOM     24  C   UNL     1      -2.156  -2.381  24.564  0.00  0.00    +0.001 A 
ATOM     25  C   UNL     1      -1.338  -2.294  24.629  0.00  0.00    +0.001 A 
ATOM     26  C   UNL     1      -1.003  -1.539  24.648  0.00  0.00    +0.020 A 
BRANCH  19  20
ATOM     20  N   UNL     1      -3.791  -2.554  24.434  0.00  0.00    -0.304 N 
ATOM     21  C   UNL     1      -3.775  -3.031  25.108  0.00  0.00    +0.112 C 
ATOM     22  C   UNL     1      -4.143  -2.833  23.741  0.00  0.00    +0.112 C 
ENDBRANCH  19  20
ENDBRANCH  11  14
ENDBRANCH  10  11
BRANCH   5   3
ATOM      3  C   UNL     1       0.277   0.169  23.848  0.00  0.00    +0.334 C 
ATOM      4  O   UNL     1       0.668  -0.425  24.266  0.00  0.00    -0.249 OA
BRANCH   3   2
ATOM      1  C   UNL     1       0.945  -0.059  22.605  0.00  0.00    +0.256 C 
ATOM      2  O   UNL     1       0.266   0.155  23.023  0.00  0.00    -0.443 OA
ENDBRANCH   3   2
ENDBRANCH   5   3
BRANCH  27  28
ATOM     28  C   UNL     1      -1.795   2.808  25.862  0.00  0.00    +0.134 C 
BRANCH  28  29
ATOM     29  C   UNL     1      -2.334   3.398  25.652  0.00  0.00    +0.000 A 
ATOM     30  C   UNL     1      -2.971   3.217  25.160  0.00  0.00    -0.002 A 
ATOM     31  C   UNL     1      -3.510   3.806  24.951  0.00  0.00    -0.000 A 
ATOM     32  C   UNL     1      -3.411   4.575  25.233  0.00  0.00    -0.000 A 
ATOM     33  C   UNL     1      -2.773   4.754  25.725  0.00  0.00    -0.000 A 
ATOM     34  C   UNL     1      -2.235   4.166  25.935  0.00  0.00    -0.002 A 
ENDBRANCH  28  29
ENDBRANCH  27  28
TORSDOF 7
ENDMDL
MODEL 5
REMARK VINA RESULT:     -11.4      1.634      3.124
REMARK  Name = 
REMARK  7 active torsions:
REMARK  status: ('A' for Active; 'I' for Inactive)
REMARK    1  A    between atoms: O_2  and  C_3
REMARK    2  A    between atoms: C_3  and  C_5
REMARK    3  A    between atoms: N_10  and  S_11
REMARK    4  A    between atoms: S_11  and  C_14
REMARK    5  A    between atoms: C_19  and  N_20
REMARK    6  A    between atoms: N_27  and  C_28
REMARK    7  A    between atoms: C_28  and  C_29
REMARK                            x       y       z     vdW  Elec       q    Type
REMARK                         _______ _______ _______ _____ _____    ______ ____
ROOT
ATOM      5  C   UNL     1      -4.570   1.047  24.806  0.00  0.00    +0.184 C 
ATOM      6  C   UNL     1      -4.796   0.253  24.838  0.00  0.00    +0.076 C 
ATOM      7  C   UNL     1      -4.252  -0.338  24.653  0.00  0.00    +0.076 A 
ATOM      8  C   UNL     1      -3.482  -0.137  24.435  0.00  0.00    +0.070 A 
ATOM      9  C   UNL     1      -3.256   0.657  24.403  0.00  0.00    +0.141 C 
ATOM     10  N   UNL     1      -3.801   1.248  24.589  0.00  0.00    -0.140 NA
ATOM     27  N   UNL     1      -3.069  -0.834  24.284  0.00  0.00    -0.307 N 
ATOM     35  C   UNL     1      -3.583  -1.467  24.408  0.00  0.00    +0.178 A 
ATOM     36  N   UNL     1      -4.314  -1.160  24.636  0.00  0.00    -0.229 NA
ENDROOT
BRANCH  10  11
ATOM     11  S   UNL     1      -3.575   2.041  24.556  0.00  0.00    +0.064 S 
ATOM     12  O   UNL     1      -3.559   2.070  25.381  0.00  0.00    -0.153 OA
ATOM     13  O   UNL     1      -3.591   2.012  23.732  0.00  0.00    -0.153 OA
BRANCH  11  14
ATOM     14  C   UNL     1      -3.350   2.834  24.524  0.00  0.00    +0.122 A 
ATOM     15  C   UNL     1      -2.632   3.072  24.853  0.00  0.00    +0.020 A 
ATOM     16  C   UNL     1      -2.139   2.518  25.215  0.00  0.00    +0.001 A 
ATOM     17  C   UNL     1      -1.422   2.756  25.544  0.00  0.00    +0.001 A 
ATOM     18  C   UNL     1      -1.196   3.550  25.512  0.00  0.00    +0.015 A 
ATOM     19  C   UNL     1      -1.688   4.104  25.151  0.00  0.00    +0.048 A 
ATOM     23  C   UNL     1      -2.406   3.866  24.821  0.00  0.00    +0.015 A 
ATOM     24  C   UNL     1      -2.899   4.420  24.460  0.00  0.00    +0.001 A 
ATOM     25  C   UNL     1      -3.616   4.182  24.131  0.00  0.00    +0.001 A 
ATOM     26  C   UNL     1      -3.842   3.388  24.163  0.00  0.00    +0.020 A 
BRANCH  19  20
ATOM     20  N   UNL     1      -1.463   4.897  25.119  0.00  0.00    -0.304 N 
ATOM     21  C   UNL     1      -1.918   5.471  25.496  0.00  0.00    +0.112 C 
ATOM     22  C   UNL     1      -0.781   5.116  24.708  0.00  0.00    +0.112 C 
ENDBRANCH  19  20
ENDBRANCH  11  14
ENDBRANCH  10  11
BRANCH   5   3
ATOM      3  C   UNL     1      -5.115   1.638  24.991  0.00  0.00    +0.334 C 
ATOM      4  O   UNL     1      -5.489   2.060  24.389  0.00  0.00    -0.249 OA
BRANCH   3   2
ATOM      1  C   UNL     1      -6.059   1.988  26.006  0.00  0.00    +0.256 C 
ATOM      2  O   UNL     1      -5.286   1.808  25.780  0.00  0.00    -0.443 OA
ENDBRANCH   3   2
ENDBRANCH   5   3
BRANCH  27  28
ATOM     28  C   UNL     1      -2.280  -0.889  24.050  0.00  0.00    +0.134 C 
BRANCH  28  29
ATOM     29  C   UNL     1      -1.754  -1.358  24.480  0.00  0.00    +0.000 A 
ATOM     30  C   UNL     1      -1.212  -1.006  24.992  0.00  0.00    -0.002 A 
ATOM     31  C   UNL     1      -0.686  -1.475  25.423  0.00  0.00    -0.000 A 
ATOM     32  C   UNL     1      -0.704  -2.295  25.341  0.00  0.00    -0.000 A 
ATOM     33  C   UNL     1      -1.247  -2.647  24.829  0.00  0.00    -0.000 A 
ATOM     34  C   UNL     1      -1.772  -2.179  24.399  0.00  0.00    -0.002 A 
ENDBRANCH  28  29
ENDBRANCH  27  28
TORSDOF 7
ENDMDL
MODEL 6
REMARK VINA RESULT:     -11.1      1.800      2.718
REMARK  Name = 
REMARK  7 active torsions:
REMARK  status: ('A' for Active; 'I' for Inactive)
REMARK    1  A    between atoms: O_2  and  C_3
REMARK    2  A    between atoms: C_3  and  C_5
REMARK    3  A    between atoms: N_10  and  S_11
REMARK    4  A    between atoms: S_11  and  C_14
REMARK    5  A    between atoms: C_19  and  N_20
REMARK    6  A    between atoms: N_27  and  C_28
REMARK    7  A    between atoms: C_28  and  C_29
REMARK                            x       y       z     vdW  Elec       q    Type
REMARK                         _______ _______ _______ _____ _____    ______ ____
ROOT
ATOM      5  C   UNL     1      -1.378   3.210  25.015  0.00  0.00    +0.184 C 
ATOM      6  C   UNL     1      -0.574   3.063  24.902  0.00  0.00    +0.076 C 
ATOM      7  C   UNL     1      -0.325   2.333  24.611  0.00  0.00    +0.076 A 
ATOM      8  C   UNL     1      -0.880   1.750  24.432  0.00  0.00    +0.070 A 
ATOM      9  C   UNL     1      -1.685   1.897  24.545  0.00  0.00    +0.141 C 
ATOM     10  N   UNL     1      -1.933   2.627  24.836  0.00  0.00    -0.140 NA
ATOM     27  N   UNL     1      -0.475   1.088  24.154  0.00  0.00    -0.307 N 
ATOM     35  C   UNL     1       0.332   1.261  24.162  0.00  0.00    +0.178 A 
ATOM     36  N   UNL     1       0.424   2.030  24.444  0.00  0.00    -0.229 NA
ENDROOT
BRANCH  10  11
ATOM     11  S   UNL     1      -2.737   2.775  24.949  0.00  0.00    +0.064 S 
ATOM     12  O   UNL     1      -2.816   2.956  24.148  0.00  0.00    -0.153 OA
ATOM     13  O   UNL     1      -2.658   2.594  25.750  0.00  0.00    -0.153 OA
BRANCH  11  14
ATOM     14  C   UNL     1      -3.541   2.922  25.062  0.00  0.00    +0.122 A 
ATOM     15  C   UNL     1      -4.075   2.295  25.085  0.00  0.00    +0.020 A 
ATOM     16  C   UNL     1      -3.807   1.520  24.996  0.00  0.00    +0.001 A 
ATOM     17  C   UNL     1      -4.342   0.893  25.020  0.00  0.00    +0.001 A 
ATOM     18  C   UNL     1      -5.147   1.040  25.133  0.00  0.00    +0.015 A 
ATOM     19  C   UNL     1      -5.415   1.815  25.222  0.00  0.00    +0.048 A 
ATOM     23  C   UNL     1      -4.880   2.443  25.198  0.00  0.00    +0.015 A 
ATOM     24  C   UNL     1      -5.149   3.217  25.287  0.00  0.00    +0.001 A 
ATOM     25  C   UNL     1      -4.614   3.844  25.264  0.00  0.00    +0.001 A 
ATOM     26  C   UNL     1      -3.809   3.697  25.151  0.00  0.00    +0.020 A 
BRANCH  19  20
ATOM     20  N   UNL     1      -6.219   1.962  25.335  0.00  0.00    -0.304 N 
ATOM     21  C   UNL     1      -6.725   2.010  24.685  0.00  0.00    +0.112 C 
ATOM     22  C   UNL     1      -6.517   2.062  26.098  0.00  0.00    +0.112 C 
ENDBRANCH  19  20
ENDBRANCH  11  14
ENDBRANCH  10  11
BRANCH   5   3
ATOM      3  C   UNL     1      -1.626   3.941  25.307  0.00  0.00    +0.334 C 
ATOM      4  O   UNL     1      -1.849   4.017  26.098  0.00  0.00    -0.249 OA
BRANCH   3   2
ATOM      1  C   UNL     1      -1.322   5.314  25.051  0.00  0.00    +0.256 C 
ATOM      2  O   UNL     1      -1.651   4.597  24.808  0.00  0.00    -0.443 OA
ENDBRANCH   3   2
ENDBRANCH   5   3
BRANCH  27  28
ATOM     28  C   UNL     1      -0.815   0.376  23.912  0.00  0.00    +0.134 C 
BRANCH  28  29
ATOM     29  C   UNL     1      -0.631  -0.324  24.307  0.00  0.00    +0.000 A 
ATOM     30  C   UNL     1      -1.074  -0.557  24.962  0.00  0.00    -0.002 A 
ATOM     31  C   UNL     1      -0.890  -1.258  25.357  0.00  0.00    -0.000 A 
ATOM     32  C   UNL     1      -0.262  -1.725  25.096  0.00  0.00    -0.000 A 
ATOM     33  C   UNL     1       0.181  -1.492  24.440  0.00  0.00    -0.000 A 
ATOM     34  C   UNL     1      -0.003  -0.792  24.046  0.00  0.00    -0.002 A 
ENDBRANCH  28  29
ENDBRANCH  27  28
TORSDOF 7
ENDMDL
