MODEL 1
REMARK VINA RESULT:     -10.1      0.000      0.000
REMARK  Name = 
REMARK  5 active torsions:
REMARK  status: ('A' for Active; 'I' for Inactive)
REMARK    1  A    between atoms: C_4  and  C_13
REMARK    2  A    between atoms: C_6  and  C_8
REMARK    3  A    between atoms: C_20  and  C_21
REMARK    4  A    between atoms: C_21  and  N_22
REMARK    5  A    between atoms: N_22  and  S_23
REMARK                            x       y       z     vdW  Elec       q    Type
REMARK                         _______ _______ _______ _____ _____    ______ ____
ROOT
ATOM     13  C   UNL     1      -3.732   1.379  24.854  0.00  0.00    +0.056 C 
ATOM     14  C   UNL     1      -3.788   0.920  25.480  0.00  0.00    +0.078 C 
ATOM     15  N   UNL     1      -3.779   0.672  24.693  0.00  0.00    -0.272 NA
ATOM     16  C   UNL     1      -3.694   1.531  24.098  0.00  0.00    +0.072 C 
ATOM     17  C   UNL     1      -3.653   1.813  23.510  0.00  0.00    +0.018 C 
ATOM     18  C   UNL     1      -3.724   1.128  24.084  0.00  0.00    +0.010 C 
ATOM     19  C   UNL     1      -3.770   0.327  23.726  0.00  0.00    +0.018 C 
ATOM     20  C   UNL     1      -3.827  -0.157  24.314  0.00  0.00    +0.077 C 
ENDROOT
BRANCH  13   4
ATOM      1  C   UNL     1      -4.993   3.909  25.278  0.00  0.00    +0.074 C 
ATOM      2  C   UNL     1      -4.307   3.457  25.197  0.00  0.00    +0.139 A 
ATOM      3  N   UNL     1      -4.363   2.645  25.066  0.00  0.00    -0.235 NA
ATOM      4  C   UNL     1      -3.677   2.193  24.985  0.00  0.00    +0.063 A 
ATOM      5  C   UNL     1      -2.937   2.552  25.035  0.00  0.00    +0.037 A 
ATOM      6  C   UNL     1      -2.882   3.365  25.167  0.00  0.00    +0.118 A 
ATOM      7  N   UNL     1      -3.567   3.817  25.248  0.00  0.00    -0.228 NA
BRANCH   6   8
ATOM      8  C   UNL     1      -2.142   3.726  25.217  0.00  0.00    +0.163 A 
ATOM      9  C   UNL     1      -1.952   4.482  24.947  0.00  0.00    +0.042 A 
ATOM     10  C   UNL     1      -1.155   4.618  25.109  0.00  0.00    +0.044 A 
ATOM     11  C   UNL     1      -0.851   3.946  25.479  0.00  0.00    +0.180 A 
ATOM     12  O   UNL     1      -1.461   3.394  25.546  0.00  0.00    -0.449 OA
ENDBRANCH   6   8
ENDBRANCH  13   4
BRANCH  20  21
ATOM     21  C   UNL     1      -3.892  -0.958  24.497  0.00  0.00    +0.131 C 
BRANCH  21  22
ATOM     22  N   UNL     1      -3.515  -1.522  24.027  0.00  0.00    -0.081 NA
BRANCH  22  23
ATOM     23  S   UNL     1      -3.540  -2.318  24.239  0.00  0.00    +0.059 S 
ATOM     24  C   UNL     1      -3.565  -3.115  24.452  0.00  0.00    +0.197 C 
ATOM     25  O   UNL     1      -2.786  -2.254  24.568  0.00  0.00    -0.156 OA
ATOM     26  O   UNL     1      -4.294  -2.383  23.911  0.00  0.00    -0.156 OA
ENDBRANCH  22  23
ENDBRANCH  21  22
ENDBRANCH  20  21
TORSDOF 5
ENDMDL
MODEL 2
REMARK VINA RESULT:      -9.6      2.435      4.645
REMARK  Name = 
REMARK  5 active torsions:
REMARK  status: ('A' for Active; 'I' for Inactive)
REMARK    1  A    between atoms: C_4  and  C_13
REMARK    2  A    between atoms: C_6  and  C_8
REMARK    3  A    between atoms: C_20  and  C_21
REMARK    4  A    between atoms: C_21  and  N_22
REMARK    5  A    between atoms: N_22  and  S_23
REMARK                            x       y       z     vdW  Elec       q    Type
REMARK                         _______ _______ _______ _____ _____    ______ ____
ROOT
ATOM     13  C   UNL     1      -3.844  -0.090  24.841  0.00  0.00    +0.056 C 
ATOM     14  C   UNL     1      -4.106   0.059  25.559  0.00  0.00    +0.078 C 
ATOM     15  N   UNL     1      -4.188   0.548  24.899  0.00  0.00    -0.272 NA
ATOM     16  C   UNL     1      -3.729   0.061  24.092  0.00  0.00    +0.072 C 
ATOM     17  C   UNL     1      -3.558   0.043  23.462  0.00  0.00    +0.018 C 
ATOM     18  C   UNL     1      -3.929   0.396  24.198  0.00  0.00    +0.010 C 
ATOM     19  C   UNL     1      -4.308   1.181  24.101  0.00  0.00    +0.018 C 
ATOM     20  C   UNL     1      -4.581   1.365  24.790  0.00  0.00    +0.077 C 
ENDROOT
BRANCH  13   4
ATOM      1  C   UNL     1      -3.892  -2.871  24.183  0.00  0.00    +0.074 C 
ATOM      2  C   UNL     1      -3.470  -2.194  24.395  0.00  0.00    +0.139 A 
ATOM      3  N   UNL     1      -3.868  -1.481  24.512  0.00  0.00    -0.235 NA
ATOM      4  C   UNL     1      -3.446  -0.804  24.724  0.00  0.00    +0.063 A 
ATOM      5  C   UNL     1      -2.628  -0.840  24.818  0.00  0.00    +0.037 A 
ATOM      6  C   UNL     1      -2.231  -1.553  24.701  0.00  0.00    +0.118 A 
ATOM      7  N   UNL     1      -2.651  -2.230  24.490  0.00  0.00    -0.228 NA
BRANCH   6   8
ATOM      8  C   UNL     1      -1.412  -1.590  24.796  0.00  0.00    +0.163 A 
ATOM      9  C   UNL     1      -1.013  -1.820  25.480  0.00  0.00    +0.042 A 
ATOM     10  C   UNL     1      -0.203  -1.776  25.331  0.00  0.00    +0.044 A 
ATOM     11  C   UNL     1      -0.101  -1.519  24.554  0.00  0.00    +0.180 A 
ATOM     12  O   UNL     1      -0.848  -1.404  24.223  0.00  0.00    -0.449 OA
ENDBRANCH   6   8
ENDBRANCH  13   4
BRANCH  20  21
ATOM     21  C   UNL     1      -4.989   1.954  25.196  0.00  0.00    +0.131 C 
BRANCH  21  22
ATOM     22  N   UNL     1      -4.943   2.738  24.943  0.00  0.00    -0.081 NA
BRANCH  22  23
ATOM     23  S   UNL     1      -5.260   3.341  25.409  0.00  0.00    +0.059 S 
ATOM     24  C   UNL     1      -5.576   3.944  25.875  0.00  0.00    +0.197 C 
ATOM     25  O   UNL     1      -4.524   3.714  25.425  0.00  0.00    -0.156 OA
ATOM     26  O   UNL     1      -5.996   2.968  25.392  0.00  0.00    -0.156 OA
ENDBRANCH  22  23
ENDBRANCH  21  22
ENDBRANCH  20  21
TORSDOF 5
ENDMDL
MODEL 3
REMARK VINA RESULT:      -9.4      2.527      5.416
REMARK  Name = 
REMARK  5 active torsions:
REMARK  status: ('A' for Active; 'I' for Inactive)
REMARK    1  A    between atoms: C_4  and  C_13
REMARK    2  A    between atoms: C_6  and  C_8
REMARK    3  A    between atoms: C_20  and  C_21
REMARK    4  A    between atoms: C_21  and  N_22
REMARK    5  A    between atoms: N_22  and  S_23
REMARK                            x       y       z     vdW  Elec       q    Type
REMARK                         _______ _______ _______ _____ _____    ______ ____
ROOT
ATOM     13  C   UNL     1      -1.358   0.674  25.012  0.00  0.00    +0.056 C 
ATOM     14  C   UNL     1      -1.660   1.028  25.635  0.00  0.00    +0.078 C 
ATOM     15  N   UNL     1      -1.269   1.395  25.008  0.00  0.00    -0.272 NA
ATOM     16  C   UNL     1      -0.988   0.642  24.335  0.00  0.00    +0.072 C 
ATOM     17  C   UNL     1      -0.702   0.456  23.777  0.00  0.00    +0.018 C 
ATOM     18  C   UNL     1      -0.975   1.041  24.400  0.00  0.00    +0.010 C 
ATOM     19  C   UNL     1      -0.788   1.885  24.245  0.00  0.00    +0.018 C 
ATOM     20  C   UNL     1      -1.070   2.270  24.841  0.00  0.00    +0.077 C 
ENDROOT
BRANCH  13   4
ATOM      1  C   UNL     1      -0.228  -1.935  25.310  0.00  0.00    +0.074 C 
ATOM      2  C   UNL     1      -0.869  -1.451  25.119  0.00  0.00    +0.139 A 
ATOM      3  N   UNL     1      -0.793  -0.631  25.161  0.00  0.00    -0.235 NA
ATOM      4  C   UNL     1      -1.434  -0.148  24.970  0.00  0.00    +0.063 A 
ATOM      5  C   UNL     1      -2.150  -0.484  24.737  0.00  0.00    +0.037 A 
ATOM      6  C   UNL     1      -2.225  -1.304  24.695  0.00  0.00    +0.118 A 
ATOM      7  N   UNL     1      -1.585  -1.788  24.886  0.00  0.00    -0.228 NA
BRANCH   6   8
ATOM      8  C   UNL     1      -2.941  -1.641  24.463  0.00  0.00    +0.163 A 
ATOM      9  C   UNL     1      -3.203  -2.401  24.650  0.00  0.00    +0.042 A 
ATOM     10  C   UNL     1      -3.944  -2.509  24.306  0.00  0.00    +0.044 A 
ATOM     11  C   UNL     1      -4.142  -1.815  23.905  0.00  0.00    +0.180 A 
ATOM     12  O   UNL     1      -3.522  -1.279  24.003  0.00  0.00    -0.449 OA
ENDBRANCH   6   8
ENDBRANCH  13   4
BRANCH  20  21
ATOM     21  C   UNL     1      -1.150   3.030  25.150  0.00  0.00    +0.131 C 
BRANCH  21  22
ATOM     22  N   UNL     1      -1.340   3.661  24.653  0.00  0.00    -0.081 NA
BRANCH  22  23
ATOM     23  S   UNL     1      -1.443   4.416  24.967  0.00  0.00    +0.059 S 
ATOM     24  C   UNL     1      -1.547   5.172  25.281  0.00  0.00    +0.197 C 
ATOM     25  O   UNL     1      -2.261   4.306  24.961  0.00  0.00    -0.156 OA
ATOM     26  O   UNL     1      -0.626   4.527  24.973  0.00  0.00    -0.156 OA
ENDBRANCH  22  23
ENDBRANCH  21  22
ENDBRANCH  20  21
TORSDOF 5
ENDMDL
MODEL 4
REMARK VINA RESULT:      -9.2      2.748      3.593
REMARK  Name = 
REMARK  5 active torsions:
REMARK  status: ('A' for Active; 'I' for Inactive)
REMARK    1  A    between atoms: C_4  and  C_13
REMARK    2  A    between atoms: C_6  and  C_8
REMARK    3  A    between atoms: C_20  and  C_21
REMARK    4  A    between atoms: C_21  and  N_22
REMARK    5  A    between atoms: N_22  and  S_23
REMARK                            x       y       z     vdW  Elec       q    Type
REMARK                         _______ _______ _______ _____ _____    ______ ____
ROOT
ATOM     13  C   UNL     1      -1.496   2.339  24.434  0.00  0.00    +0.056 C 
ATOM     14  C   UNL     1      -1.530   2.186  23.671  0.00  0.00    +0.078 C 
ATOM     15  N   UNL     1      -1.040   1.814  24.222  0.00  0.00    -0.272 NA
ATOM     16  C   UNL     1      -1.237   2.248  25.155  0.00  0.00    +0.072 C 
ATOM     17  C   UNL     1      -1.125   2.290  25.798  0.00  0.00    +0.018 C 
ATOM     18  C   UNL     1      -1.013   1.969  24.968  0.00  0.00    +0.010 C 
ATOM     19  C   UNL     1      -0.418   1.329  24.878  0.00  0.00    +0.018 C 
ATOM     20  C   UNL     1      -0.421   1.149  24.136  0.00  0.00    +0.077 C 
ENDROOT
BRANCH  13   4
ATOM      1  C   UNL     1      -1.902   5.032  25.302  0.00  0.00    +0.074 C 
ATOM      2  C   UNL     1      -2.198   4.276  25.157  0.00  0.00    +0.139 A 
ATOM      3  N   UNL     1      -1.699   3.686  24.868  0.00  0.00    -0.235 NA
ATOM      4  C   UNL     1      -1.996   2.930  24.724  0.00  0.00    +0.063 A 
ATOM      5  C   UNL     1      -2.790   2.763  24.868  0.00  0.00    +0.037 A 
ATOM      6  C   UNL     1      -3.288   3.352  25.158  0.00  0.00    +0.118 A 
ATOM      7  N   UNL     1      -2.993   4.109  25.302  0.00  0.00    -0.228 NA
BRANCH   6   8
ATOM      8  C   UNL     1      -4.083   3.186  25.303  0.00  0.00    +0.163 A 
ATOM      9  C   UNL     1      -4.637   2.939  24.743  0.00  0.00    +0.042 A 
ATOM     10  C   UNL     1      -5.360   2.838  25.126  0.00  0.00    +0.044 A 
ATOM     11  C   UNL     1      -5.254   3.024  25.923  0.00  0.00    +0.180 A 
ATOM     12  O   UNL     1      -4.465   3.239  26.032  0.00  0.00    -0.449 OA
ENDBRANCH   6   8
ENDBRANCH  13   4
BRANCH  20  21
ATOM     21  C   UNL     1      -0.070   0.648  23.584  0.00  0.00    +0.131 C 
BRANCH  21  22
ATOM     22  N   UNL     1       0.715   0.412  23.680  0.00  0.00    -0.081 NA
BRANCH  22  23
ATOM     23  S   UNL     1       1.102   0.012  23.071  0.00  0.00    +0.059 S 
ATOM     24  C   UNL     1       1.490  -0.388  22.463  0.00  0.00    +0.197 C 
ATOM     25  O   UNL     1       1.639   0.635  23.004  0.00  0.00    -0.156 OA
ATOM     26  O   UNL     1       0.566  -0.611  23.138  0.00  0.00    -0.156 OA
ENDBRANCH  22  23
ENDBRANCH  21  22
ENDBRANCH  20  21
TORSDOF 5
ENDMDL
MODEL 5
REMARK VINA RESULT:      -9.1      2.019      4.827
REMARK  Name = 
REMARK  5 active torsions:
REMARK  status: ('A' for Active; 'I' for Inactive)
REMARK    1  A    between atoms: C_4  and  C_13
REMARK    2  A    between atoms: C_6  and  C_8
REMARK    3  A    between atoms: C_20  and  C_21
REMARK    4  A    between atoms: C_21  and  N_22
REMARK    5  A    between atoms: N_22  and  S_23
REMARK                            x       y       z     vdW  Elec       q    Type
REMARK                         _______ _______ _______ _____ _____    ______ ____
ROOT
ATOM     13  C   UNL     1      -3.812   2.660  24.835  0.00  0.00    +0.056 C 
ATOM     14  C   UNL     1      -3.353   2.746  24.213  0.00  0.00    +0.078 C 
ATOM     15  N   UNL     1      -3.368   3.233  24.879  0.00  0.00    -0.272 NA
ATOM     16  C   UNL     1      -4.093   2.845  25.529  0.00  0.00    +0.072 C 
ATOM     17  C   UNL     1      -4.423   2.871  26.092  0.00  0.00    +0.018 C 
ATOM     18  C   UNL     1      -3.822   3.142  25.485  0.00  0.00    +0.010 C 
ATOM     19  C   UNL     1      -3.360   3.859  25.692  0.00  0.00    +0.018 C 
ATOM     20  C   UNL     1      -2.892   3.979  25.101  0.00  0.00    +0.077 C 
ENDROOT
BRANCH  13   4
ATOM      1  C   UNL     1      -6.486   1.651  24.752  0.00  0.00    +0.074 C 
ATOM      2  C   UNL     1      -5.673   1.517  24.790  0.00  0.00    +0.139 A 
ATOM      3  N   UNL     1      -5.150   2.155  24.793  0.00  0.00    -0.235 NA
ATOM      4  C   UNL     1      -4.336   2.021  24.831  0.00  0.00    +0.063 A 
ATOM      5  C   UNL     1      -4.046   1.250  24.866  0.00  0.00    +0.037 A 
ATOM      6  C   UNL     1      -4.569   0.612  24.862  0.00  0.00    +0.118 A 
ATOM      7  N   UNL     1      -5.382   0.745  24.824  0.00  0.00    -0.228 NA
BRANCH   6   8
ATOM      8  C   UNL     1      -4.280  -0.160  24.897  0.00  0.00    +0.163 A 
ATOM      9  C   UNL     1      -4.248  -0.694  24.269  0.00  0.00    +0.042 A 
ATOM     10  C   UNL     1      -3.920  -1.397  24.548  0.00  0.00    +0.044 A 
ATOM     11  C   UNL     1      -3.749  -1.298  25.349  0.00  0.00    +0.180 A 
ATOM     12  O   UNL     1      -3.972  -0.533  25.565  0.00  0.00    -0.449 OA
ENDBRANCH   6   8
ENDBRANCH  13   4
BRANCH  20  21
ATOM     21  C   UNL     1      -2.303   4.486  24.826  0.00  0.00    +0.131 C 
BRANCH  21  22
ATOM     22  N   UNL     1      -1.614   4.597  25.266  0.00  0.00    -0.081 NA
BRANCH  22  23
ATOM     23  S   UNL     1      -0.988   5.030  24.950  0.00  0.00    +0.059 S 
ATOM     24  C   UNL     1      -0.361   5.463  24.633  0.00  0.00    +0.197 C 
ATOM     25  O   UNL     1      -0.555   4.334  24.857  0.00  0.00    -0.156 OA
ATOM     26  O   UNL     1      -1.421   5.726  25.042  0.00  0.00    -0.156 OA
ENDBRANCH  22  23
ENDBRANCH  21  22
ENDBRANCH  20  21
TORSDOF 5
ENDMDL
MODEL 6
REMARK VINA RESULT:      -8.9      1.779      2.456
REMARK  Name = 
REMARK  5 active torsions:
REMARK  status: ('A' for Active; 'I' for Inactive)
REMARK    1  A    between atoms: C_4  and  C_13
REMARK    2  A    between atoms: C_6  and  C_8
REMARK    3  A    between atoms: C_20  and  C_21
REMARK    4  A    between atoms: C_21  and  N_22
REMARK    5  A    between atoms: N_22  and  S_23
REMARK                            x       y       z     vdW  Elec       q    Type
REMARK                         _______ _______ _______ _____ _____    ______ ____
ROOT
ATOM     13  C   UNL     1      -1.772   0.940  24.447  0.00  0.00    +0.056 C 
ATOM     14  C   UNL     1      -2.252   0.909  23.836  0.00  0.00    +0.078 C 
ATOM     15  N   UNL     1      -2.209   0.359  24.451  0.00  0.00    -0.272 NA
ATOM     16  C   UNL     1      -1.464   0.691  25.110  0.00  0.00    +0.072 C 
ATOM     17  C   UNL     1      -1.114   0.615  25.656  0.00  0.00    +0.018 C 
ATOM     18  C   UNL     1      -1.734   0.397  25.047  0.00  0.00    +0.010 C 
ATOM     19  C   UNL     1      -2.181  -0.343  25.198  0.00  0.00    +0.018 C 
ATOM     20  C   UNL     1      -2.669  -0.411  24.615  0.00  0.00    +0.077 C 
ENDROOT
BRANCH  13   4
ATOM      1  C   UNL     1       0.849   2.034  24.119  0.00  0.00    +0.074 C 
ATOM      2  C   UNL     1       0.056   2.129  24.324  0.00  0.00    +0.139 A 
ATOM      3  N   UNL     1      -0.461   1.488  24.283  0.00  0.00    -0.235 NA
ATOM      4  C   UNL     1      -1.254   1.583  24.488  0.00  0.00    +0.063 A 
ATOM      5  C   UNL     1      -1.531   2.319  24.735  0.00  0.00    +0.037 A 
ATOM      6  C   UNL     1      -1.015   2.961  24.776  0.00  0.00    +0.118 A 
ATOM      7  N   UNL     1      -0.222   2.866  24.570  0.00  0.00    -0.228 NA
BRANCH   6   8
ATOM      8  C   UNL     1      -1.291   3.699  25.022  0.00  0.00    +0.163 A 
ATOM      9  C   UNL     1      -0.965   4.430  24.823  0.00  0.00    +0.042 A 
ATOM     10  C   UNL     1      -1.413   5.018  25.187  0.00  0.00    +0.044 A 
ATOM     11  C   UNL     1      -2.017   4.650  25.613  0.00  0.00    +0.180 A 
ATOM     12  O   UNL     1      -1.942   3.835  25.510  0.00  0.00    -0.449 OA
ENDBRANCH   6   8
ENDBRANCH  13   4
BRANCH  20  21
ATOM     21  C   UNL     1      -3.263  -0.896  24.312  0.00  0.00    +0.131 C 
BRANCH  21  22
ATOM     22  N   UNL     1      -3.420  -1.626  24.664  0.00  0.00    -0.081 NA
BRANCH  22  23
ATOM     23  S   UNL     1      -3.865  -2.191  24.260  0.00  0.00    +0.059 S 
ATOM     24  C   UNL     1      -4.310  -2.756  23.855  0.00  0.00    +0.197 C 
ATOM     25  O   UNL     1      -4.436  -1.620  24.092  0.00  0.00    -0.156 OA
ATOM     26  O   UNL     1      -3.294  -2.762  24.428  0.00  0.00    -0.156 OA
ENDBRANCH  22  23
ENDBRANCH  21  22
ENDBRANCH  20  21
TORSDOF 5
ENDMDL
MODEL 7
REMARK VINA RESULT:      -8.9      2.086      4.922
REMARK  Name = 
REMARK  5 active torsions:
REMARK  status: ('A' for Active; 'I' for Inactive)
REMARK    1  A    between atoms: C_4  and  C_13
REMARK    2  A    between atoms: C_6  and  C_8
REMARK    3  A    between atoms: C_20  and  C_21
REMARK    4  A    between atoms: C_21  and  N_22
REMARK    5  A    between atoms: N_22  and  S_23
REMARK                            x       y       z     vdW  Elec       q    Type
REMARK                         _______ _______ _______ _____ _____    ______ ____
ROOT
ATOM     13  C   UNL     1      -2.837   0.869  24.706  0.00  0.00    +0.056 C 
ATOM     14  C   UNL     1      -2.980   1.127  25.426  0.00  0.00    +0.078 C 
ATOM     15  N   UNL     1      -3.191   1.504  24.723  0.00  0.00    -0.272 NA
ATOM     16  C   UNL     1      -2.855   0.899  23.935  0.00  0.00    +0.072 C 
ATOM     17  C   UNL     1      -2.791   0.784  23.295  0.00  0.00    +0.018 C 
ATOM     18  C   UNL     1      -3.048   1.245  24.020  0.00  0.00    +0.010 C 
ATOM     19  C   UNL     1      -3.469   2.000  23.869  0.00  0.00    +0.018 C 
ATOM     20  C   UNL     1      -3.628   2.288  24.558  0.00  0.00    +0.077 C 
ENDROOT
BRANCH  13   4
ATOM      1  C   UNL     1      -0.396  -0.582  24.382  0.00  0.00    +0.074 C 
ATOM      2  C   UNL     1      -1.216  -0.575  24.472  0.00  0.00    +0.139 A 
ATOM      3  N   UNL     1      -1.616   0.143  24.544  0.00  0.00    -0.235 NA
ATOM      4  C   UNL     1      -2.436   0.150  24.634  0.00  0.00    +0.063 A 
ATOM      5  C   UNL     1      -2.856  -0.559  24.653  0.00  0.00    +0.037 A 
ATOM      6  C   UNL     1      -2.456  -1.277  24.582  0.00  0.00    +0.118 A 
ATOM      7  N   UNL     1      -1.636  -1.285  24.491  0.00  0.00    -0.228 NA
BRANCH   6   8
ATOM      8  C   UNL     1      -2.875  -1.987  24.600  0.00  0.00    +0.163 A 
ATOM      9  C   UNL     1      -3.102  -2.398  25.279  0.00  0.00    +0.042 A 
ATOM     10  C   UNL     1      -3.508  -3.076  25.043  0.00  0.00    +0.044 A 
ATOM     11  C   UNL     1      -3.532  -3.085  24.218  0.00  0.00    +0.180 A 
ATOM     12  O   UNL     1      -3.141  -2.412  23.944  0.00  0.00    -0.449 OA
ENDBRANCH   6   8
ENDBRANCH  13   4
BRANCH  20  21
ATOM     21  C   UNL     1      -3.986   2.929  24.932  0.00  0.00    +0.131 C 
BRANCH  21  22
ATOM     22  N   UNL     1      -4.790   3.076  24.822  0.00  0.00    -0.081 NA
BRANCH  22  23
ATOM     23  S   UNL     1      -5.177   3.629  25.296  0.00  0.00    +0.059 S 
ATOM     24  C   UNL     1      -5.564   4.181  25.772  0.00  0.00    +0.197 C 
ATOM     25  O   UNL     1      -5.765   3.075  25.461  0.00  0.00    -0.156 OA
ATOM     26  O   UNL     1      -4.589   4.183  25.132  0.00  0.00    -0.156 OA
ENDBRANCH  22  23
ENDBRANCH  21  22
ENDBRANCH  20  21
TORSDOF 5
ENDMDL
MODEL 8
REMARK VINA RESULT:      -8.8      2.897      3.737
REMARK  Name = 
REMARK  5 active torsions:
REMARK  status: ('A' for Active; 'I' for Inactive)
REMARK    1  A    between atoms: C_4  and  C_13
REMARK    2  A    between atoms: C_6  and  C_8
REMARK    3  A    between atoms: C_20  and  C_21
REMARK    4  A    between atoms: C_21  and  N_22
REMARK    5  A    between atoms: N_22  and  S_23
REMARK                            x       y       z     vdW  Elec       q    Type
REMARK                         _______ _______ _______ _____ _____    ______ ____
ROOT
ATOM     13  C   UNL     1      -1.927   0.827  24.059  0.00  0.00    +0.056 C 
ATOM     14  C   UNL     1      -1.727   1.079  23.351  0.00  0.00    +0.078 C 
ATOM     15  N   UNL     1      -1.218   0.758  23.916  0.00  0.00    -0.272 NA
ATOM     16  C   UNL     1      -1.797   0.520  24.756  0.00  0.00    +0.072 C 
ATOM     17  C   UNL     1      -1.848   0.282  25.362  0.00  0.00    +0.018 C 
ATOM     18  C   UNL     1      -1.421   0.513  24.608  0.00  0.00    +0.010 C 
ATOM     19  C   UNL     1      -0.556   0.364  24.593  0.00  0.00    +0.018 C 
ATOM     20  C   UNL     1      -0.319   0.601  23.908  0.00  0.00    +0.077 C 
ENDROOT
BRANCH  13   4
ATOM      1  C   UNL     1      -4.484  -0.397  24.424  0.00  0.00    +0.074 C 
ATOM      2  C   UNL     1      -4.002   0.271  24.452  0.00  0.00    +0.139 A 
ATOM      3  N   UNL     1      -3.206   0.215  24.242  0.00  0.00    -0.235 NA
ATOM      4  C   UNL     1      -2.724   0.884  24.270  0.00  0.00    +0.063 A 
ATOM      5  C   UNL     1      -3.036   1.608  24.508  0.00  0.00    +0.037 A 
ATOM      6  C   UNL     1      -3.831   1.665  24.719  0.00  0.00    +0.118 A 
ATOM      7  N   UNL     1      -4.315   0.997  24.691  0.00  0.00    -0.228 NA
BRANCH   6   8
ATOM      8  C   UNL     1      -4.145   2.390  24.957  0.00  0.00    +0.163 A 
ATOM      9  C   UNL     1      -4.361   3.012  24.460  0.00  0.00    +0.042 A 
ATOM     10  C   UNL     1      -4.647   3.627  24.929  0.00  0.00    +0.044 A 
ATOM     11  C   UNL     1      -4.609   3.385  25.717  0.00  0.00    +0.180 A 
ATOM     12  O   UNL     1      -4.299   2.621  25.734  0.00  0.00    -0.449 OA
ENDBRANCH   6   8
ENDBRANCH  13   4
BRANCH  20  21
ATOM     21  C   UNL     1       0.354   0.672  23.437  0.00  0.00    +0.131 C 
BRANCH  21  22
ATOM     22  N   UNL     1       0.869   0.032  23.352  0.00  0.00    -0.081 NA
BRANCH  22  23
ATOM     23  S   UNL     1       1.522   0.093  22.852  0.00  0.00    +0.059 S 
ATOM     24  C   UNL     1       2.176   0.154  22.352  0.00  0.00    +0.197 C 
ATOM     25  O   UNL     1       1.852   0.658  23.354  0.00  0.00    -0.156 OA
ATOM     26  O   UNL     1       1.192  -0.472  22.350  0.00  0.00    -0.156 OA
ENDBRANCH  22  23
ENDBRANCH  21  22
ENDBRANCH  20  21
TORSDOF 5
ENDMDL
