MODEL 1
REMARK VINA RESULT:      -9.7      0.000      0.000
REMARK  Name = 
REMARK  11 active torsions:
REMARK  status: ('A' for Active; 'I' for Inactive)
REMARK    1  A    between atoms: C_2  and  C_3
REMARK    2  A    between atoms: C_3  and  C_4
REMARK    3  A    between atoms: C_3  and  C_6
REMARK    4  A    between atoms: C_8  and  C_18
REMARK    5  A    between atoms: C_10  and  C_12
REMARK    6  A    between atoms: C_25  and  C_26
REMARK    7  A    between atoms: C_26  and  N_27
REMARK    8  A    between atoms: C_28  and  C_30
REMARK    9  A    between atoms: C_30  and  S_31
REMARK   10  A    between atoms: S_31  and  C_32
REMARK   11  A    between atoms: C_32  and  C_33
REMARK                            x       y       z     vdW  Elec       q    Type
REMARK                         _______ _______ _______ _____ _____    ______ ____
ROOT
ATOM     18  C   UNL     1      -1.031   0.583  23.826  0.00  0.00    +0.056 C 
ATOM     19  C   UNL     1      -0.930   0.418  23.073  0.00  0.00    +0.078 C 
ATOM     20  N   UNL     1      -0.333   0.513  23.635  0.00  0.00    -0.272 NA
ATOM     21  C   UNL     1      -0.800   0.728  24.549  0.00  0.00    +0.072 C 
ATOM     22  C   UNL     1      -0.764   0.863  25.187  0.00  0.00    +0.018 C 
ATOM     23  C   UNL     1      -0.440   0.675  24.372  0.00  0.00    +0.010 C 
ATOM     24  C   UNL     1       0.434   0.625  24.307  0.00  0.00    +0.018 C 
ATOM     25  C   UNL     1       0.576   0.462  23.575  0.00  0.00    +0.079 C 
ENDROOT
BRANCH  18   8
ATOM      6  C   UNL     1      -3.020   0.100  24.586  0.00  0.00    +0.061 A 
ATOM      7  C   UNL     1      -2.245   0.010  24.320  0.00  0.00    +0.030 A 
ATOM      8  C   UNL     1      -1.808   0.673  24.093  0.00  0.00    +0.063 A 
ATOM      9  N   UNL     1      -2.146   1.423  24.132  0.00  0.00    -0.231 NA
ATOM     10  C   UNL     1      -2.921   1.513  24.398  0.00  0.00    +0.162 A 
ATOM     11  N   UNL     1      -3.359   0.851  24.625  0.00  0.00    -0.231 NA
BRANCH  10  12
ATOM     12  C   UNL     1      -3.261   2.264  24.438  0.00  0.00    +0.039 A 
ATOM     13  C   UNL     1      -3.257   2.680  25.150  0.00  0.00    +0.024 A 
ATOM     14  C   UNL     1      -3.596   3.432  25.191  0.00  0.00    +0.099 A 
ATOM     15  N   UNL     1      -3.939   3.766  24.518  0.00  0.00    -0.242 NA
ATOM     16  C   UNL     1      -3.942   3.349  23.807  0.00  0.00    +0.099 A 
ATOM     17  C   UNL     1      -3.603   2.598  23.766  0.00  0.00    +0.024 A 
ENDBRANCH  10  12
BRANCH   6   3
ATOM      3  C   UNL     1      -3.457  -0.563  24.812  0.00  0.00    +0.040 C 
BRANCH   3   2
ATOM      1  C   UNL     1      -4.469  -1.322  24.149  0.00  0.00    +0.000 C 
ATOM      2  C   UNL     1      -3.674  -1.125  24.250  0.00  0.00    +0.006 C 
ENDBRANCH   3   2
BRANCH   3   4
ATOM      4  C   UNL     1      -3.676  -0.661  25.602  0.00  0.00    +0.006 C 
ATOM      5  C   UNL     1      -3.526  -1.376  25.986  0.00  0.00    +0.000 C 
ENDBRANCH   3   4
ENDBRANCH   6   3
ENDBRANCH  18   8
BRANCH  25  26
ATOM     26  C   UNL     1       1.190   0.323  23.043  0.00  0.00    +0.131 C 
BRANCH  26  27
ATOM     27  N   UNL     1       1.927   0.674  23.163  0.00  0.00    -0.203 NA
ATOM     28  C   UNL     1       2.555   0.501  22.657  0.00  0.00    +0.252 C 
ATOM     29  O   UNL     1       2.446  -0.024  22.030  0.00  0.00    -0.272 OA
BRANCH  28  30
ATOM     30  C   UNL     1       3.291   0.852  22.777  0.00  0.00    +0.145 C 
BRANCH  30  31
ATOM     31  S   UNL     1       3.942   0.388  22.983  0.00  0.00    -0.119 S 
BRANCH  31  32
ATOM     32  C   UNL     1       4.681   0.737  23.090  0.00  0.00    +0.172 C 
BRANCH  32  33
ATOM     33  C   UNL     1       5.267   0.340  23.514  0.00  0.00    +0.376 C 
ATOM     34  O   UNL     1       5.351   0.470  24.324  0.00  0.00    -0.245 OA
ATOM     35  O   UNL     1       5.771  -0.187  23.127  0.00  0.00    -0.245 OA
ENDBRANCH  32  33
ENDBRANCH  31  32
ENDBRANCH  30  31
ENDBRANCH  28  30
ENDBRANCH  26  27
ENDBRANCH  25  26
TORSDOF 11
ENDMDL
MODEL 2
REMARK VINA RESULT:      -8.9      0.643      2.461
REMARK  Name = 
REMARK  11 active torsions:
REMARK  status: ('A' for Active; 'I' for Inactive)
REMARK    1  A    between atoms: C_2  and  C_3
REMARK    2  A    between atoms: C_3  and  C_4
REMARK    3  A    between atoms: C_3  and  C_6
REMARK    4  A    between atoms: C_8  and  C_18
REMARK    5  A    between atoms: C_10  and  C_12
REMARK    6  A    between atoms: C_25  and  C_26
REMARK    7  A    between atoms: C_26  and  N_27
REMARK    8  A    between atoms: C_28  and  C_30
REMARK    9  A    between atoms: C_30  and  S_31
REMARK   10  A    between atoms: S_31  and  C_32
REMARK   11  A    between atoms: C_32  and  C_33
REMARK                            x       y       z     vdW  Elec       q    Type
REMARK                         _______ _______ _______ _____ _____    ______ ____
ROOT
ATOM     18  C   UNL     1      -0.797   0.708  23.773  0.00  0.00    +0.056 C 
ATOM     19  C   UNL     1      -0.695   0.555  23.017  0.00  0.00    +0.078 C 
ATOM     20  N   UNL     1      -0.099   0.660  23.578  0.00  0.00    -0.272 NA
ATOM     21  C   UNL     1      -0.567   0.851  24.496  0.00  0.00    +0.072 C 
ATOM     22  C   UNL     1      -0.533   0.979  25.136  0.00  0.00    +0.018 C 
ATOM     23  C   UNL     1      -0.207   0.810  24.318  0.00  0.00    +0.010 C 
ATOM     24  C   UNL     1       0.668   0.785  24.249  0.00  0.00    +0.018 C 
ATOM     25  C   UNL     1       0.811   0.635  23.514  0.00  0.00    +0.079 C 
ENDROOT
BRANCH  18   8
ATOM      6  C   UNL     1      -2.710   1.579  24.365  0.00  0.00    +0.061 A 
ATOM      7  C   UNL     1      -1.934   1.514  24.095  0.00  0.00    +0.030 A 
ATOM      8  C   UNL     1      -1.575   0.773  24.044  0.00  0.00    +0.063 A 
ATOM      9  N   UNL     1      -1.992   0.097  24.263  0.00  0.00    -0.231 NA
ATOM     10  C   UNL     1      -2.769   0.161  24.533  0.00  0.00    +0.162 A 
ATOM     11  N   UNL     1      -3.128   0.902  24.584  0.00  0.00    -0.231 NA
BRANCH  10  12
ATOM     12  C   UNL     1      -3.188  -0.515  24.753  0.00  0.00    +0.039 A 
ATOM     13  C   UNL     1      -3.623  -0.931  24.190  0.00  0.00    +0.024 A 
ATOM     14  C   UNL     1      -4.042  -1.608  24.408  0.00  0.00    +0.099 A 
ATOM     15  N   UNL     1      -4.025  -1.867  25.192  0.00  0.00    -0.242 NA
ATOM     16  C   UNL     1      -3.590  -1.451  25.755  0.00  0.00    +0.099 A 
ATOM     17  C   UNL     1      -3.171  -0.775  25.536  0.00  0.00    +0.024 A 
ENDBRANCH  10  12
BRANCH   6   3
ATOM      3  C   UNL     1      -3.069   2.321  24.415  0.00  0.00    +0.040 C 
BRANCH   3   2
ATOM      1  C   UNL     1      -4.004   3.105  23.673  0.00  0.00    +0.000 C 
ATOM      2  C   UNL     1      -3.272   2.728  23.728  0.00  0.00    +0.006 C 
ENDBRANCH   3   2
BRANCH   3   4
ATOM      4  C   UNL     1      -3.224   2.654  25.154  0.00  0.00    +0.006 C 
ATOM      5  C   UNL     1      -3.053   3.449  25.292  0.00  0.00    +0.000 C 
ENDBRANCH   3   4
ENDBRANCH   6   3
ENDBRANCH  18   8
BRANCH  25  26
ATOM     26  C   UNL     1       1.427   0.519  22.978  0.00  0.00    +0.131 C 
BRANCH  26  27
ATOM     27  N   UNL     1       2.187   0.782  23.161  0.00  0.00    -0.203 NA
ATOM     28  C   UNL     1       2.823   0.574  22.678  0.00  0.00    +0.252 C 
ATOM     29  O   UNL     1       2.699   0.102  22.013  0.00  0.00    -0.272 OA
BRANCH  28  30
ATOM     30  C   UNL     1       3.583   0.836  22.861  0.00  0.00    +0.145 C 
BRANCH  30  31
ATOM     31  S   UNL     1       4.182   0.290  23.017  0.00  0.00    -0.119 S 
BRANCH  31  32
ATOM     32  C   UNL     1       4.904   0.546  23.323  0.00  0.00    +0.172 C 
BRANCH  32  33
ATOM     33  C   UNL     1       5.472  -0.006  23.557  0.00  0.00    +0.376 C 
ATOM     34  O   UNL     1       5.430  -0.349  24.306  0.00  0.00    -0.245 OA
ATOM     35  O   UNL     1       6.081  -0.214  23.042  0.00  0.00    -0.245 OA
ENDBRANCH  32  33
ENDBRANCH  31  32
ENDBRANCH  30  31
ENDBRANCH  28  30
ENDBRANCH  26  27
ENDBRANCH  25  26
TORSDOF 11
ENDMDL
MODEL 3
REMARK VINA RESULT:      -8.4      1.203      2.576
REMARK  Name = 
REMARK  11 active torsions:
REMARK  status: ('A' for Active; 'I' for Inactive)
REMARK    1  A    between atoms: C_2  and  C_3
REMARK    2  A    between atoms: C_3  and  C_4
REMARK    3  A    between atoms: C_3  and  C_6
REMARK    4  A    between atoms: C_8  and  C_18
REMARK    5  A    between atoms: C_10  and  C_12
REMARK    6  A    between atoms: C_25  and  C_26
REMARK    7  A    between atoms: C_26  and  N_27
REMARK    8  A    between atoms: C_28  and  C_30
REMARK    9  A    between atoms: C_30  and  S_31
REMARK   10  A    between atoms: S_31  and  C_32
REMARK   11  A    between atoms: C_32  and  C_33
REMARK                            x       y       z     vdW  Elec       q    Type
REMARK                         _______ _______ _______ _____ _____    ______ ____
ROOT
ATOM     18  C   UNL     1      -1.103   1.374  24.130  0.00  0.00    +0.056 C 
ATOM     19  C   UNL     1      -0.948   1.477  23.375  0.00  0.00    +0.078 C 
ATOM     20  N   UNL     1      -0.540   0.980  23.893  0.00  0.00    -0.272 NA
ATOM     21  C   UNL     1      -0.996   1.071  24.832  0.00  0.00    +0.072 C 
ATOM     22  C   UNL     1      -1.033   0.909  25.464  0.00  0.00    +0.018 C 
ATOM     23  C   UNL     1      -0.698   0.885  24.633  0.00  0.00    +0.010 C 
ATOM     24  C   UNL     1      -0.011   0.353  24.509  0.00  0.00    +0.018 C 
ATOM     25  C   UNL     1       0.174   0.425  23.771  0.00  0.00    +0.079 C 
ENDROOT
BRANCH  18   8
ATOM      6  C   UNL     1      -2.238   2.981  25.078  0.00  0.00    +0.061 A 
ATOM      7  C   UNL     1      -1.607   2.554  24.761  0.00  0.00    +0.030 A 
ATOM      8  C   UNL     1      -1.734   1.802  24.448  0.00  0.00    +0.063 A 
ATOM      9  N   UNL     1      -2.492   1.476  24.451  0.00  0.00    -0.231 NA
ATOM     10  C   UNL     1      -3.122   1.903  24.767  0.00  0.00    +0.162 A 
ATOM     11  N   UNL     1      -2.996   2.655  25.081  0.00  0.00    -0.231 NA
BRANCH  10  12
ATOM     12  C   UNL     1      -3.881   1.578  24.771  0.00  0.00    +0.039 A 
ATOM     13  C   UNL     1      -4.506   1.987  24.421  0.00  0.00    +0.024 A 
ATOM     14  C   UNL     1      -5.265   1.663  24.424  0.00  0.00    +0.099 A 
ATOM     15  N   UNL     1      -5.398   0.929  24.777  0.00  0.00    -0.242 NA
ATOM     16  C   UNL     1      -4.773   0.521  25.127  0.00  0.00    +0.099 A 
ATOM     17  C   UNL     1      -4.014   0.845  25.124  0.00  0.00    +0.024 A 
ENDBRANCH  10  12
BRANCH   6   3
ATOM      3  C   UNL     1      -2.110   3.733  25.392  0.00  0.00    +0.040 C 
BRANCH   3   2
ATOM      1  C   UNL     1      -2.714   4.423  26.488  0.00  0.00    +0.000 C 
ATOM      2  C   UNL     1      -2.183   3.859  26.204  0.00  0.00    +0.006 C 
ENDBRANCH   3   2
BRANCH   3   4
ATOM      4  C   UNL     1      -1.910   4.360  24.894  0.00  0.00    +0.006 C 
ATOM      5  C   UNL     1      -1.350   4.916  25.133  0.00  0.00    +0.000 C 
ENDBRANCH   3   4
ENDBRANCH   6   3
ENDBRANCH  18   8
BRANCH  25  26
ATOM     26  C   UNL     1       0.706   0.157  23.202  0.00  0.00    +0.131 C 
BRANCH  26  27
ATOM     27  N   UNL     1       1.451   0.506  23.137  0.00  0.00    -0.203 NA
ATOM     28  C   UNL     1       2.004   0.204  22.606  0.00  0.00    +0.252 C 
ATOM     29  O   UNL     1       1.813  -0.449  22.139  0.00  0.00    -0.272 OA
BRANCH  28  30
ATOM     30  C   UNL     1       2.749   0.553  22.542  0.00  0.00    +0.145 C 
BRANCH  30  31
ATOM     31  S   UNL     1       3.406   0.188  22.881  0.00  0.00    -0.119 S 
BRANCH  31  32
ATOM     32  C   UNL     1       4.152   0.532  22.810  0.00  0.00    +0.172 C 
BRANCH  32  33
ATOM     33  C   UNL     1       4.765   0.300  23.312  0.00  0.00    +0.376 C 
ATOM     34  O   UNL     1       5.169   0.864  23.758  0.00  0.00    -0.245 OA
ATOM     35  O   UNL     1       4.972  -0.497  23.368  0.00  0.00    -0.245 OA
ENDBRANCH  32  33
ENDBRANCH  31  32
ENDBRANCH  30  31
ENDBRANCH  28  30
ENDBRANCH  26  27
ENDBRANCH  25  26
TORSDOF 11
ENDMDL
MODEL 4
REMARK VINA RESULT:      -7.7      3.514      6.036
REMARK  Name = 
REMARK  11 active torsions:
REMARK  status: ('A' for Active; 'I' for Inactive)
REMARK    1  A    between atoms: C_2  and  C_3
REMARK    2  A    between atoms: C_3  and  C_4
REMARK    3  A    between atoms: C_3  and  C_6
REMARK    4  A    between atoms: C_8  and  C_18
REMARK    5  A    between atoms: C_10  and  C_12
REMARK    6  A    between atoms: C_25  and  C_26
REMARK    7  A    between atoms: C_26  and  N_27
REMARK    8  A    between atoms: C_28  and  C_30
REMARK    9  A    between atoms: C_30  and  S_31
REMARK   10  A    between atoms: S_31  and  C_32
REMARK   11  A    between atoms: C_32  and  C_33
REMARK                            x       y       z     vdW  Elec       q    Type
REMARK                         _______ _______ _______ _____ _____    ______ ____
ROOT
ATOM     18  C   UNL     1      -1.182   1.343  24.277  0.00  0.00    +0.056 C 
ATOM     19  C   UNL     1      -1.787   1.479  23.807  0.00  0.00    +0.078 C 
ATOM     20  N   UNL     1      -1.535   1.959  24.430  0.00  0.00    -0.272 NA
ATOM     21  C   UNL     1      -0.700   1.495  24.860  0.00  0.00    +0.072 C 
ATOM     22  C   UNL     1      -0.223   1.484  25.307  0.00  0.00    +0.018 C 
ATOM     23  C   UNL     1      -0.941   1.819  24.886  0.00  0.00    +0.010 C 
ATOM     24  C   UNL     1      -1.250   2.580  25.196  0.00  0.00    +0.018 C 
ATOM     25  C   UNL     1      -1.851   2.751  24.757  0.00  0.00    +0.079 C 
ENDROOT
BRANCH  18   8
ATOM      6  C   UNL     1      -0.552  -0.746  24.359  0.00  0.00    +0.061 A 
ATOM      7  C   UNL     1      -0.985  -0.057  24.492  0.00  0.00    +0.030 A 
ATOM      8  C   UNL     1      -0.748   0.652  24.144  0.00  0.00    +0.063 A 
ATOM      9  N   UNL     1      -0.079   0.673  23.663  0.00  0.00    -0.231 NA
ATOM     10  C   UNL     1       0.354  -0.016  23.529  0.00  0.00    +0.162 A 
ATOM     11  N   UNL     1       0.118  -0.726  23.877  0.00  0.00    -0.231 NA
BRANCH  10  12
ATOM     12  C   UNL     1       1.023   0.003  23.048  0.00  0.00    +0.039 A 
ATOM     13  C   UNL     1       1.738   0.287  23.347  0.00  0.00    +0.024 A 
ATOM     14  C   UNL     1       2.408   0.307  22.866  0.00  0.00    +0.099 A 
ATOM     15  N   UNL     1       2.363   0.043  22.085  0.00  0.00    -0.242 NA
ATOM     16  C   UNL     1       1.649  -0.240  21.787  0.00  0.00    +0.099 A 
ATOM     17  C   UNL     1       0.979  -0.260  22.268  0.00  0.00    +0.024 A 
ENDBRANCH  10  12
BRANCH   6   3
ATOM      3  C   UNL     1      -0.788  -1.456  24.708  0.00  0.00    +0.040 C 
BRANCH   3   2
ATOM      1  C   UNL     1      -0.156  -2.406  25.568  0.00  0.00    +0.000 C 
ATOM      2  C   UNL     1      -0.501  -1.665  25.452  0.00  0.00    +0.006 C 
ENDBRANCH   3   2
BRANCH   3   4
ATOM      4  C   UNL     1      -1.311  -1.956  24.311  0.00  0.00    +0.006 C 
ATOM      5  C   UNL     1      -1.957  -2.278  24.711  0.00  0.00    +0.000 C 
ENDBRANCH   3   4
ENDBRANCH   6   3
ENDBRANCH  18   8
BRANCH  25  26
ATOM     26  C   UNL     1      -2.439   3.317  24.645  0.00  0.00    +0.131 C 
BRANCH  26  27
ATOM     27  N   UNL     1      -3.130   3.289  25.095  0.00  0.00    -0.203 NA
ATOM     28  C   UNL     1      -3.795   3.715  24.858  0.00  0.00    +0.252 C 
ATOM     29  O   UNL     1      -3.769   4.171  24.171  0.00  0.00    -0.272 OA
BRANCH  28  30
ATOM     30  C   UNL     1      -4.486   3.687  25.308  0.00  0.00    +0.145 C 
BRANCH  30  31
ATOM     31  S   UNL     1      -5.027   3.074  25.195  0.00  0.00    -0.119 S 
BRANCH  31  32
ATOM     32  C   UNL     1      -5.646   2.966  25.730  0.00  0.00    +0.172 C 
BRANCH  32  33
ATOM     33  C   UNL     1      -6.076   2.262  25.726  0.00  0.00    +0.376 C 
ATOM     34  O   UNL     1      -6.222   1.865  26.434  0.00  0.00    -0.245 OA
ATOM     35  O   UNL     1      -6.360   1.955  25.015  0.00  0.00    -0.245 OA
ENDBRANCH  32  33
ENDBRANCH  31  32
ENDBRANCH  30  31
ENDBRANCH  28  30
ENDBRANCH  26  27
ENDBRANCH  25  26
TORSDOF 11
ENDMDL
