MODEL 1
REMARK VINA RESULT:      -9.9      0.000      0.000
REMARK  Name = 
REMARK  10 active torsions:
REMARK  status: ('A' for Active; 'I' for Inactive)
REMARK    1  A    between atoms: O_2  and  C_3
REMARK    2  A    between atoms: C_3  and  C_5
REMARK    3  A    between atoms: C_5  and  N_6
REMARK    4  A    between atoms: C_5  and  C_31
REMARK    5  A    between atoms: C_7  and  C_9
REMARK    6  A    between atoms: C_10  and  N_19
REMARK    7  A    between atoms: C_14  and  C_16
REMARK    8  A    between atoms: C_16  and  S_17
REMARK    9  A    between atoms: N_22  and  C_23
REMARK   10  A    between atoms: C_27  and  O_28
REMARK                            x       y       z     vdW  Elec       q    Type
REMARK                         _______ _______ _______ _____ _____    ______ ____
ROOT
ATOM      9  C   UNL     1      -1.442   1.954  25.287  0.00  0.00    +0.174 C 
ATOM     10  C   UNL     1      -1.108   1.206  25.383  0.00  0.00    +0.126 C 
ATOM     11  C   UNL     1      -0.343   1.304  25.674  0.00  0.00    +0.045 C 
ATOM     12  C   UNL     1      -0.204   2.113  25.759  0.00  0.00    +0.096 C 
ATOM     13  N   UNL     1      -0.884   2.515  25.519  0.00  0.00    -0.271 N 
ATOM     14  C   UNL     1      -0.986   3.333  25.513  0.00  0.00    +0.237 C 
ATOM     15  O   UNL     1      -0.375   3.828  25.762  0.00  0.00    -0.274 OA
ENDROOT
BRANCH  10  19
ATOM     19  N   UNL     1      -1.475   0.486  25.216  0.00  0.00    -0.186 NA
ATOM     20  C   UNL     1      -1.059  -0.108  24.821  0.00  0.00    +0.344 C 
ATOM     21  O   UNL     1      -0.276   0.019  24.592  0.00  0.00    -0.249 OA
ATOM     22  N   UNL     1      -1.426  -0.828  24.655  0.00  0.00    -0.161 NA
BRANCH  22  23
ATOM     23  C   UNL     1      -2.208  -0.955  24.884  0.00  0.00    +0.078 A 
ATOM     24  C   UNL     1      -2.412  -0.942  25.684  0.00  0.00    +0.017 A 
ATOM     25  C   UNL     1      -3.194  -1.069  25.913  0.00  0.00    +0.004 A 
ATOM     26  C   UNL     1      -3.772  -1.209  25.342  0.00  0.00    +0.037 A 
ATOM     27  C   UNL     1      -3.570  -1.221  24.542  0.00  0.00    +0.140 A 
ATOM     30  C   UNL     1      -2.788  -1.094  24.313  0.00  0.00    +0.054 A 
BRANCH  27  28
ATOM     28  O   UNL     1      -4.148  -1.360  23.972  0.00  0.00    -0.471 OA
ATOM     29  C   UNL     1      -4.377  -2.133  23.797  0.00  0.00    +0.252 C 
ENDBRANCH  27  28
ENDBRANCH  22  23
ENDBRANCH  10  19
BRANCH   9   7
ATOM      6  N   UNL     1      -2.352   2.108  24.196  0.00  0.00    -0.194 NA
ATOM      7  C   UNL     1      -2.202   2.113  25.008  0.00  0.00    +0.262 C 
ATOM      8  O   UNL     1      -2.811   2.277  25.539  0.00  0.00    -0.271 OA
BRANCH   6   5
ATOM      5  C   UNL     1      -3.113   2.268  23.917  0.00  0.00    +0.193 C 
BRANCH   5  31
ATOM     31  C   UNL     1      -3.238   2.397  23.112  0.00  0.00    +0.031 C 
ATOM     32  C   UNL     1      -3.734   3.009  22.865  0.00  0.00    +0.002 C 
ATOM     33  C   UNL     1      -2.867   1.916  22.555  0.00  0.00    +0.002 C 
ENDBRANCH   5  31
BRANCH   5   3
ATOM      3  C   UNL     1      -3.747   2.297  24.443  0.00  0.00    +0.337 C 
ATOM      4  O   UNL     1      -3.830   2.939  24.955  0.00  0.00    -0.248 OA
BRANCH   3   2
ATOM      1  C   UNL     1      -5.055   1.817  24.762  0.00  0.00    +0.256 C 
ATOM      2  O   UNL     1      -4.300   1.684  24.457  0.00  0.00    -0.443 OA
ENDBRANCH   3   2
ENDBRANCH   5   3
ENDBRANCH   6   5
ENDBRANCH   9   7
BRANCH  14  16
ATOM     16  C   UNL     1      -1.701   3.657  25.257  0.00  0.00    +0.143 C 
BRANCH  16  17
ATOM     17  S   UNL     1      -1.879   4.446  25.424  0.00  0.00    -0.130 S 
ATOM     18  C   UNL     1      -1.498   5.049  25.010  0.00  0.00    +0.070 C 
ENDBRANCH  16  17
ENDBRANCH  14  16
TORSDOF 10
ENDMDL
MODEL 2
REMARK VINA RESULT:      -9.4      1.467      3.896
REMARK  Name = 
REMARK  10 active torsions:
REMARK  status: ('A' for Active; 'I' for Inactive)
REMARK    1  A    between atoms: O_2  and  C_3
REMARK    2  A    between atoms: C_3  and  C_5
REMARK    3  A    between atoms: C_5  and  N_6
REMARK    4  A    between atoms: C_5  and  C_31
REMARK    5  A    between atoms: C_7  and  C_9
REMARK    6  A    between atoms: C_10  and  N_19
REMARK    7  A    between atoms: C_14  and  C_16
REMARK    8  A    between atoms: C_16  and  S_17
REMARK    9  A    between atoms: N_22  and  C_23
REMARK   10  A    between atoms: C_27  and  O_28
REMARK                            x       y       z     vdW  Elec       q    Type
REMARK                         _______ _______ _______ _____ _____    ______ ____
ROOT
ATOM      9  C   UNL     1      -1.796  -0.061  24.613  0.00  0.00    +0.174 C 
ATOM     10  C   UNL     1      -0.999   0.121  24.719  0.00  0.00    +0.126 C 
ATOM     11  C   UNL     1      -0.577  -0.588  24.741  0.00  0.00    +0.045 C 
ATOM     12  C   UNL     1      -1.114  -1.207  24.649  0.00  0.00    +0.096 C 
ATOM     13  N   UNL     1      -1.868  -0.881  24.570  0.00  0.00    -0.271 N 
ATOM     14  C   UNL     1      -2.570  -1.302  24.466  0.00  0.00    +0.237 C 
ATOM     15  O   UNL     1      -2.556  -2.126  24.433  0.00  0.00    -0.274 OA
ENDROOT
BRANCH  10  19
ATOM     19  N   UNL     1      -0.678   0.878  24.790  0.00  0.00    -0.186 NA
ATOM     20  C   UNL     1       0.021   1.069  24.395  0.00  0.00    +0.344 C 
ATOM     21  O   UNL     1       0.399   0.503  23.929  0.00  0.00    -0.249 OA
ATOM     22  N   UNL     1       0.341   1.826  24.467  0.00  0.00    -0.161 NA
BRANCH  22  23
ATOM     23  C   UNL     1      -0.038   2.392  24.932  0.00  0.00    +0.078 A 
ATOM     24  C   UNL     1      -0.109   2.277  25.746  0.00  0.00    +0.017 A 
ATOM     25  C   UNL     1      -0.488   2.842  26.212  0.00  0.00    +0.004 A 
ATOM     26  C   UNL     1      -0.795   3.524  25.864  0.00  0.00    +0.037 A 
ATOM     27  C   UNL     1      -0.725   3.640  25.050  0.00  0.00    +0.140 A 
ATOM     30  C   UNL     1      -0.346   3.074  24.584  0.00  0.00    +0.054 A 
BRANCH  27  28
ATOM     28  O   UNL     1      -1.032   4.321  24.702  0.00  0.00    -0.471 OA
ATOM     29  C   UNL     1      -1.395   4.895  25.170  0.00  0.00    +0.252 C 
ENDBRANCH  27  28
ENDBRANCH  22  23
ENDBRANCH  10  19
BRANCH   9   7
ATOM      6  N   UNL     1      -2.523   0.917  23.865  0.00  0.00    -0.194 NA
ATOM      7  C   UNL     1      -2.415   0.484  24.559  0.00  0.00    +0.262 C 
ATOM      8  O   UNL     1      -2.923   0.595  25.199  0.00  0.00    -0.271 OA
BRANCH   6   5
ATOM      5  C   UNL     1      -3.141   1.462  23.812  0.00  0.00    +0.193 C 
BRANCH   5  31
ATOM     31  C   UNL     1      -3.234   1.914  23.128  0.00  0.00    +0.031 C 
ATOM     32  C   UNL     1      -2.851   1.692  22.432  0.00  0.00    +0.002 C 
ATOM     33  C   UNL     1      -3.710   2.588  23.142  0.00  0.00    +0.002 C 
ENDBRANCH   5  31
BRANCH   5   3
ATOM      3  C   UNL     1      -3.665   1.553  24.442  0.00  0.00    +0.337 C 
ATOM      4  O   UNL     1      -4.356   1.102  24.473  0.00  0.00    -0.248 OA
BRANCH   3   2
ATOM      1  C   UNL     1      -4.114   2.429  25.478  0.00  0.00    +0.256 C 
ATOM      2  O   UNL     1      -3.498   2.095  25.042  0.00  0.00    -0.443 OA
ENDBRANCH   3   2
ENDBRANCH   5   3
ENDBRANCH   6   5
ENDBRANCH   9   7
BRANCH  14  16
ATOM     16  C   UNL     1      -3.286  -0.898  24.394  0.00  0.00    +0.143 C 
BRANCH  16  17
ATOM     17  S   UNL     1      -3.999  -1.309  24.460  0.00  0.00    -0.130 S 
ATOM     18  C   UNL     1      -4.284  -1.742  23.818  0.00  0.00    +0.070 C 
ENDBRANCH  16  17
ENDBRANCH  14  16
TORSDOF 10
ENDMDL
MODEL 3
REMARK VINA RESULT:      -9.3      1.747      3.972
REMARK  Name = 
REMARK  10 active torsions:
REMARK  status: ('A' for Active; 'I' for Inactive)
REMARK    1  A    between atoms: O_2  and  C_3
REMARK    2  A    between atoms: C_3  and  C_5
REMARK    3  A    between atoms: C_5  and  N_6
REMARK    4  A    between atoms: C_5  and  C_31
REMARK    5  A    between atoms: C_7  and  C_9
REMARK    6  A    between atoms: C_10  and  N_19
REMARK    7  A    between atoms: C_14  and  C_16
REMARK    8  A    between atoms: C_16  and  S_17
REMARK    9  A    between atoms: N_22  and  C_23
REMARK   10  A    between atoms: C_27  and  O_28
REMARK                            x       y       z     vdW  Elec       q    Type
REMARK                         _______ _______ _______ _____ _____    ______ ____
ROOT
ATOM      9  C   UNL     1      -3.516   3.168  25.412  0.00  0.00    +0.174 C 
ATOM     10  C   UNL     1      -2.884   3.584  25.739  0.00  0.00    +0.126 C 
ATOM     11  C   UNL     1      -3.182   4.078  26.328  0.00  0.00    +0.045 C 
ATOM     12  C   UNL     1      -3.999   3.967  26.365  0.00  0.00    +0.096 C 
ATOM     13  N   UNL     1      -4.205   3.404  25.798  0.00  0.00    -0.271 N 
ATOM     14  C   UNL     1      -4.966   3.127  25.644  0.00  0.00    +0.237 C 
ATOM     15  O   UNL     1      -5.606   3.415  26.078  0.00  0.00    -0.274 OA
ENDROOT
BRANCH  10  19
ATOM     19  N   UNL     1      -2.092   3.518  25.517  0.00  0.00    -0.186 NA
ATOM     20  C   UNL     1      -1.698   4.168  25.195  0.00  0.00    +0.344 C 
ATOM     21  O   UNL     1      -2.096   4.883  25.094  0.00  0.00    -0.249 OA
ATOM     22  N   UNL     1      -0.906   4.101  24.973  0.00  0.00    -0.161 NA
BRANCH  22  23
ATOM     23  C   UNL     1      -0.508   3.386  25.073  0.00  0.00    +0.078 A 
ATOM     24  C   UNL     1      -0.442   3.052  25.824  0.00  0.00    +0.017 A 
ATOM     25  C   UNL     1      -0.044   2.336  25.925  0.00  0.00    +0.004 A 
ATOM     26  C   UNL     1       0.288   1.955  25.274  0.00  0.00    +0.037 A 
ATOM     27  C   UNL     1       0.223   2.288  24.522  0.00  0.00    +0.140 A 
ATOM     30  C   UNL     1      -0.175   3.004  24.421  0.00  0.00    +0.054 A 
BRANCH  27  28
ATOM     28  O   UNL     1       0.555   1.907  23.871  0.00  0.00    -0.471 OA
ATOM     29  C   UNL     1       0.817   1.128  23.939  0.00  0.00    +0.252 C 
ENDBRANCH  27  28
ENDBRANCH  22  23
ENDBRANCH  10  19
BRANCH   9   7
ATOM      6  N   UNL     1      -3.198   1.848  24.963  0.00  0.00    -0.194 NA
ATOM      7  C   UNL     1      -3.467   2.611  24.803  0.00  0.00    +0.262 C 
ATOM      8  O   UNL     1      -3.687   2.819  24.036  0.00  0.00    -0.271 OA
BRANCH   6   5
ATOM      5  C   UNL     1      -3.149   1.292  24.355  0.00  0.00    +0.193 C 
BRANCH   5  31
ATOM     31  C   UNL     1      -3.121   0.487  24.533  0.00  0.00    +0.031 C 
ATOM     32  C   UNL     1      -3.554  -0.050  24.080  0.00  0.00    +0.002 C 
ATOM     33  C   UNL     1      -2.662   0.220  25.163  0.00  0.00    +0.002 C 
ENDBRANCH   5  31
BRANCH   5   3
ATOM      3  C   UNL     1      -3.127   1.543  23.569  0.00  0.00    +0.337 C 
ATOM      4  O   UNL     1      -3.828   1.733  23.177  0.00  0.00    -0.248 OA
BRANCH   3   2
ATOM      1  C   UNL     1      -2.388   1.700  22.357  0.00  0.00    +0.256 C 
ATOM      2  O   UNL     1      -2.404   1.602  23.175  0.00  0.00    -0.443 OA
ENDBRANCH   3   2
ENDBRANCH   5   3
ENDBRANCH   6   5
ENDBRANCH   9   7
BRANCH  14  16
ATOM     16  C   UNL     1      -5.089   2.560  25.057  0.00  0.00    +0.143 C 
BRANCH  16  17
ATOM     17  S   UNL     1      -5.856   2.382  24.809  0.00  0.00    -0.130 S 
ATOM     18  C   UNL     1      -6.305   1.831  25.227  0.00  0.00    +0.070 C 
ENDBRANCH  16  17
ENDBRANCH  14  16
TORSDOF 10
ENDMDL
MODEL 4
REMARK VINA RESULT:      -9.3      1.734      4.636
REMARK  Name = 
REMARK  10 active torsions:
REMARK  status: ('A' for Active; 'I' for Inactive)
REMARK    1  A    between atoms: O_2  and  C_3
REMARK    2  A    between atoms: C_3  and  C_5
REMARK    3  A    between atoms: C_5  and  N_6
REMARK    4  A    between atoms: C_5  and  C_31
REMARK    5  A    between atoms: C_7  and  C_9
REMARK    6  A    between atoms: C_10  and  N_19
REMARK    7  A    between atoms: C_14  and  C_16
REMARK    8  A    between atoms: C_16  and  S_17
REMARK    9  A    between atoms: N_22  and  C_23
REMARK   10  A    between atoms: C_27  and  O_28
REMARK                            x       y       z     vdW  Elec       q    Type
REMARK                         _______ _______ _______ _____ _____    ______ ____
ROOT
ATOM      9  C   UNL     1      -3.417   0.671  24.874  0.00  0.00    +0.174 C 
ATOM     10  C   UNL     1      -3.955   1.293  24.815  0.00  0.00    +0.126 C 
ATOM     11  C   UNL     1      -4.708   0.970  24.718  0.00  0.00    +0.045 C 
ATOM     12  C   UNL     1      -4.635   0.148  24.716  0.00  0.00    +0.096 C 
ATOM     13  N   UNL     1      -3.836  -0.037  24.813  0.00  0.00    -0.271 N 
ATOM     14  C   UNL     1      -3.514  -0.795  24.844  0.00  0.00    +0.237 C 
ATOM     15  O   UNL     1      -4.005  -1.455  24.775  0.00  0.00    -0.274 OA
ENDROOT
BRANCH  10  19
ATOM     19  N   UNL     1      -3.773   2.097  24.847  0.00  0.00    -0.186 NA
ATOM     20  C   UNL     1      -4.120   2.621  24.312  0.00  0.00    +0.344 C 
ATOM     21  O   UNL     1      -4.648   2.340  23.744  0.00  0.00    -0.249 OA
ATOM     22  N   UNL     1      -3.938   3.425  24.345  0.00  0.00    -0.161 NA
BRANCH  22  23
ATOM     23  C   UNL     1      -3.410   3.705  24.913  0.00  0.00    +0.078 A 
ATOM     24  C   UNL     1      -3.605   3.666  25.714  0.00  0.00    +0.017 A 
ATOM     25  C   UNL     1      -3.076   3.946  26.282  0.00  0.00    +0.004 A 
ATOM     26  C   UNL     1      -2.353   4.266  26.049  0.00  0.00    +0.037 A 
ATOM     27  C   UNL     1      -2.157   4.306  25.249  0.00  0.00    +0.140 A 
ATOM     30  C   UNL     1      -2.685   4.025  24.681  0.00  0.00    +0.054 A 
BRANCH  27  28
ATOM     28  O   UNL     1      -1.434   4.626  25.016  0.00  0.00    -0.471 OA
ATOM     29  C   UNL     1      -1.318   5.442  25.039  0.00  0.00    +0.252 C 
ENDBRANCH  27  28
ENDBRANCH  22  23
ENDBRANCH  10  19
BRANCH   9   7
ATOM      6  N   UNL     1      -2.118   0.909  24.328  0.00  0.00    -0.194 NA
ATOM      7  C   UNL     1      -2.601   0.744  24.976  0.00  0.00    +0.262 C 
ATOM      8  O   UNL     1      -2.269   0.651  25.725  0.00  0.00    -0.271 OA
BRANCH   6   5
ATOM      5  C   UNL     1      -1.302   0.983  24.430  0.00  0.00    +0.193 C 
BRANCH   5  31
ATOM     31  C   UNL     1      -0.804   0.999  23.773  0.00  0.00    +0.031 C 
ATOM     32  C   UNL     1      -0.976   1.496  23.137  0.00  0.00    +0.002 C 
ATOM     33  C   UNL     1      -0.134   0.518  23.751  0.00  0.00    +0.002 C 
ENDBRANCH   5  31
BRANCH   5   3
ATOM      3  C   UNL     1      -0.985   1.039  25.190  0.00  0.00    +0.337 C 
ATOM      4  O   UNL     1      -0.929   0.368  25.665  0.00  0.00    -0.248 OA
BRANCH   3   2
ATOM      1  C   UNL     1      -0.167   1.800  26.080  0.00  0.00    +0.256 C 
ATOM      2  O   UNL     1      -0.725   1.770  25.474  0.00  0.00    -0.443 OA
ENDBRANCH   3   2
ENDBRANCH   5   3
ENDBRANCH   6   5
ENDBRANCH   9   7
BRANCH  14  16
ATOM     16  C   UNL     1      -2.701  -0.895  24.943  0.00  0.00    +0.143 C 
BRANCH  16  17
ATOM     17  S   UNL     1      -2.399  -1.635  25.149  0.00  0.00    -0.130 S 
ATOM     18  C   UNL     1      -2.302  -2.215  24.570  0.00  0.00    +0.070 C 
ENDBRANCH  16  17
ENDBRANCH  14  16
TORSDOF 10
ENDMDL
MODEL 5
REMARK VINA RESULT:      -9.1      1.328      2.766
REMARK  Name = 
REMARK  10 active torsions:
REMARK  status: ('A' for Active; 'I' for Inactive)
REMARK    1  A    between atoms: O_2  and  C_3
REMARK    2  A    between atoms: C_3  and  C_5
REMARK    3  A    between atoms: C_5  and  N_6
REMARK    4  A    between atoms: C_5  and  C_31
REMARK    5  A    between atoms: C_7  and  C_9
REMARK    6  A    between atoms: C_10  and  N_19
REMARK    7  A    between atoms: C_14  and  C_16
REMARK    8  A    between atoms: C_16  and  S_17
REMARK    9  A    between atoms: N_22  and  C_23
REMARK   10  A    between atoms: C_27  and  O_28
REMARK                            x       y       z     vdW  Elec       q    Type
REMARK                         _______ _______ _______ _____ _____    ______ ____
ROOT
ATOM      9  C   UNL     1      -3.006   2.430  24.775  0.00  0.00    +0.174 C 
ATOM     10  C   UNL     1      -3.759   2.114  24.658  0.00  0.00    +0.126 C 
ATOM     11  C   UNL     1      -4.268   2.735  24.470  0.00  0.00    +0.045 C 
ATOM     12  C   UNL     1      -3.830   3.434  24.470  0.00  0.00    +0.096 C 
ATOM     13  N   UNL     1      -3.050   3.245  24.659  0.00  0.00    -0.271 N 
ATOM     14  C   UNL     1      -2.423   3.778  24.721  0.00  0.00    +0.237 C 
ATOM     15  O   UNL     1      -2.551   4.582  24.589  0.00  0.00    -0.274 OA
ENDROOT
BRANCH  10  19
ATOM     19  N   UNL     1      -3.967   1.318  24.719  0.00  0.00    -0.186 NA
ATOM     20  C   UNL     1      -4.567   1.086  25.236  0.00  0.00    +0.344 C 
ATOM     21  O   UNL     1      -4.959   1.651  25.692  0.00  0.00    -0.249 OA
ATOM     22  N   UNL     1      -4.774   0.290  25.296  0.00  0.00    -0.161 NA
BRANCH  22  23
ATOM     23  C   UNL     1      -4.382  -0.274  24.840  0.00  0.00    +0.078 A 
ATOM     24  C   UNL     1      -4.372  -0.206  24.018  0.00  0.00    +0.017 A 
ATOM     25  C   UNL     1      -3.980  -0.771  23.561  0.00  0.00    +0.004 A 
ATOM     26  C   UNL     1      -3.597  -1.403  23.927  0.00  0.00    +0.037 A 
ATOM     27  C   UNL     1      -3.607  -1.472  24.749  0.00  0.00    +0.140 A 
ATOM     30  C   UNL     1      -3.999  -0.907  25.206  0.00  0.00    +0.054 A 
BRANCH  27  28
ATOM     28  O   UNL     1      -3.225  -2.104  25.115  0.00  0.00    -0.471 OA
ATOM     29  C   UNL     1      -3.217  -2.846  24.754  0.00  0.00    +0.252 C 
ENDBRANCH  27  28
ENDBRANCH  22  23
ENDBRANCH  10  19
BRANCH   9   7
ATOM      6  N   UNL     1      -1.912   1.595  24.389  0.00  0.00    -0.194 NA
ATOM      7  C   UNL     1      -2.327   2.004  24.973  0.00  0.00    +0.262 C 
ATOM      8  O   UNL     1      -2.064   1.987  25.755  0.00  0.00    -0.271 OA
BRANCH   6   5
ATOM      5  C   UNL     1      -1.234   1.168  24.588  0.00  0.00    +0.193 C 
BRANCH   5  31
ATOM     31  C   UNL     1      -0.669   0.999  24.010  0.00  0.00    +0.031 C 
ATOM     32  C   UNL     1       0.133   1.094  24.178  0.00  0.00    +0.002 C 
ATOM     33  C   UNL     1      -0.907   0.735  23.266  0.00  0.00    +0.002 C 
ENDBRANCH   5  31
BRANCH   5   3
ATOM      3  C   UNL     1      -1.121   0.912  25.364  0.00  0.00    +0.337 C 
ATOM      4  O   UNL     1      -0.847   1.438  25.937  0.00  0.00    -0.248 OA
BRANCH   3   2
ATOM      1  C   UNL     1      -0.918  -0.210  26.224  0.00  0.00    +0.256 C 
ATOM      2  O   UNL     1      -1.282   0.128  25.566  0.00  0.00    -0.443 OA
ENDBRANCH   3   2
ENDBRANCH   5   3
ENDBRANCH   6   5
ENDBRANCH   9   7
BRANCH  14  16
ATOM     16  C   UNL     1      -1.668   3.507  24.915  0.00  0.00    +0.143 C 
BRANCH  16  17
ATOM     17  S   UNL     1      -1.105   4.033  25.210  0.00  0.00    -0.130 S 
ATOM     18  C   UNL     1      -0.650   4.483  24.690  0.00  0.00    +0.070 C 
ENDBRANCH  16  17
ENDBRANCH  14  16
TORSDOF 10
ENDMDL
MODEL 6
REMARK VINA RESULT:      -8.9      1.963      3.836
REMARK  Name = 
REMARK  10 active torsions:
REMARK  status: ('A' for Active; 'I' for Inactive)
REMARK    1  A    between atoms: O_2  and  C_3
REMARK    2  A    between atoms: C_3  and  C_5
REMARK    3  A    between atoms: C_5  and  N_6
REMARK    4  A    between atoms: C_5  and  C_31
REMARK    5  A    between atoms: C_7  and  C_9
REMARK    6  A    between atoms: C_10  and  N_19
REMARK    7  A    between atoms: C_14  and  C_16
REMARK    8  A    between atoms: C_16  and  S_17
REMARK    9  A    between atoms: N_22  and  C_23
REMARK   10  A    between atoms: C_27  and  O_28
REMARK                            x       y       z     vdW  Elec       q    Type
REMARK                         _______ _______ _______ _____ _____    ______ ____
ROOT
ATOM      9  C   UNL     1      -1.711   0.654  24.190  0.00  0.00    +0.174 C 
ATOM     10  C   UNL     1      -1.832   1.414  23.894  0.00  0.00    +0.126 C 
ATOM     11  C   UNL     1      -1.132   1.660  23.533  0.00  0.00    +0.045 C 
ATOM     12  C   UNL     1      -0.579   1.052  23.607  0.00  0.00    +0.096 C 
ATOM     13  N   UNL     1      -0.938   0.430  24.014  0.00  0.00    -0.271 N 
ATOM     14  C   UNL     1      -0.584  -0.289  24.209  0.00  0.00    +0.237 C 
ATOM     15  O   UNL     1       0.198  -0.436  23.994  0.00  0.00    -0.274 OA
ENDROOT
BRANCH  10  19
ATOM     19  N   UNL     1      -2.529   1.852  23.947  0.00  0.00    -0.186 NA
ATOM     20  C   UNL     1      -2.847   2.207  23.273  0.00  0.00    +0.344 C 
ATOM     21  O   UNL     1      -2.468   2.124  22.546  0.00  0.00    -0.249 OA
ATOM     22  N   UNL     1      -3.544   2.645  23.328  0.00  0.00    -0.161 NA
BRANCH  22  23
ATOM     23  C   UNL     1      -3.923   2.728  24.056  0.00  0.00    +0.078 A 
ATOM     24  C   UNL     1      -3.550   3.130  24.672  0.00  0.00    +0.017 A 
ATOM     25  C   UNL     1      -3.930   3.213  25.400  0.00  0.00    +0.004 A 
ATOM     26  C   UNL     1      -4.682   2.894  25.512  0.00  0.00    +0.037 A 
ATOM     27  C   UNL     1      -5.055   2.492  24.896  0.00  0.00    +0.140 A 
ATOM     30  C   UNL     1      -4.676   2.408  24.168  0.00  0.00    +0.054 A 
BRANCH  27  28
ATOM     28  O   UNL     1      -5.807   2.173  25.007  0.00  0.00    -0.471 OA
ATOM     29  C   UNL     1      -6.117   2.103  25.769  0.00  0.00    +0.252 C 
ENDBRANCH  27  28
ENDBRANCH  22  23
ENDBRANCH  10  19
BRANCH   9   7
ATOM      6  N   UNL     1      -2.836  -0.227  24.172  0.00  0.00    -0.194 NA
ATOM      7  C   UNL     1      -2.269   0.198  24.594  0.00  0.00    +0.262 C 
ATOM      8  O   UNL     1      -2.257   0.167  25.418  0.00  0.00    -0.271 OA
BRANCH   6   5
ATOM      5  C   UNL     1      -3.393  -0.683  24.575  0.00  0.00    +0.193 C 
BRANCH   5  31
ATOM     31  C   UNL     1      -3.930  -1.147  24.154  0.00  0.00    +0.031 C 
ATOM     32  C   UNL     1      -3.723  -1.913  23.927  0.00  0.00    +0.002 C 
ATOM     33  C   UNL     1      -4.672  -0.846  23.960  0.00  0.00    +0.002 C 
ENDBRANCH   5  31
BRANCH   5   3
ATOM      3  C   UNL     1      -3.413  -0.675  25.400  0.00  0.00    +0.337 C 
ATOM      4  O   UNL     1      -3.581   0.025  25.802  0.00  0.00    -0.248 OA
BRANCH   3   2
ATOM      1  C   UNL     1      -3.528  -1.440  26.601  0.00  0.00    +0.256 C 
ATOM      2  O   UNL     1      -3.265  -1.369  25.823  0.00  0.00    -0.443 OA
ENDBRANCH   3   2
ENDBRANCH   5   3
ENDBRANCH   6   5
ENDBRANCH   9   7
BRANCH  14  16
ATOM     16  C   UNL     1      -1.014  -0.862  24.619  0.00  0.00    +0.143 C 
BRANCH  16  17
ATOM     17  S   UNL     1      -0.701  -1.619  24.718  0.00  0.00    -0.130 S 
ATOM     18  C   UNL     1      -0.236  -1.788  25.378  0.00  0.00    +0.070 C 
ENDBRANCH  16  17
ENDBRANCH  14  16
TORSDOF 10
ENDMDL
