MODEL 1
REMARK VINA RESULT:      -7.2      0.000      0.000
REMARK  Name = 
REMARK  7 active torsions:
REMARK  status: ('A' for Active; 'I' for Inactive)
REMARK    1  A    between atoms: O_2  and  C_3
REMARK    2  A    between atoms: C_5  and  N_6
REMARK    3  A    between atoms: N_9  and  C_10
REMARK    4  A    between atoms: C_10  and  C_11
REMARK    5  A    between atoms: C_15  and  C_16
REMARK    6  A    between atoms: C_16  and  C_17
REMARK    7  A    between atoms: C_32  and  C_33
REMARK                            x       y       z     vdW  Elec       q    Type
REMARK                         _______ _______ _______ _____ _____    ______ ____
ROOT
ATOM     11  C   UNL     1      -1.764   0.459  24.267  0.00  0.00    +0.043 C 
ATOM     12  C   UNL     1      -1.621   1.142  23.827  0.00  0.00    -0.033 C 
ATOM     13  C   UNL     1      -0.864   1.292  23.533  0.00  0.00    -0.048 C 
ATOM     14  C   UNL     1      -0.721   1.975  23.093  0.00  0.00    +0.026 C 
ATOM     15  C   UNL     1      -0.251   0.759  23.679  0.00  0.00    +0.027 C 
ATOM     31  C   UNL     1      -0.396   0.076  24.120  0.00  0.00    +0.005 C 
ATOM     32  C   UNL     1      -1.151  -0.074  24.413  0.00  0.00    +0.006 C 
ENDROOT
BRANCH  32  33
ATOM     33  C   UNL     1      -1.295  -0.757  24.854  0.00  0.00    +0.000 C 
ATOM     34  C   UNL     1      -1.607  -1.426  24.487  0.00  0.00    +0.000 C 
ATOM     35  C   UNL     1      -1.127  -0.769  25.662  0.00  0.00    +0.000 C 
ENDBRANCH  32  33
BRANCH  11  10
ATOM     10  C   UNL     1      -2.521   0.309  24.561  0.00  0.00    +0.121 C 
BRANCH  10   9
ATOM      6  N   UNL     1      -4.421   1.370  24.403  0.00  0.00    -0.161 NA
ATOM      7  C   UNL     1      -3.769   0.984  24.728  0.00  0.00    +0.344 C 
ATOM      8  O   UNL     1      -3.712   0.886  25.546  0.00  0.00    -0.249 OA
ATOM      9  N   UNL     1      -3.173   0.695  24.236  0.00  0.00    -0.187 NA
BRANCH   6   5
ATOM      3  C   UNL     1      -5.551   2.703  25.711  0.00  0.00    +0.140 A 
ATOM      4  C   UNL     1      -4.955   2.415  25.219  0.00  0.00    +0.054 A 
ATOM      5  C   UNL     1      -5.017   1.659  24.896  0.00  0.00    +0.078 A 
ATOM     36  C   UNL     1      -5.675   1.190  25.064  0.00  0.00    +0.017 A 
ATOM     37  C   UNL     1      -6.271   1.479  25.557  0.00  0.00    +0.004 A 
ATOM     38  C   UNL     1      -6.209   2.236  25.880  0.00  0.00    +0.037 A 
BRANCH   3   2
ATOM      1  C   UNL     1      -5.560   4.124  25.548  0.00  0.00    +0.252 C 
ATOM      2  O   UNL     1      -5.489   3.460  26.034  0.00  0.00    -0.471 OA
ENDBRANCH   3   2
ENDBRANCH   6   5
ENDBRANCH  10   9
ENDBRANCH  11  10
BRANCH  15  16
ATOM     16  C   UNL     1       0.504   0.909  23.386  0.00  0.00    +0.089 C 
BRANCH  16  17
ATOM     17  C   UNL     1       0.917   0.317  22.986  0.00  0.00    +0.226 C 
ATOM     18  O   UNL     1       0.506  -0.243  22.540  0.00  0.00    -0.275 OA
ATOM     19  N   UNL     1       1.740   0.285  23.030  0.00  0.00    -0.276 N 
ATOM     20  C   UNL     1       2.152  -0.306  22.630  0.00  0.00    +0.115 C 
ATOM     21  C   UNL     1       2.975  -0.338  22.675  0.00  0.00    +0.114 C 
ATOM     22  N   UNL     1       3.387   0.222  23.121  0.00  0.00    -0.290 N 
ATOM     23  C   UNL     1       2.973   0.814  23.521  0.00  0.00    +0.114 C 
ATOM     24  C   UNL     1       2.151   0.846  23.476  0.00  0.00    +0.115 C 
ATOM     25  C   UNL     1       4.210   0.190  23.165  0.00  0.00    +0.132 A 
ATOM     26  N   UNL     1       4.622  -0.401  22.765  0.00  0.00    -0.229 NA
ATOM     27  C   UNL     1       5.445  -0.433  22.810  0.00  0.00    +0.100 A 
ATOM     28  C   UNL     1       5.855   0.127  23.255  0.00  0.00    +0.021 A 
ATOM     29  C   UNL     1       5.443   0.718  23.655  0.00  0.00    +0.004 A 
ATOM     30  C   UNL     1       4.621   0.750  23.610  0.00  0.00    +0.034 A 
ENDBRANCH  16  17
ENDBRANCH  15  16
TORSDOF 7
ENDMDL
MODEL 2
REMARK VINA RESULT:      -7.0      1.477      7.839
REMARK  Name = 
REMARK  7 active torsions:
REMARK  status: ('A' for Active; 'I' for Inactive)
REMARK    1  A    between atoms: O_2  and  C_3
REMARK    2  A    between atoms: C_5  and  N_6
REMARK    3  A    between atoms: N_9  and  C_10
REMARK    4  A    between atoms: C_10  and  C_11
REMARK    5  A    between atoms: C_15  and  C_16
REMARK    6  A    between atoms: C_16  and  C_17
REMARK    7  A    between atoms: C_32  and  C_33
REMARK                            x       y       z     vdW  Elec       q    Type
REMARK                         _______ _______ _______ _____ _____    ______ ____
ROOT
ATOM     11  C   UNL     1       0.560   1.144  23.758  0.00  0.00    +0.043 C 
ATOM     12  C   UNL     1       0.581   1.959  23.889  0.00  0.00    -0.033 C 
ATOM     13  C   UNL     1      -0.115   2.365  24.071  0.00  0.00    -0.048 C 
ATOM     14  C   UNL     1      -0.094   3.179  24.202  0.00  0.00    +0.026 C 
ATOM     15  C   UNL     1      -0.830   1.956  24.122  0.00  0.00    +0.027 C 
ATOM     31  C   UNL     1      -0.849   1.142  23.991  0.00  0.00    +0.005 C 
ATOM     32  C   UNL     1      -0.155   0.736  23.809  0.00  0.00    +0.006 C 
ENDROOT
BRANCH  32  33
ATOM     33  C   UNL     1      -0.175  -0.078  23.678  0.00  0.00    +0.000 C 
ATOM     34  C   UNL     1      -0.155  -0.374  22.909  0.00  0.00    +0.000 C 
ATOM     35  C   UNL     1      -0.215  -0.598  24.319  0.00  0.00    +0.000 C 
ENDBRANCH  32  33
BRANCH  11  10
ATOM     10  C   UNL     1       1.255   0.738  23.576  0.00  0.00    +0.121 C 
BRANCH  10   9
ATOM      6  N   UNL     1       3.367   1.161  23.223  0.00  0.00    -0.161 NA
ATOM      7  C   UNL     1       2.662   0.745  23.324  0.00  0.00    +0.344 C 
ATOM      8  O   UNL     1       2.657  -0.078  23.274  0.00  0.00    -0.249 OA
ATOM      9  N   UNL     1       1.960   1.154  23.475  0.00  0.00    -0.187 NA
BRANCH   6   5
ATOM      3  C   UNL     1       5.266   0.133  23.544  0.00  0.00    +0.140 A 
ATOM      4  C   UNL     1       4.566   0.541  23.695  0.00  0.00    +0.054 A 
ATOM      5  C   UNL     1       4.068   0.752  23.071  0.00  0.00    +0.078 A 
ATOM     36  C   UNL     1       4.271   0.555  22.297  0.00  0.00    +0.017 A 
ATOM     37  C   UNL     1       4.972   0.147  22.145  0.00  0.00    +0.004 A 
ATOM     38  C   UNL     1       5.470  -0.064  22.769  0.00  0.00    +0.037 A 
BRANCH   3   2
ATOM      1  C   UNL     1       5.756  -0.850  24.458  0.00  0.00    +0.252 C 
ATOM      2  O   UNL     1       5.763  -0.078  24.167  0.00  0.00    -0.471 OA
ENDBRANCH   3   2
ENDBRANCH   6   5
ENDBRANCH  10   9
ENDBRANCH  11  10
BRANCH  15  16
ATOM     16  C   UNL     1      -1.524   2.362  24.304  0.00  0.00    +0.089 C 
BRANCH  16  17
ATOM     17  C   UNL     1      -2.184   2.292  23.814  0.00  0.00    +0.226 C 
ATOM     18  O   UNL     1      -2.088   2.264  22.995  0.00  0.00    -0.275 OA
ATOM     19  N   UNL     1      -2.939   2.251  24.141  0.00  0.00    -0.276 N 
ATOM     20  C   UNL     1      -3.598   2.182  23.651  0.00  0.00    +0.115 C 
ATOM     21  C   UNL     1      -4.355   2.141  23.979  0.00  0.00    +0.114 C 
ATOM     22  N   UNL     1      -4.451   2.169  24.799  0.00  0.00    -0.290 N 
ATOM     23  C   UNL     1      -3.791   2.239  25.289  0.00  0.00    +0.114 C 
ATOM     24  C   UNL     1      -3.036   2.280  24.961  0.00  0.00    +0.115 C 
ATOM     25  C   UNL     1      -5.207   2.128  25.127  0.00  0.00    +0.132 A 
ATOM     26  N   UNL     1      -5.866   2.059  24.636  0.00  0.00    -0.229 NA
ATOM     27  C   UNL     1      -6.622   2.018  24.964  0.00  0.00    +0.100 A 
ATOM     28  C   UNL     1      -6.718   2.046  25.783  0.00  0.00    +0.021 A 
ATOM     29  C   UNL     1      -6.059   2.116  26.273  0.00  0.00    +0.004 A 
ATOM     30  C   UNL     1      -5.303   2.157  25.945  0.00  0.00    +0.034 A 
ENDBRANCH  16  17
ENDBRANCH  15  16
TORSDOF 7
ENDMDL
