MODEL 1
REMARK VINA RESULT:      -9.3      0.000      0.000
REMARK  Name = 
REMARK  8 active torsions:
REMARK  status: ('A' for Active; 'I' for Inactive)
REMARK    1  A    between atoms: O_2  and  C_3
REMARK    2  A    between atoms: C_3  and  C_4
REMARK    3  A    between atoms: C_4  and  N_5
REMARK    4  A    between atoms: N_5  and  C_6
REMARK    5  A    between atoms: C_9  and  C_12
REMARK    6  A    between atoms: C_15  and  C_17
REMARK    7  A    between atoms: N_21  and  C_22
REMARK    8  A    between atoms: C_22  and  C_23
REMARK                            x       y       z     vdW  Elec       q    Type
REMARK                         _______ _______ _______ _____ _____    ______ ____
ROOT
ATOM     12  C   UNL     1      -0.996   0.046  24.464  0.00  0.00    +0.205 A 
ATOM     13  N   UNL     1      -1.038  -0.040  25.284  0.00  0.00    -0.056 NA
ATOM     14  O   UNL     1      -1.834  -0.025  25.502  0.00  0.00    -0.336 OA
ATOM     15  C   UNL     1      -2.283   0.070  24.817  0.00  0.00    +0.251 A 
ATOM     16  N   UNL     1      -1.766   0.115  24.176  0.00  0.00    -0.190 NA
ENDROOT
BRANCH  12   9
ATOM      6  C   UNL     1       1.075   0.093  23.110  0.00  0.00    +0.148 A 
ATOM      7  C   UNL     1       0.703   0.799  23.319  0.00  0.00    +0.036 A 
ATOM      8  C   UNL     1       0.012   0.784  23.771  0.00  0.00    +0.008 A 
ATOM      9  C   UNL     1      -0.306   0.062  24.013  0.00  0.00    +0.058 A 
ATOM     10  C   UNL     1       0.066  -0.644  23.804  0.00  0.00    +0.103 A 
ATOM     11  N   UNL     1       0.757  -0.628  23.353  0.00  0.00    -0.228 NA
BRANCH   6   5
ATOM      5  N   UNL     1       1.766   0.108  22.659  0.00  0.00    -0.218 NA
BRANCH   5   4
ATOM      4  C   UNL     1       2.453   0.442  22.968  0.00  0.00    +0.146 C 
BRANCH   4   3
ATOM      3  C   UNL     1       3.164   0.381  22.554  0.00  0.00    +0.166 C 
BRANCH   3   2
ATOM      1  C   UNL     1       4.539   0.465  22.937  0.00  0.00    +0.174 C 
ATOM      2  O   UNL     1       3.816   0.832  22.784  0.00  0.00    -0.349 OA
ENDBRANCH   3   2
ENDBRANCH   4   3
ENDBRANCH   5   4
ENDBRANCH   6   5
ENDBRANCH  12   9
BRANCH  15  17
ATOM     17  C   UNL     1      -3.106   0.114  24.779  0.00  0.00    +0.138 C 
ATOM     18  C   UNL     1      -3.623  -0.525  24.703  0.00  0.00    +0.027 C 
ATOM     19  C   UNL     1      -4.393  -0.229  24.688  0.00  0.00    +0.019 C 
ATOM     20  C   UNL     1      -4.353   0.592  24.754  0.00  0.00    +0.073 C 
ATOM     21  N   UNL     1      -3.557   0.804  24.811  0.00  0.00    -0.263 NA
BRANCH  21  22
ATOM     22  C   UNL     1      -3.265   1.572  24.885  0.00  0.00    +0.100 C 
BRANCH  22  23
ATOM     23  C   UNL     1      -3.785   2.212  24.904  0.00  0.00    -0.004 A 
ATOM     24  C   UNL     1      -4.162   2.417  25.609  0.00  0.00    +0.029 A 
ATOM     25  C   UNL     1      -4.682   3.056  25.628  0.00  0.00    +0.167 A 
ATOM     26  F   UNL     1      -5.059   3.261  26.333  0.00  0.00    -0.202 F 
ATOM     27  C   UNL     1      -4.825   3.492  24.942  0.00  0.00    +0.167 A 
ATOM     28  F   UNL     1      -5.346   4.132  24.960  0.00  0.00    -0.202 F 
ATOM     29  C   UNL     1      -4.449   3.287  24.237  0.00  0.00    +0.032 A 
ATOM     30  C   UNL     1      -3.928   2.647  24.218  0.00  0.00    -0.000 A 
ENDBRANCH  22  23
ENDBRANCH  21  22
ENDBRANCH  15  17
TORSDOF 8
ENDMDL
MODEL 2
REMARK VINA RESULT:      -8.8      1.945      2.250
REMARK  Name = 
REMARK  8 active torsions:
REMARK  status: ('A' for Active; 'I' for Inactive)
REMARK    1  A    between atoms: O_2  and  C_3
REMARK    2  A    between atoms: C_3  and  C_4
REMARK    3  A    between atoms: C_4  and  N_5
REMARK    4  A    between atoms: N_5  and  C_6
REMARK    5  A    between atoms: C_9  and  C_12
REMARK    6  A    between atoms: C_15  and  C_17
REMARK    7  A    between atoms: N_21  and  C_22
REMARK    8  A    between atoms: C_22  and  C_23
REMARK                            x       y       z     vdW  Elec       q    Type
REMARK                         _______ _______ _______ _____ _____    ______ ____
ROOT
ATOM     12  C   UNL     1      -0.345   0.579  23.807  0.00  0.00    +0.205 A 
ATOM     13  N   UNL     1      -0.699   0.108  24.385  0.00  0.00    -0.056 NA
ATOM     14  O   UNL     1      -1.451   0.413  24.537  0.00  0.00    -0.336 OA
ATOM     15  C   UNL     1      -1.561   1.073  24.053  0.00  0.00    +0.251 A 
ATOM     16  N   UNL     1      -0.877   1.175  23.602  0.00  0.00    -0.190 NA
ENDROOT
BRANCH  12   9
ATOM      6  C   UNL     1       1.918   0.260  22.857  0.00  0.00    +0.148 A 
ATOM      7  C   UNL     1       1.325  -0.294  22.706  0.00  0.00    +0.036 A 
ATOM      8  C   UNL     1       0.571  -0.188  23.023  0.00  0.00    +0.008 A 
ATOM      9  C   UNL     1       0.410   0.473  23.491  0.00  0.00    +0.058 A 
ATOM     10  C   UNL     1       1.002   1.026  23.642  0.00  0.00    +0.103 A 
ATOM     11  N   UNL     1       1.756   0.919  23.325  0.00  0.00    -0.228 NA
BRANCH   6   5
ATOM      5  N   UNL     1       2.673   0.153  22.540  0.00  0.00    -0.218 NA
BRANCH   5   4
ATOM      4  C   UNL     1       3.320   0.532  22.881  0.00  0.00    +0.146 C 
BRANCH   4   3
ATOM      3  C   UNL     1       4.085   0.268  22.721  0.00  0.00    +0.166 C 
BRANCH   3   2
ATOM      1  C   UNL     1       5.372   0.149  23.331  0.00  0.00    +0.174 C 
ATOM      2  O   UNL     1       4.730   0.614  23.101  0.00  0.00    -0.349 OA
ENDBRANCH   3   2
ENDBRANCH   4   3
ENDBRANCH   5   4
ENDBRANCH   6   5
ENDBRANCH  12   9
BRANCH  15  17
ATOM     17  C   UNL     1      -2.235   1.546  24.025  0.00  0.00    +0.138 C 
ATOM     18  C   UNL     1      -2.887   1.433  23.531  0.00  0.00    +0.027 C 
ATOM     19  C   UNL     1      -3.432   2.034  23.686  0.00  0.00    +0.019 C 
ATOM     20  C   UNL     1      -3.117   2.517  24.276  0.00  0.00    +0.073 C 
ATOM     21  N   UNL     1      -2.377   2.216  24.485  0.00  0.00    -0.263 NA
BRANCH  21  22
ATOM     22  C   UNL     1      -1.870   2.530  25.054  0.00  0.00    +0.100 C 
BRANCH  22  23
ATOM     23  C   UNL     1      -1.835   3.346  25.171  0.00  0.00    -0.004 A 
ATOM     24  C   UNL     1      -1.213   3.782  24.848  0.00  0.00    +0.029 A 
ATOM     25  C   UNL     1      -1.178   4.598  24.965  0.00  0.00    +0.167 A 
ATOM     26  F   UNL     1      -0.556   5.035  24.643  0.00  0.00    -0.202 F 
ATOM     27  C   UNL     1      -1.764   4.977  25.404  0.00  0.00    +0.167 A 
ATOM     28  F   UNL     1      -1.729   5.794  25.521  0.00  0.00    -0.202 F 
ATOM     29  C   UNL     1      -2.386   4.542  25.727  0.00  0.00    +0.032 A 
ATOM     30  C   UNL     1      -2.421   3.725  25.610  0.00  0.00    -0.000 A 
ENDBRANCH  22  23
ENDBRANCH  21  22
ENDBRANCH  15  17
TORSDOF 8
ENDMDL
MODEL 3
REMARK VINA RESULT:      -8.8      2.353      3.820
REMARK  Name = 
REMARK  8 active torsions:
REMARK  status: ('A' for Active; 'I' for Inactive)
REMARK    1  A    between atoms: O_2  and  C_3
REMARK    2  A    between atoms: C_3  and  C_4
REMARK    3  A    between atoms: C_4  and  N_5
REMARK    4  A    between atoms: N_5  and  C_6
REMARK    5  A    between atoms: C_9  and  C_12
REMARK    6  A    between atoms: C_15  and  C_17
REMARK    7  A    between atoms: N_21  and  C_22
REMARK    8  A    between atoms: C_22  and  C_23
REMARK                            x       y       z     vdW  Elec       q    Type
REMARK                         _______ _______ _______ _____ _____    ______ ____
ROOT
ATOM     12  C   UNL     1      -0.519   1.632  25.292  0.00  0.00    +0.205 A 
ATOM     13  N   UNL     1       0.124   1.948  25.703  0.00  0.00    -0.056 NA
ATOM     14  O   UNL     1       0.031   2.768  25.730  0.00  0.00    -0.336 OA
ATOM     15  C   UNL     1      -0.669   2.958  25.336  0.00  0.00    +0.251 A 
ATOM     16  N   UNL     1      -1.009   2.255  25.066  0.00  0.00    -0.190 NA
ENDROOT
BRANCH  12   9
ATOM      6  C   UNL     1      -0.906  -0.767  24.824  0.00  0.00    +0.148 A 
ATOM      7  C   UNL     1      -1.081  -0.459  25.570  0.00  0.00    +0.036 A 
ATOM      8  C   UNL     1      -0.952   0.341  25.726  0.00  0.00    +0.008 A 
ATOM      9  C   UNL     1      -0.648   0.832  25.136  0.00  0.00    +0.058 A 
ATOM     10  C   UNL     1      -0.473   0.524  24.392  0.00  0.00    +0.103 A 
ATOM     11  N   UNL     1      -0.603  -0.276  24.236  0.00  0.00    -0.228 NA
BRANCH   6   5
ATOM      5  N   UNL     1      -1.036  -1.567  24.668  0.00  0.00    -0.218 NA
BRANCH   5   4
ATOM      4  C   UNL     1      -1.782  -1.895  24.789  0.00  0.00    +0.146 C 
BRANCH   4   3
ATOM      3  C   UNL     1      -2.019  -2.553  24.351  0.00  0.00    +0.166 C 
BRANCH   3   2
ATOM      1  C   UNL     1      -3.399  -2.909  24.237  0.00  0.00    +0.174 C 
ATOM      2  O   UNL     1      -2.664  -3.004  24.600  0.00  0.00    -0.349 OA
ENDBRANCH   3   2
ENDBRANCH   4   3
ENDBRANCH   5   4
ENDBRANCH   6   5
ENDBRANCH  12   9
BRANCH  15  17
ATOM     17  C   UNL     1      -0.976   3.716  25.231  0.00  0.00    +0.138 C 
ATOM     18  C   UNL     1      -0.589   4.351  24.873  0.00  0.00    +0.027 C 
ATOM     19  C   UNL     1      -1.098   5.000  24.886  0.00  0.00    +0.019 C 
ATOM     20  C   UNL     1      -1.799   4.767  25.252  0.00  0.00    +0.073 C 
ATOM     21  N   UNL     1      -1.724   3.973  25.465  0.00  0.00    -0.263 NA
BRANCH  21  22
ATOM     22  C   UNL     1      -2.297   3.517  25.845  0.00  0.00    +0.100 C 
BRANCH  22  23
ATOM     23  C   UNL     1      -3.097   3.676  25.725  0.00  0.00    -0.004 A 
ATOM     24  C   UNL     1      -3.478   3.388  25.051  0.00  0.00    +0.029 A 
ATOM     25  C   UNL     1      -4.278   3.547  24.930  0.00  0.00    +0.167 A 
ATOM     26  F   UNL     1      -4.659   3.259  24.257  0.00  0.00    -0.202 F 
ATOM     27  C   UNL     1      -4.699   3.992  25.483  0.00  0.00    +0.167 A 
ATOM     28  F   UNL     1      -5.500   4.150  25.362  0.00  0.00    -0.202 F 
ATOM     29  C   UNL     1      -4.319   4.279  26.157  0.00  0.00    +0.032 A 
ATOM     30  C   UNL     1      -3.518   4.121  26.277  0.00  0.00    -0.000 A 
ENDBRANCH  22  23
ENDBRANCH  21  22
ENDBRANCH  15  17
TORSDOF 8
ENDMDL
MODEL 4
REMARK VINA RESULT:      -8.7      2.360      3.224
REMARK  Name = 
REMARK  8 active torsions:
REMARK  status: ('A' for Active; 'I' for Inactive)
REMARK    1  A    between atoms: O_2  and  C_3
REMARK    2  A    between atoms: C_3  and  C_4
REMARK    3  A    between atoms: C_4  and  N_5
REMARK    4  A    between atoms: N_5  and  C_6
REMARK    5  A    between atoms: C_9  and  C_12
REMARK    6  A    between atoms: C_15  and  C_17
REMARK    7  A    between atoms: N_21  and  C_22
REMARK    8  A    between atoms: C_22  and  C_23
REMARK                            x       y       z     vdW  Elec       q    Type
REMARK                         _______ _______ _______ _____ _____    ______ ____
ROOT
ATOM     12  C   UNL     1      -0.051   1.011  23.920  0.00  0.00    +0.205 A 
ATOM     13  N   UNL     1      -0.197   1.476  24.586  0.00  0.00    -0.056 NA
ATOM     14  O   UNL     1      -1.011   1.484  24.719  0.00  0.00    -0.336 OA
ATOM     15  C   UNL     1      -1.369   1.024  24.135  0.00  0.00    +0.251 A 
ATOM     16  N   UNL     1      -0.776   0.731  23.641  0.00  0.00    -0.190 NA
ENDROOT
BRANCH  12   9
ATOM      6  C   UNL     1       2.168   0.537  22.932  0.00  0.00    +0.148 A 
ATOM      7  C   UNL     1       1.538   0.020  22.800  0.00  0.00    +0.036 A 
ATOM      8  C   UNL     1       0.799   0.178  23.129  0.00  0.00    +0.008 A 
ATOM      9  C   UNL     1       0.689   0.853  23.591  0.00  0.00    +0.058 A 
ATOM     10  C   UNL     1       1.317   1.369  23.723  0.00  0.00    +0.103 A 
ATOM     11  N   UNL     1       2.057   1.212  23.394  0.00  0.00    -0.228 NA
BRANCH   6   5
ATOM      5  N   UNL     1       2.908   0.379  22.603  0.00  0.00    -0.218 NA
BRANCH   5   4
ATOM      4  C   UNL     1       3.592   0.636  22.985  0.00  0.00    +0.146 C 
BRANCH   4   3
ATOM      3  C   UNL     1       4.326   0.325  22.770  0.00  0.00    +0.166 C 
BRANCH   3   2
ATOM      1  C   UNL     1       5.536   0.018  23.465  0.00  0.00    +0.174 C 
ATOM      2  O   UNL     1       5.010   0.574  23.159  0.00  0.00    -0.349 OA
ENDBRANCH   3   2
ENDBRANCH   4   3
ENDBRANCH   5   4
ENDBRANCH   6   5
ENDBRANCH  12   9
BRANCH  15  17
ATOM     17  C   UNL     1      -2.178   0.881  24.058  0.00  0.00    +0.138 C 
ATOM     18  C   UNL     1      -2.707   1.323  23.606  0.00  0.00    +0.027 C 
ATOM     19  C   UNL     1      -3.456   0.986  23.688  0.00  0.00    +0.019 C 
ATOM     20  C   UNL     1      -3.389   0.336  24.190  0.00  0.00    +0.073 C 
ATOM     21  N   UNL     1      -2.599   0.270  24.419  0.00  0.00    -0.263 NA
BRANCH  21  22
ATOM     22  C   UNL     1      -2.286  -0.305  24.921  0.00  0.00    +0.100 C 
BRANCH  22  23
ATOM     23  C   UNL     1      -2.665  -1.032  25.002  0.00  0.00    -0.004 A 
ATOM     24  C   UNL     1      -2.498  -1.646  24.475  0.00  0.00    +0.029 A 
ATOM     25  C   UNL     1      -2.877  -2.373  24.556  0.00  0.00    +0.167 A 
ATOM     26  F   UNL     1      -2.711  -2.987  24.030  0.00  0.00    -0.202 F 
ATOM     27  C   UNL     1      -3.423  -2.489  25.164  0.00  0.00    +0.167 A 
ATOM     28  F   UNL     1      -3.803  -3.217  25.245  0.00  0.00    -0.202 F 
ATOM     29  C   UNL     1      -3.590  -1.876  25.691  0.00  0.00    +0.032 A 
ATOM     30  C   UNL     1      -3.210  -1.148  25.610  0.00  0.00    -0.000 A 
ENDBRANCH  22  23
ENDBRANCH  21  22
ENDBRANCH  15  17
TORSDOF 8
ENDMDL
MODEL 5
REMARK VINA RESULT:      -8.6      3.272      4.255
REMARK  Name = 
REMARK  8 active torsions:
REMARK  status: ('A' for Active; 'I' for Inactive)
REMARK    1  A    between atoms: O_2  and  C_3
REMARK    2  A    between atoms: C_3  and  C_4
REMARK    3  A    between atoms: C_4  and  N_5
REMARK    4  A    between atoms: N_5  and  C_6
REMARK    5  A    between atoms: C_9  and  C_12
REMARK    6  A    between atoms: C_15  and  C_17
REMARK    7  A    between atoms: N_21  and  C_22
REMARK    8  A    between atoms: C_22  and  C_23
REMARK                            x       y       z     vdW  Elec       q    Type
REMARK                         _______ _______ _______ _____ _____    ______ ____
ROOT
ATOM     12  C   UNL     1      -1.997   2.064  24.997  0.00  0.00    +0.205 A 
ATOM     13  N   UNL     1      -2.161   2.316  24.228  0.00  0.00    -0.056 NA
ATOM     14  O   UNL     1      -2.904   2.026  24.017  0.00  0.00    -0.336 OA
ATOM     15  C   UNL     1      -3.200   1.595  24.655  0.00  0.00    +0.251 A 
ATOM     16  N   UNL     1      -2.639   1.618  25.261  0.00  0.00    -0.190 NA
ENDROOT
BRANCH  12   9
ATOM      6  C   UNL     1       0.058   2.559  26.284  0.00  0.00    +0.148 A 
ATOM      7  C   UNL     1      -0.536   3.128  26.220  0.00  0.00    +0.036 A 
ATOM      8  C   UNL     1      -1.221   2.963  25.791  0.00  0.00    +0.008 A 
ATOM      9  C   UNL     1      -1.312   2.229  25.426  0.00  0.00    +0.058 A 
ATOM     10  C   UNL     1      -0.719   1.660  25.490  0.00  0.00    +0.103 A 
ATOM     11  N   UNL     1      -0.034   1.825  25.919  0.00  0.00    -0.228 NA
BRANCH   6   5
ATOM      5  N   UNL     1       0.743   2.724  26.713  0.00  0.00    -0.218 NA
BRANCH   5   4
ATOM      4  C   UNL     1       0.763   2.588  27.526  0.00  0.00    +0.146 C 
BRANCH   4   3
ATOM      3  C   UNL     1       1.471   2.675  27.941  0.00  0.00    +0.166 C 
BRANCH   3   2
ATOM      1  C   UNL     1       2.193   2.643  29.174  0.00  0.00    +0.174 C 
ATOM      2  O   UNL     1       1.480   2.592  28.763  0.00  0.00    -0.349 OA
ENDBRANCH   3   2
ENDBRANCH   4   3
ENDBRANCH   5   4
ENDBRANCH   6   5
ENDBRANCH  12   9
BRANCH  15  17
ATOM     17  C   UNL     1      -3.927   1.208  24.684  0.00  0.00    +0.138 C 
ATOM     18  C   UNL     1      -4.644   1.540  24.922  0.00  0.00    +0.027 C 
ATOM     19  C   UNL     1      -5.227   0.958  24.864  0.00  0.00    +0.019 C 
ATOM     20  C   UNL     1      -4.870   0.267  24.591  0.00  0.00    +0.073 C 
ATOM     21  N   UNL     1      -4.067   0.421  24.479  0.00  0.00    -0.263 NA
BRANCH  21  22
ATOM     22  C   UNL     1      -3.503  -0.118  24.210  0.00  0.00    +0.100 C 
BRANCH  22  23
ATOM     23  C   UNL     1      -3.619  -0.926  24.321  0.00  0.00    -0.004 A 
ATOM     24  C   UNL     1      -4.045  -1.362  23.763  0.00  0.00    +0.029 A 
ATOM     25  C   UNL     1      -4.161  -2.171  23.873  0.00  0.00    +0.167 A 
ATOM     26  F   UNL     1      -4.586  -2.606  23.316  0.00  0.00    -0.202 F 
ATOM     27  C   UNL     1      -3.853  -2.545  24.540  0.00  0.00    +0.167 A 
ATOM     28  F   UNL     1      -3.969  -3.355  24.651  0.00  0.00    -0.202 F 
ATOM     29  C   UNL     1      -3.428  -2.110  25.098  0.00  0.00    +0.032 A 
ATOM     30  C   UNL     1      -3.311  -1.301  24.988  0.00  0.00    -0.000 A 
ENDBRANCH  22  23
ENDBRANCH  21  22
ENDBRANCH  15  17
TORSDOF 8
ENDMDL
MODEL 6
REMARK VINA RESULT:      -8.4      1.526      2.138
REMARK  Name = 
REMARK  8 active torsions:
REMARK  status: ('A' for Active; 'I' for Inactive)
REMARK    1  A    between atoms: O_2  and  C_3
REMARK    2  A    between atoms: C_3  and  C_4
REMARK    3  A    between atoms: C_4  and  N_5
REMARK    4  A    between atoms: N_5  and  C_6
REMARK    5  A    between atoms: C_9  and  C_12
REMARK    6  A    between atoms: C_15  and  C_17
REMARK    7  A    between atoms: N_21  and  C_22
REMARK    8  A    between atoms: C_22  and  C_23
REMARK                            x       y       z     vdW  Elec       q    Type
REMARK                         _______ _______ _______ _____ _____    ______ ____
ROOT
ATOM     12  C   UNL     1      -0.676   1.935  24.923  0.00  0.00    +0.205 A 
ATOM     13  N   UNL     1      -0.766   1.842  25.739  0.00  0.00    -0.056 NA
ATOM     14  O   UNL     1      -1.388   2.326  25.984  0.00  0.00    -0.336 OA
ATOM     15  C   UNL     1      -1.682   2.718  25.320  0.00  0.00    +0.251 A 
ATOM     16  N   UNL     1      -1.242   2.476  24.665  0.00  0.00    -0.190 NA
ENDROOT
BRANCH  12   9
ATOM      6  C   UNL     1       0.998   0.790  23.505  0.00  0.00    +0.148 A 
ATOM      7  C   UNL     1       0.262   0.441  23.639  0.00  0.00    +0.036 A 
ATOM      8  C   UNL     1      -0.296   0.822  24.112  0.00  0.00    +0.008 A 
ATOM      9  C   UNL     1      -0.118   1.554  24.451  0.00  0.00    +0.058 A 
ATOM     10  C   UNL     1       0.617   1.903  24.317  0.00  0.00    +0.103 A 
ATOM     11  N   UNL     1       1.175   1.521  23.844  0.00  0.00    -0.228 NA
BRANCH   6   5
ATOM      5  N   UNL     1       1.556   0.409  23.032  0.00  0.00    -0.218 NA
BRANCH   5   4
ATOM      4  C   UNL     1       2.344   0.652  23.047  0.00  0.00    +0.146 C 
BRANCH   4   3
ATOM      3  C   UNL     1       2.912   0.234  22.619  0.00  0.00    +0.166 C 
BRANCH   3   2
ATOM      1  C   UNL     1       4.332   0.375  22.711  0.00  0.00    +0.174 C 
ATOM      2  O   UNL     1       3.611   0.608  22.385  0.00  0.00    -0.349 OA
ENDBRANCH   3   2
ENDBRANCH   4   3
ENDBRANCH   5   4
ENDBRANCH   6   5
ENDBRANCH  12   9
BRANCH  15  17
ATOM     17  C   UNL     1      -2.306   3.257  25.312  0.00  0.00    +0.138 C 
ATOM     18  C   UNL     1      -2.239   4.078  25.363  0.00  0.00    +0.027 C 
ATOM     19  C   UNL     1      -2.999   4.399  25.334  0.00  0.00    +0.019 C 
ATOM     20  C   UNL     1      -3.536   3.776  25.265  0.00  0.00    +0.073 C 
ATOM     21  N   UNL     1      -3.108   3.071  25.252  0.00  0.00    -0.263 NA
BRANCH  21  22
ATOM     22  C   UNL     1      -3.426   2.312  25.189  0.00  0.00    +0.100 C 
BRANCH  22  23
ATOM     23  C   UNL     1      -4.240   2.212  25.105  0.00  0.00    -0.004 A 
ATOM     24  C   UNL     1      -4.728   2.223  25.770  0.00  0.00    +0.029 A 
ATOM     25  C   UNL     1      -5.542   2.122  25.686  0.00  0.00    +0.167 A 
ATOM     26  F   UNL     1      -6.030   2.134  26.351  0.00  0.00    -0.202 F 
ATOM     27  C   UNL     1      -5.869   2.011  24.937  0.00  0.00    +0.167 A 
ATOM     28  F   UNL     1      -6.684   1.910  24.852  0.00  0.00    -0.202 F 
ATOM     29  C   UNL     1      -5.381   1.999  24.271  0.00  0.00    +0.032 A 
ATOM     30  C   UNL     1      -4.566   2.100  24.356  0.00  0.00    -0.000 A 
ENDBRANCH  22  23
ENDBRANCH  21  22
ENDBRANCH  15  17
TORSDOF 8
ENDMDL
MODEL 7
REMARK VINA RESULT:      -8.1      3.455      4.472
REMARK  Name = 
REMARK  8 active torsions:
REMARK  status: ('A' for Active; 'I' for Inactive)
REMARK    1  A    between atoms: O_2  and  C_3
REMARK    2  A    between atoms: C_3  and  C_4
REMARK    3  A    between atoms: C_4  and  N_5
REMARK    4  A    between atoms: N_5  and  C_6
REMARK    5  A    between atoms: C_9  and  C_12
REMARK    6  A    between atoms: C_15  and  C_17
REMARK    7  A    between atoms: N_21  and  C_22
REMARK    8  A    between atoms: C_22  and  C_23
REMARK                            x       y       z     vdW  Elec       q    Type
REMARK                         _______ _______ _______ _____ _____    ______ ____
ROOT
ATOM     12  C   UNL     1      -4.381   0.917  24.982  0.00  0.00    +0.205 A 
ATOM     13  N   UNL     1      -4.933   1.262  25.490  0.00  0.00    -0.056 NA
ATOM     14  O   UNL     1      -4.954   2.071  25.332  0.00  0.00    -0.336 OA
ATOM     15  C   UNL     1      -4.416   2.227  24.727  0.00  0.00    +0.251 A 
ATOM     16  N   UNL     1      -4.062   1.514  24.510  0.00  0.00    -0.190 NA
ENDROOT
BRANCH  12   9
ATOM      6  C   UNL     1      -3.789  -1.484  24.890  0.00  0.00    +0.148 A 
ATOM      7  C   UNL     1      -4.159  -1.125  24.245  0.00  0.00    +0.036 A 
ATOM      8  C   UNL     1      -4.357  -0.325  24.276  0.00  0.00    +0.008 A 
ATOM      9  C   UNL     1      -4.184   0.117  24.951  0.00  0.00    +0.058 A 
ATOM     10  C   UNL     1      -3.814  -0.241  25.595  0.00  0.00    +0.103 A 
ATOM     11  N   UNL     1      -3.617  -1.042  25.564  0.00  0.00    -0.228 NA
BRANCH   6   5
ATOM      5  N   UNL     1      -3.592  -2.285  24.859  0.00  0.00    -0.218 NA
BRANCH   5   4
ATOM      4  C   UNL     1      -3.026  -2.549  24.321  0.00  0.00    +0.146 C 
BRANCH   4   3
ATOM      3  C   UNL     1      -2.363  -2.962  24.589  0.00  0.00    +0.166 C 
BRANCH   3   2
ATOM      1  C   UNL     1      -0.953  -2.772  24.448  0.00  0.00    +0.174 C 
ATOM      2  O   UNL     1      -1.680  -2.992  24.126  0.00  0.00    -0.349 OA
ENDBRANCH   3   2
ENDBRANCH   4   3
ENDBRANCH   5   4
ENDBRANCH   6   5
ENDBRANCH  12   9
BRANCH  15  17
ATOM     17  C   UNL     1      -4.259   2.966  24.396  0.00  0.00    +0.138 C 
ATOM     18  C   UNL     1      -4.712   3.345  23.819  0.00  0.00    +0.027 C 
ATOM     19  C   UNL     1      -4.354   4.070  23.650  0.00  0.00    +0.019 C 
ATOM     20  C   UNL     1      -3.681   4.138  24.122  0.00  0.00    +0.073 C 
ATOM     21  N   UNL     1      -3.622   3.456  24.583  0.00  0.00    -0.263 NA
BRANCH  21  22
ATOM     22  C   UNL     1      -3.031   3.294  25.134  0.00  0.00    +0.100 C 
BRANCH  22  23
ATOM     23  C   UNL     1      -2.323   3.716  25.116  0.00  0.00    -0.004 A 
ATOM     24  C   UNL     1      -1.659   3.394  24.747  0.00  0.00    +0.029 A 
ATOM     25  C   UNL     1      -0.951   3.817  24.730  0.00  0.00    +0.167 A 
ATOM     26  F   UNL     1      -0.287   3.494  24.361  0.00  0.00    -0.202 F 
ATOM     27  C   UNL     1      -0.906   4.562  25.081  0.00  0.00    +0.167 A 
ATOM     28  F   UNL     1      -0.198   4.985  25.063  0.00  0.00    -0.202 F 
ATOM     29  C   UNL     1      -1.570   4.885  25.450  0.00  0.00    +0.032 A 
ATOM     30  C   UNL     1      -2.278   4.461  25.467  0.00  0.00    -0.000 A 
ENDBRANCH  22  23
ENDBRANCH  21  22
ENDBRANCH  15  17
TORSDOF 8
ENDMDL
