MODEL 1
REMARK VINA RESULT:      -8.8      0.000      0.000
REMARK  Name = 
REMARK  2 active torsions:
REMARK  status: ('A' for Active; 'I' for Inactive)
REMARK    1  A    between atoms: N_8  and  C_9
REMARK    2  A    between atoms: C_9  and  C_10
REMARK                            x       y       z     vdW  Elec       q    Type
REMARK                         _______ _______ _______ _____ _____    ______ ____
ROOT
ATOM      1  C   UNL     1      -5.511   3.438  25.676  0.00  0.00    +0.090 C 
ATOM      2  N   UNL     1      -4.958   3.019  25.228  0.00  0.00    -0.269 NA
ATOM      3  C   UNL     1      -4.345   3.421  24.849  0.00  0.00    +0.094 C 
ATOM      4  C   UNL     1      -3.793   3.003  24.402  0.00  0.00    +0.112 C 
ATOM      5  N   UNL     1      -3.853   2.182  24.333  0.00  0.00    -0.261 N 
ATOM      6  C   UNL     1      -4.466   1.781  24.712  0.00  0.00    +0.113 C 
ATOM      7  C   UNL     1      -4.385   0.977  24.546  0.00  0.00    +0.117 C 
ATOM      8  N   UNL     1      -3.723   0.882  24.065  0.00  0.00    -0.257 N 
ATOM     16  C   UNL     1      -3.394   1.627  23.934  0.00  0.00    +0.308 C 
ATOM     17  O   UNL     1      -2.722   1.788  23.481  0.00  0.00    -0.252 OA
ATOM     18  C   UNL     1      -5.019   2.200  25.160  0.00  0.00    +0.094 C 
ENDROOT
BRANCH   8   9
ATOM      9  C   UNL     1      -3.438   0.167  23.767  0.00  0.00    +0.141 C 
BRANCH   9  10
ATOM     10  C   UNL     1      -3.442  -0.509  24.241  0.00  0.00    +0.079 A 
ATOM     11  N   UNL     1      -2.887  -0.591  24.846  0.00  0.00    -0.246 NA
ATOM     12  C   UNL     1      -2.892  -1.267  25.319  0.00  0.00    +0.099 A 
ATOM     13  C   UNL     1      -3.450  -1.860  25.187  0.00  0.00    +0.021 A 
ATOM     14  C   UNL     1      -4.004  -1.777  24.582  0.00  0.00    +0.003 A 
ATOM     15  C   UNL     1      -4.001  -1.102  24.109  0.00  0.00    +0.016 A 
ENDBRANCH   9  10
ENDBRANCH   8   9
TORSDOF 2
ENDMDL
MODEL 2
REMARK VINA RESULT:      -8.7      1.338      2.049
REMARK  Name = 
REMARK  2 active torsions:
REMARK  status: ('A' for Active; 'I' for Inactive)
REMARK    1  A    between atoms: N_8  and  C_9
REMARK    2  A    between atoms: C_9  and  C_10
REMARK                            x       y       z     vdW  Elec       q    Type
REMARK                         _______ _______ _______ _____ _____    ______ ____
ROOT
ATOM      1  C   UNL     1      -1.357   2.699  23.918  0.00  0.00    +0.090 C 
ATOM      2  N   UNL     1      -2.064   2.334  24.141  0.00  0.00    -0.269 NA
ATOM      3  C   UNL     1      -2.769   2.762  24.138  0.00  0.00    +0.094 C 
ATOM      4  C   UNL     1      -3.474   2.398  24.360  0.00  0.00    +0.112 C 
ATOM      5  N   UNL     1      -3.475   1.604  24.586  0.00  0.00    -0.261 N 
ATOM      6  C   UNL     1      -2.770   1.175  24.588  0.00  0.00    +0.113 C 
ATOM      7  C   UNL     1      -2.940   0.407  24.835  0.00  0.00    +0.117 C 
ATOM      8  N   UNL     1      -3.750   0.360  24.985  0.00  0.00    -0.257 N 
ATOM     16  C   UNL     1      -4.080   1.100  24.830  0.00  0.00    +0.308 C 
ATOM     17  O   UNL     1      -4.877   1.301  24.908  0.00  0.00    -0.252 OA
ATOM     18  C   UNL     1      -2.064   1.540  24.366  0.00  0.00    +0.094 C 
ENDROOT
BRANCH   8   9
ATOM      9  C   UNL     1      -4.158  -0.309  25.243  0.00  0.00    +0.141 C 
BRANCH   9  10
ATOM     10  C   UNL     1      -3.984  -1.048  24.922  0.00  0.00    +0.079 A 
ATOM     11  N   UNL     1      -4.268  -1.251  24.175  0.00  0.00    -0.246 NA
ATOM     12  C   UNL     1      -4.094  -1.992  23.855  0.00  0.00    +0.099 A 
ATOM     13  C   UNL     1      -3.635  -2.528  24.281  0.00  0.00    +0.021 A 
ATOM     14  C   UNL     1      -3.350  -2.325  25.028  0.00  0.00    +0.003 A 
ATOM     15  C   UNL     1      -3.524  -1.585  25.349  0.00  0.00    +0.016 A 
ENDBRANCH   9  10
ENDBRANCH   8   9
TORSDOF 2
ENDMDL
MODEL 3
REMARK VINA RESULT:      -8.7      1.260      1.641
REMARK  Name = 
REMARK  2 active torsions:
REMARK  status: ('A' for Active; 'I' for Inactive)
REMARK    1  A    between atoms: N_8  and  C_9
REMARK    2  A    between atoms: C_9  and  C_10
REMARK                            x       y       z     vdW  Elec       q    Type
REMARK                         _______ _______ _______ _____ _____    ______ ____
ROOT
ATOM      1  C   UNL     1      -2.212   4.000  25.021  0.00  0.00    +0.090 C 
ATOM      2  N   UNL     1      -2.864   3.495  25.054  0.00  0.00    -0.269 NA
ATOM      3  C   UNL     1      -3.591   3.777  25.326  0.00  0.00    +0.094 C 
ATOM      4  C   UNL     1      -4.242   3.273  25.359  0.00  0.00    +0.112 C 
ATOM      5  N   UNL     1      -4.168   2.486  25.120  0.00  0.00    -0.261 N 
ATOM      6  C   UNL     1      -3.442   2.205  24.849  0.00  0.00    +0.113 C 
ATOM      7  C   UNL     1      -3.534   1.409  24.652  0.00  0.00    +0.117 C 
ATOM      8  N   UNL     1      -4.317   1.199  24.802  0.00  0.00    -0.257 N 
ATOM     16  C   UNL     1      -4.709   1.865  25.091  0.00  0.00    +0.308 C 
ATOM     17  O   UNL     1      -5.503   1.903  25.313  0.00  0.00    -0.252 OA
ATOM     18  C   UNL     1      -2.789   2.709  24.816  0.00  0.00    +0.094 C 
ENDROOT
BRANCH   8   9
ATOM      9  C   UNL     1      -4.651   0.454  24.683  0.00  0.00    +0.141 C 
BRANCH   9  10
ATOM     10  C   UNL     1      -4.199  -0.225  24.806  0.00  0.00    +0.079 A 
ATOM     11  N   UNL     1      -3.992  -0.451  25.572  0.00  0.00    -0.246 NA
ATOM     12  C   UNL     1      -3.540  -1.130  25.694  0.00  0.00    +0.099 A 
ATOM     13  C   UNL     1      -3.295  -1.584  25.051  0.00  0.00    +0.021 A 
ATOM     14  C   UNL     1      -3.501  -1.358  24.285  0.00  0.00    +0.003 A 
ATOM     15  C   UNL     1      -3.953  -0.679  24.162  0.00  0.00    +0.016 A 
ENDBRANCH   9  10
ENDBRANCH   8   9
TORSDOF 2
ENDMDL
MODEL 4
REMARK VINA RESULT:      -8.3      2.676      3.641
REMARK  Name = 
REMARK  2 active torsions:
REMARK  status: ('A' for Active; 'I' for Inactive)
REMARK    1  A    between atoms: N_8  and  C_9
REMARK    2  A    between atoms: C_9  and  C_10
REMARK                            x       y       z     vdW  Elec       q    Type
REMARK                         _______ _______ _______ _____ _____    ______ ____
ROOT
ATOM      1  C   UNL     1       0.962   0.063  23.274  0.00  0.00    +0.090 C 
ATOM      2  N   UNL     1       0.254   0.168  23.686  0.00  0.00    -0.269 NA
ATOM      3  C   UNL     1       0.009   0.926  23.899  0.00  0.00    +0.094 C 
ATOM      4  C   UNL     1      -0.698   1.030  24.310  0.00  0.00    +0.112 C 
ATOM      5  N   UNL     1      -1.161   0.376  24.509  0.00  0.00    -0.261 N 
ATOM      6  C   UNL     1      -0.915  -0.382  24.296  0.00  0.00    +0.113 C 
ATOM      7  C   UNL     1      -1.481  -0.918  24.564  0.00  0.00    +0.117 C 
ATOM      8  N   UNL     1      -2.076  -0.492  24.944  0.00  0.00    -0.257 N 
ATOM     16  C   UNL     1      -1.878   0.308  24.909  0.00  0.00    +0.308 C 
ATOM     17  O   UNL     1      -2.320   0.931  25.221  0.00  0.00    -0.252 OA
ATOM     18  C   UNL     1      -0.207  -0.487  23.884  0.00  0.00    +0.094 C 
ENDROOT
BRANCH   8   9
ATOM      9  C   UNL     1      -2.752  -0.810  25.296  0.00  0.00    +0.141 C 
BRANCH   9  10
ATOM     10  C   UNL     1      -3.212  -1.358  24.886  0.00  0.00    +0.079 A 
ATOM     11  N   UNL     1      -3.756  -1.100  24.321  0.00  0.00    -0.246 NA
ATOM     12  C   UNL     1      -4.216  -1.650  23.912  0.00  0.00    +0.099 A 
ATOM     13  C   UNL     1      -4.133  -2.455  24.067  0.00  0.00    +0.021 A 
ATOM     14  C   UNL     1      -3.589  -2.712  24.631  0.00  0.00    +0.003 A 
ATOM     15  C   UNL     1      -3.128  -2.164  25.041  0.00  0.00    +0.016 A 
ENDBRANCH   9  10
ENDBRANCH   8   9
TORSDOF 2
ENDMDL
MODEL 5
REMARK VINA RESULT:      -8.2      2.200      3.516
REMARK  Name = 
REMARK  2 active torsions:
REMARK  status: ('A' for Active; 'I' for Inactive)
REMARK    1  A    between atoms: N_8  and  C_9
REMARK    2  A    between atoms: C_9  and  C_10
REMARK                            x       y       z     vdW  Elec       q    Type
REMARK                         _______ _______ _______ _____ _____    ______ ____
ROOT
ATOM      1  C   UNL     1      -0.003   2.350  25.764  0.00  0.00    +0.090 C 
ATOM      2  N   UNL     1      -0.627   2.315  25.224  0.00  0.00    -0.269 NA
ATOM      3  C   UNL     1      -0.512   1.977  24.481  0.00  0.00    +0.094 C 
ATOM      4  C   UNL     1      -1.135   1.942  23.943  0.00  0.00    +0.112 C 
ATOM      5  N   UNL     1      -1.875   2.246  24.147  0.00  0.00    -0.261 N 
ATOM      6  C   UNL     1      -1.990   2.584  24.890  0.00  0.00    +0.113 C 
ATOM      7  C   UNL     1      -2.774   2.837  24.936  0.00  0.00    +0.117 C 
ATOM      8  N   UNL     1      -3.143   2.654  24.222  0.00  0.00    -0.257 N 
ATOM     16  C   UNL     1      -2.587   2.289  23.734  0.00  0.00    +0.308 C 
ATOM     17  O   UNL     1      -2.720   2.015  22.967  0.00  0.00    -0.252 OA
ATOM     18  C   UNL     1      -1.366   2.619  25.429  0.00  0.00    +0.094 C 
ENDROOT
BRANCH   8   9
ATOM      9  C   UNL     1      -3.930   2.810  24.029  0.00  0.00    +0.141 C 
BRANCH   9  10
ATOM     10  C   UNL     1      -4.527   2.662  24.578  0.00  0.00    +0.079 A 
ATOM     11  N   UNL     1      -4.774   3.259  25.091  0.00  0.00    -0.246 NA
ATOM     12  C   UNL     1      -5.371   3.110  25.640  0.00  0.00    +0.099 A 
ATOM     13  C   UNL     1      -5.721   2.365  25.677  0.00  0.00    +0.021 A 
ATOM     14  C   UNL     1      -5.474   1.767  25.165  0.00  0.00    +0.003 A 
ATOM     15  C   UNL     1      -4.877   1.915  24.615  0.00  0.00    +0.016 A 
ENDBRANCH   9  10
ENDBRANCH   8   9
TORSDOF 2
ENDMDL
MODEL 6
REMARK VINA RESULT:      -8.2      1.365      3.530
REMARK  Name = 
REMARK  2 active torsions:
REMARK  status: ('A' for Active; 'I' for Inactive)
REMARK    1  A    between atoms: N_8  and  C_9
REMARK    2  A    between atoms: C_9  and  C_10
REMARK                            x       y       z     vdW  Elec       q    Type
REMARK                         _______ _______ _______ _____ _____    ______ ____
ROOT
ATOM      1  C   UNL     1      -0.991  -0.693  25.339  0.00  0.00    +0.090 C 
ATOM      2  N   UNL     1      -1.363  -0.084  24.923  0.00  0.00    -0.269 NA
ATOM      3  C   UNL     1      -0.939   0.355  24.368  0.00  0.00    +0.094 C 
ATOM      4  C   UNL     1      -1.310   0.963  23.953  0.00  0.00    +0.112 C 
ATOM      5  N   UNL     1      -2.105   1.133  24.092  0.00  0.00    -0.261 N 
ATOM      6  C   UNL     1      -2.529   0.695  24.648  0.00  0.00    +0.113 C 
ATOM      7  C   UNL     1      -3.300   0.986  24.669  0.00  0.00    +0.117 C 
ATOM      8  N   UNL     1      -3.353   1.605  24.126  0.00  0.00    -0.257 N 
ATOM     16  C   UNL     1      -2.614   1.695  23.770  0.00  0.00    +0.308 C 
ATOM     17  O   UNL     1      -2.419   2.252  23.193  0.00  0.00    -0.252 OA
ATOM     18  C   UNL     1      -2.158   0.086  25.064  0.00  0.00    +0.094 C 
ENDROOT
BRANCH   8   9
ATOM      9  C   UNL     1      -4.026   2.055  23.967  0.00  0.00    +0.141 C 
BRANCH   9  10
ATOM     10  C   UNL     1      -4.512   2.303  24.586  0.00  0.00    +0.079 A 
ATOM     11  N   UNL     1      -4.313   2.974  25.023  0.00  0.00    -0.246 NA
ATOM     12  C   UNL     1      -4.800   3.222  25.641  0.00  0.00    +0.099 A 
ATOM     13  C   UNL     1      -5.485   2.800  25.822  0.00  0.00    +0.021 A 
ATOM     14  C   UNL     1      -5.684   2.129  25.385  0.00  0.00    +0.003 A 
ATOM     15  C   UNL     1      -5.198   1.881  24.767  0.00  0.00    +0.016 A 
ENDBRANCH   9  10
ENDBRANCH   8   9
TORSDOF 2
ENDMDL
MODEL 7
REMARK VINA RESULT:      -8.1      2.556      3.492
REMARK  Name = 
REMARK  2 active torsions:
REMARK  status: ('A' for Active; 'I' for Inactive)
REMARK    1  A    between atoms: N_8  and  C_9
REMARK    2  A    between atoms: C_9  and  C_10
REMARK                            x       y       z     vdW  Elec       q    Type
REMARK                         _______ _______ _______ _____ _____    ______ ____
ROOT
ATOM      1  C   UNL     1      -5.619   1.856  24.835  0.00  0.00    +0.090 C 
ATOM      2  N   UNL     1      -5.022   2.372  25.078  0.00  0.00    -0.269 NA
ATOM      3  C   UNL     1      -5.186   2.960  25.633  0.00  0.00    +0.094 C 
ATOM      4  C   UNL     1      -4.591   3.475  25.876  0.00  0.00    +0.112 C 
ATOM      5  N   UNL     1      -3.830   3.403  25.565  0.00  0.00    -0.261 N 
ATOM      6  C   UNL     1      -3.666   2.816  25.009  0.00  0.00    +0.113 C 
ATOM      7  C   UNL     1      -2.871   2.878  24.800  0.00  0.00    +0.117 C 
ATOM      8  N   UNL     1      -2.543   3.503  25.226  0.00  0.00    -0.257 N 
ATOM     16  C   UNL     1      -3.136   3.828  25.698  0.00  0.00    +0.308 C 
ATOM     17  O   UNL     1      -3.050   4.466  26.214  0.00  0.00    -0.252 OA
ATOM     18  C   UNL     1      -4.262   2.299  24.766  0.00  0.00    +0.094 C 
ENDROOT
BRANCH   8   9
ATOM      9  C   UNL     1      -1.760   3.760  25.186  0.00  0.00    +0.141 C 
BRANCH   9  10
ATOM     10  C   UNL     1      -1.144   3.212  25.219  0.00  0.00    +0.079 A 
ATOM     11  N   UNL     1      -0.824   2.907  24.522  0.00  0.00    -0.246 NA
ATOM     12  C   UNL     1      -0.208   2.359  24.556  0.00  0.00    +0.099 A 
ATOM     13  C   UNL     1       0.088   2.116  25.286  0.00  0.00    +0.021 A 
ATOM     14  C   UNL     1      -0.231   2.421  25.983  0.00  0.00    +0.003 A 
ATOM     15  C   UNL     1      -0.847   2.968  25.950  0.00  0.00    +0.016 A 
ENDBRANCH   9  10
ENDBRANCH   8   9
TORSDOF 2
ENDMDL
MODEL 8
REMARK VINA RESULT:      -8.0      1.376      3.924
REMARK  Name = 
REMARK  2 active torsions:
REMARK  status: ('A' for Active; 'I' for Inactive)
REMARK    1  A    between atoms: N_8  and  C_9
REMARK    2  A    between atoms: C_9  and  C_10
REMARK                            x       y       z     vdW  Elec       q    Type
REMARK                         _______ _______ _______ _____ _____    ______ ____
ROOT
ATOM      1  C   UNL     1      -2.617  -1.221  24.791  0.00  0.00    +0.090 C 
ATOM      2  N   UNL     1      -3.093  -0.547  24.763  0.00  0.00    -0.269 NA
ATOM      3  C   UNL     1      -3.914  -0.621  24.794  0.00  0.00    +0.094 C 
ATOM      4  C   UNL     1      -4.389   0.053  24.765  0.00  0.00    +0.112 C 
ATOM      5  N   UNL     1      -4.044   0.800  24.706  0.00  0.00    -0.261 N 
ATOM      6  C   UNL     1      -3.223   0.873  24.675  0.00  0.00    +0.113 C 
ATOM      7  C   UNL     1      -3.040   1.675  24.617  0.00  0.00    +0.117 C 
ATOM      8  N   UNL     1      -3.748   2.098  24.613  0.00  0.00    -0.257 N 
ATOM     16  C   UNL     1      -4.368   1.557  24.668  0.00  0.00    +0.308 C 
ATOM     17  O   UNL     1      -5.173   1.741  24.682  0.00  0.00    -0.252 OA
ATOM     18  C   UNL     1      -2.747   0.199  24.703  0.00  0.00    +0.094 C 
ENDROOT
BRANCH   8   9
ATOM      9  C   UNL     1      -3.823   2.918  24.562  0.00  0.00    +0.141 C 
BRANCH   9  10
ATOM     10  C   UNL     1      -3.294   3.406  24.964  0.00  0.00    +0.079 A 
ATOM     11  N   UNL     1      -2.592   3.643  24.600  0.00  0.00    -0.246 NA
ATOM     12  C   UNL     1      -2.063   4.132  25.003  0.00  0.00    +0.099 A 
ATOM     13  C   UNL     1      -2.235   4.384  25.768  0.00  0.00    +0.021 A 
ATOM     14  C   UNL     1      -2.937   4.148  26.133  0.00  0.00    +0.003 A 
ATOM     15  C   UNL     1      -3.466   3.659  25.731  0.00  0.00    +0.016 A 
ENDBRANCH   9  10
ENDBRANCH   8   9
TORSDOF 2
ENDMDL
