MODEL 1
REMARK VINA RESULT:     -11.6      0.000      0.000
REMARK  Name = 
REMARK  9 active torsions:
REMARK  status: ('A' for Active; 'I' for Inactive)
REMARK    1  A    between atoms: O_2  and  C_3
REMARK    2  A    between atoms: C_6  and  C_9
REMARK    3  A    between atoms: N_11  and  C_12
REMARK    4  A    between atoms: C_12  and  C_13
REMARK    5  A    between atoms: C_15  and  C_16
REMARK    6  A    between atoms: C_16  and  C_17
REMARK    7  A    between atoms: C_20  and  C_21
REMARK    8  A    between atoms: C_21  and  O_22
REMARK    9  A    between atoms: O_22  and  C_23
REMARK                            x       y       z     vdW  Elec       q    Type
REMARK                         _______ _______ _______ _____ _____    ______ ____
ROOT
ATOM     13  C   UNL     1      -2.417   3.508  25.017  0.00  0.00    +0.167 C 
ATOM     14  O   UNL     1      -3.094   3.143  24.720  0.00  0.00    -0.354 OA
ATOM     15  C   UNL     1      -3.841   3.419  24.936  0.00  0.00    +0.121 C 
ATOM     30  C   UNL     1      -3.911   4.061  25.451  0.00  0.00    +0.033 C 
ATOM     31  C   UNL     1      -3.233   4.426  25.749  0.00  0.00    +0.038 C 
ATOM     32  C   UNL     1      -2.487   4.150  25.533  0.00  0.00    +0.181 C 
ATOM     33  O   UNL     1      -1.809   4.515  25.830  0.00  0.00    -0.220 OA
ENDROOT
BRANCH  13  12
ATOM     12  C   UNL     1      -1.670   3.232  24.801  0.00  0.00    +0.147 C 
BRANCH  12  11
ATOM      9  C   UNL     1      -0.796   2.147  24.485  0.00  0.00    +0.265 C 
ATOM     10  O   UNL     1      -0.200   2.684  24.292  0.00  0.00    -0.268 OA
ATOM     11  N   UNL     1      -1.531   2.422  24.740  0.00  0.00    -0.199 NA
BRANCH   9   6
ATOM      3  C   UNL     1      -0.377  -0.285  24.299  0.00  0.00    +0.139 A 
ATOM      4  C   UNL     1      -0.455   0.065  25.043  0.00  0.00    +0.037 A 
ATOM      5  C   UNL     1      -0.595   0.875  25.104  0.00  0.00    +0.008 A 
ATOM      6  C   UNL     1      -0.656   1.337  24.423  0.00  0.00    +0.055 A 
ATOM      7  C   UNL     1      -0.578   0.987  23.679  0.00  0.00    +0.008 A 
ATOM      8  C   UNL     1      -0.439   0.176  23.618  0.00  0.00    +0.037 A 
BRANCH   3   2
ATOM      1  C   UNL     1      -0.191  -1.558  24.919  0.00  0.00    +0.252 C 
ATOM      2  O   UNL     1      -0.238  -1.096  24.238  0.00  0.00    -0.471 OA
ENDBRANCH   3   2
ENDBRANCH   9   6
ENDBRANCH  12  11
ENDBRANCH  13  12
BRANCH  15  16
ATOM     16  C   UNL     1      -4.518   3.055  24.638  0.00  0.00    +0.079 C 
BRANCH  16  17
ATOM     17  C   UNL     1      -4.725   2.298  24.893  0.00  0.00    +0.103 A 
ATOM     18  N   UNL     1      -5.193   2.118  25.547  0.00  0.00    -0.082 NA
ATOM     19  O   UNL     1      -5.257   1.297  25.597  0.00  0.00    -0.354 OA
ATOM     20  C   UNL     1      -4.828   0.970  24.972  0.00  0.00    +0.198 A 
ATOM     29  C   UNL     1      -4.499   1.588  24.537  0.00  0.00    +0.057 A 
BRANCH  20  21
ATOM     21  C   UNL     1      -4.744   0.164  24.812  0.00  0.00    +0.272 C 
BRANCH  21  22
ATOM     22  O   UNL     1      -4.000  -0.191  24.862  0.00  0.00    -0.467 OA
BRANCH  22  23
ATOM     23  C   UNL     1      -3.919  -0.999  24.719  0.00  0.00    +0.139 A 
ATOM     24  C   UNL     1      -3.670  -1.502  25.324  0.00  0.00    +0.037 A 
ATOM     25  C   UNL     1      -3.590  -2.310  25.181  0.00  0.00    +0.003 A 
ATOM     26  C   UNL     1      -3.757  -2.616  24.433  0.00  0.00    +0.000 A 
ATOM     27  C   UNL     1      -4.006  -2.112  23.828  0.00  0.00    +0.003 A 
ATOM     28  C   UNL     1      -4.087  -1.304  23.972  0.00  0.00    +0.037 A 
ENDBRANCH  22  23
ENDBRANCH  21  22
ENDBRANCH  20  21
ENDBRANCH  16  17
ENDBRANCH  15  16
TORSDOF 9
ENDMDL
MODEL 2
REMARK VINA RESULT:     -11.4      1.148      3.684
REMARK  Name = 
REMARK  9 active torsions:
REMARK  status: ('A' for Active; 'I' for Inactive)
REMARK    1  A    between atoms: O_2  and  C_3
REMARK    2  A    between atoms: C_6  and  C_9
REMARK    3  A    between atoms: N_11  and  C_12
REMARK    4  A    between atoms: C_12  and  C_13
REMARK    5  A    between atoms: C_15  and  C_16
REMARK    6  A    between atoms: C_16  and  C_17
REMARK    7  A    between atoms: C_20  and  C_21
REMARK    8  A    between atoms: C_21  and  O_22
REMARK    9  A    between atoms: O_22  and  C_23
REMARK                            x       y       z     vdW  Elec       q    Type
REMARK                         _______ _______ _______ _____ _____    ______ ____
ROOT
ATOM     13  C   UNL     1      -1.599   3.470  24.786  0.00  0.00    +0.167 C 
ATOM     14  O   UNL     1      -1.349   2.711  24.582  0.00  0.00    -0.354 OA
ATOM     15  C   UNL     1      -0.594   2.454  24.795  0.00  0.00    +0.121 C 
ATOM     30  C   UNL     1      -0.089   2.956  25.213  0.00  0.00    +0.033 C 
ATOM     31  C   UNL     1      -0.340   3.716  25.416  0.00  0.00    +0.038 C 
ATOM     32  C   UNL     1      -1.094   3.973  25.204  0.00  0.00    +0.181 C 
ATOM     33  O   UNL     1      -1.345   4.732  25.408  0.00  0.00    -0.220 OA
ENDROOT
BRANCH  13  12
ATOM     12  C   UNL     1      -2.353   3.727  24.574  0.00  0.00    +0.147 C 
BRANCH  12  11
ATOM      9  C   UNL     1      -3.755   3.460  24.505  0.00  0.00    +0.265 C 
ATOM     10  O   UNL     1      -3.825   3.987  23.874  0.00  0.00    -0.268 OA
ATOM     11  N   UNL     1      -3.019   3.331  24.854  0.00  0.00    -0.199 NA
BRANCH   9   6
ATOM      3  C   UNL     1      -5.755   2.269  25.346  0.00  0.00    +0.139 A 
ATOM      4  C   UNL     1      -5.538   2.995  25.675  0.00  0.00    +0.037 A 
ATOM      5  C   UNL     1      -4.872   3.392  25.394  0.00  0.00    +0.008 A 
ATOM      6  C   UNL     1      -4.422   3.064  24.785  0.00  0.00    +0.055 A 
ATOM      7  C   UNL     1      -4.639   2.338  24.457  0.00  0.00    +0.008 A 
ATOM      8  C   UNL     1      -5.305   1.941  24.738  0.00  0.00    +0.037 A 
BRANCH   3   2
ATOM      1  C   UNL     1      -6.437   1.591  26.403  0.00  0.00    +0.252 C 
ATOM      2  O   UNL     1      -6.422   1.872  25.627  0.00  0.00    -0.471 OA
ENDBRANCH   3   2
ENDBRANCH   9   6
ENDBRANCH  12  11
ENDBRANCH  13  12
BRANCH  15  16
ATOM     16  C   UNL     1      -0.344   1.695  24.591  0.00  0.00    +0.079 C 
BRANCH  16  17
ATOM     17  C   UNL     1      -0.720   1.036  24.915  0.00  0.00    +0.103 A 
ATOM     18  N   UNL     1      -0.730   0.826  25.712  0.00  0.00    -0.082 NA
ATOM     19  O   UNL     1      -1.168   0.132  25.788  0.00  0.00    -0.354 OA
ATOM     20  C   UNL     1      -1.429  -0.088  25.036  0.00  0.00    +0.198 A 
ATOM     29  C   UNL     1      -1.153   0.471  24.497  0.00  0.00    +0.057 A 
BRANCH  20  21
ATOM     21  C   UNL     1      -1.888  -0.751  24.857  0.00  0.00    +0.272 C 
BRANCH  21  22
ATOM     22  O   UNL     1      -2.705  -0.732  24.974  0.00  0.00    -0.467 OA
BRANCH  22  23
ATOM     23  C   UNL     1      -3.176  -1.345  24.687  0.00  0.00    +0.139 A 
ATOM     24  C   UNL     1      -3.034  -2.121  24.927  0.00  0.00    +0.037 A 
ATOM     25  C   UNL     1      -3.505  -2.734  24.640  0.00  0.00    +0.003 A 
ATOM     26  C   UNL     1      -4.119  -2.571  24.113  0.00  0.00    +0.000 A 
ATOM     27  C   UNL     1      -4.260  -1.794  23.873  0.00  0.00    +0.003 A 
ATOM     28  C   UNL     1      -3.789  -1.182  24.160  0.00  0.00    +0.037 A 
ENDBRANCH  22  23
ENDBRANCH  21  22
ENDBRANCH  20  21
ENDBRANCH  16  17
ENDBRANCH  15  16
TORSDOF 9
ENDMDL
MODEL 3
REMARK VINA RESULT:     -11.3      1.352      5.588
REMARK  Name = 
REMARK  9 active torsions:
REMARK  status: ('A' for Active; 'I' for Inactive)
REMARK    1  A    between atoms: O_2  and  C_3
REMARK    2  A    between atoms: C_6  and  C_9
REMARK    3  A    between atoms: N_11  and  C_12
REMARK    4  A    between atoms: C_12  and  C_13
REMARK    5  A    between atoms: C_15  and  C_16
REMARK    6  A    between atoms: C_16  and  C_17
REMARK    7  A    between atoms: C_20  and  C_21
REMARK    8  A    between atoms: C_21  and  O_22
REMARK    9  A    between atoms: O_22  and  C_23
REMARK                            x       y       z     vdW  Elec       q    Type
REMARK                         _______ _______ _______ _____ _____    ______ ____
ROOT
ATOM     13  C   UNL     1      -2.694  -1.317  24.818  0.00  0.00    +0.167 C 
ATOM     14  O   UNL     1      -2.145  -0.807  25.162  0.00  0.00    -0.354 OA
ATOM     15  C   UNL     1      -1.360  -1.045  25.251  0.00  0.00    +0.121 C 
ATOM     30  C   UNL     1      -1.124  -1.795  24.996  0.00  0.00    +0.033 C 
ATOM     31  C   UNL     1      -1.675  -2.305  24.653  0.00  0.00    +0.038 C 
ATOM     32  C   UNL     1      -2.459  -2.067  24.563  0.00  0.00    +0.181 C 
ATOM     33  O   UNL     1      -3.009  -2.576  24.219  0.00  0.00    -0.220 OA
ENDROOT
BRANCH  13  12
ATOM     12  C   UNL     1      -3.479  -1.079  24.728  0.00  0.00    +0.147 C 
BRANCH  12  11
ATOM      9  C   UNL     1      -4.428  -0.020  24.591  0.00  0.00    +0.265 C 
ATOM     10  O   UNL     1      -4.967  -0.546  24.254  0.00  0.00    -0.268 OA
ATOM     11  N   UNL     1      -3.684  -0.287  24.828  0.00  0.00    -0.199 NA
BRANCH   9   6
ATOM      3  C   UNL     1      -5.045   2.358  24.890  0.00  0.00    +0.139 A 
ATOM      4  C   UNL     1      -4.545   2.136  24.272  0.00  0.00    +0.037 A 
ATOM      5  C   UNL     1      -4.339   1.344  24.172  0.00  0.00    +0.008 A 
ATOM      6  C   UNL     1      -4.633   0.772  24.690  0.00  0.00    +0.055 A 
ATOM      7  C   UNL     1      -5.134   0.995  25.308  0.00  0.00    +0.008 A 
ATOM      8  C   UNL     1      -5.339   1.788  25.408  0.00  0.00    +0.037 A 
BRANCH   3   2
ATOM      1  C   UNL     1      -5.460   3.432  25.736  0.00  0.00    +0.252 C 
ATOM      2  O   UNL     1      -5.250   3.151  24.989  0.00  0.00    -0.471 OA
ENDBRANCH   3   2
ENDBRANCH   9   6
ENDBRANCH  12  11
ENDBRANCH  13  12
BRANCH  15  16
ATOM     16  C   UNL     1      -0.810  -0.536  25.595  0.00  0.00    +0.079 C 
BRANCH  16  17
ATOM     17  C   UNL     1      -0.623   0.178  25.226  0.00  0.00    +0.103 A 
ATOM     18  N   UNL     1      -0.272   0.264  24.485  0.00  0.00    -0.082 NA
ATOM     19  O   UNL     1      -0.187   1.070  24.335  0.00  0.00    -0.354 OA
ATOM     20  C   UNL     1      -0.485   1.483  24.984  0.00  0.00    +0.198 A 
ATOM     29  C   UNL     1      -0.755   0.932  25.535  0.00  0.00    +0.057 A 
BRANCH  20  21
ATOM     21  C   UNL     1      -0.508   2.304  25.067  0.00  0.00    +0.272 C 
BRANCH  21  22
ATOM     22  O   UNL     1      -1.142   2.732  24.756  0.00  0.00    -0.467 OA
BRANCH  22  23
ATOM     23  C   UNL     1      -1.196   3.544  24.890  0.00  0.00    +0.139 A 
ATOM     24  C   UNL     1      -0.623   4.052  24.580  0.00  0.00    +0.037 A 
ATOM     25  C   UNL     1      -0.677   4.864  24.714  0.00  0.00    +0.003 A 
ATOM     26  C   UNL     1      -1.303   5.169  25.158  0.00  0.00    +0.000 A 
ATOM     27  C   UNL     1      -1.875   4.661  25.467  0.00  0.00    +0.003 A 
ATOM     28  C   UNL     1      -1.821   3.849  25.333  0.00  0.00    +0.037 A 
ENDBRANCH  22  23
ENDBRANCH  21  22
ENDBRANCH  20  21
ENDBRANCH  16  17
ENDBRANCH  15  16
TORSDOF 9
ENDMDL
MODEL 4
REMARK VINA RESULT:     -10.9      1.245      4.262
REMARK  Name = 
REMARK  9 active torsions:
REMARK  status: ('A' for Active; 'I' for Inactive)
REMARK    1  A    between atoms: O_2  and  C_3
REMARK    2  A    between atoms: C_6  and  C_9
REMARK    3  A    between atoms: N_11  and  C_12
REMARK    4  A    between atoms: C_12  and  C_13
REMARK    5  A    between atoms: C_15  and  C_16
REMARK    6  A    between atoms: C_16  and  C_17
REMARK    7  A    between atoms: C_20  and  C_21
REMARK    8  A    between atoms: C_21  and  O_22
REMARK    9  A    between atoms: O_22  and  C_23
REMARK                            x       y       z     vdW  Elec       q    Type
REMARK                         _______ _______ _______ _____ _____    ______ ____
ROOT
ATOM     13  C   UNL     1      -1.047  -0.902  24.603  0.00  0.00    +0.167 C 
ATOM     14  O   UNL     1      -1.831  -0.793  24.373  0.00  0.00    -0.354 OA
ATOM     15  C   UNL     1      -2.375  -1.409  24.451  0.00  0.00    +0.121 C 
ATOM     30  C   UNL     1      -2.133  -2.136  24.760  0.00  0.00    +0.033 C 
ATOM     31  C   UNL     1      -1.348  -2.245  24.990  0.00  0.00    +0.038 C 
ATOM     32  C   UNL     1      -0.805  -1.629  24.912  0.00  0.00    +0.181 C 
ATOM     33  O   UNL     1      -0.020  -1.738  25.142  0.00  0.00    -0.220 OA
ENDROOT
BRANCH  13  12
ATOM     12  C   UNL     1      -0.504  -0.286  24.526  0.00  0.00    +0.147 C 
BRANCH  12  11
ATOM      9  C   UNL     1      -0.241   1.118  24.539  0.00  0.00    +0.265 C 
ATOM     10  O   UNL     1       0.427   0.998  24.070  0.00  0.00    -0.268 OA
ATOM     11  N   UNL     1      -0.707   0.476  24.766  0.00  0.00    -0.199 NA
BRANCH   9   6
ATOM      3  C   UNL     1      -0.849   3.406  25.262  0.00  0.00    +0.139 A 
ATOM      4  C   UNL     1      -0.925   3.190  24.468  0.00  0.00    +0.037 A 
ATOM      5  C   UNL     1      -0.722   2.428  24.227  0.00  0.00    +0.008 A 
ATOM      6  C   UNL     1      -0.444   1.881  24.779  0.00  0.00    +0.055 A 
ATOM      7  C   UNL     1      -0.369   2.097  25.573  0.00  0.00    +0.008 A 
ATOM      8  C   UNL     1      -0.572   2.860  25.813  0.00  0.00    +0.037 A 
BRANCH   3   2
ATOM      1  C   UNL     1      -0.989   4.798  24.972  0.00  0.00    +0.252 C 
ATOM      2  O   UNL     1      -1.052   4.169  25.502  0.00  0.00    -0.471 OA
ENDBRANCH   3   2
ENDBRANCH   9   6
ENDBRANCH  12  11
ENDBRANCH  13  12
BRANCH  15  16
ATOM     16  C   UNL     1      -3.159  -1.300  24.221  0.00  0.00    +0.079 C 
BRANCH  16  17
ATOM     17  C   UNL     1      -3.642  -0.777  24.639  0.00  0.00    +0.103 A 
ATOM     18  N   UNL     1      -3.982  -0.916  25.377  0.00  0.00    -0.082 NA
ATOM     19  O   UNL     1      -4.420  -0.250  25.586  0.00  0.00    -0.354 OA
ATOM     20  C   UNL     1      -4.350   0.302  24.976  0.00  0.00    +0.198 A 
ATOM     29  C   UNL     1      -3.870  -0.024  24.391  0.00  0.00    +0.057 A 
BRANCH  20  21
ATOM     21  C   UNL     1      -4.701   1.049  24.956  0.00  0.00    +0.272 C 
BRANCH  21  22
ATOM     22  O   UNL     1      -4.323   1.692  25.309  0.00  0.00    -0.467 OA
BRANCH  22  23
ATOM     23  C   UNL     1      -4.692   2.429  25.325  0.00  0.00    +0.139 A 
ATOM     24  C   UNL     1      -5.418   2.518  25.709  0.00  0.00    +0.037 A 
ATOM     25  C   UNL     1      -5.787   3.256  25.725  0.00  0.00    +0.003 A 
ATOM     26  C   UNL     1      -5.432   3.904  25.358  0.00  0.00    +0.000 A 
ATOM     27  C   UNL     1      -4.707   3.814  24.975  0.00  0.00    +0.003 A 
ATOM     28  C   UNL     1      -4.337   3.077  24.959  0.00  0.00    +0.037 A 
ENDBRANCH  22  23
ENDBRANCH  21  22
ENDBRANCH  20  21
ENDBRANCH  16  17
ENDBRANCH  15  16
TORSDOF 9
ENDMDL
MODEL 5
REMARK VINA RESULT:     -10.7      0.967      3.529
REMARK  Name = 
REMARK  9 active torsions:
REMARK  status: ('A' for Active; 'I' for Inactive)
REMARK    1  A    between atoms: O_2  and  C_3
REMARK    2  A    between atoms: C_6  and  C_9
REMARK    3  A    between atoms: N_11  and  C_12
REMARK    4  A    between atoms: C_12  and  C_13
REMARK    5  A    between atoms: C_15  and  C_16
REMARK    6  A    between atoms: C_16  and  C_17
REMARK    7  A    between atoms: C_20  and  C_21
REMARK    8  A    between atoms: C_21  and  O_22
REMARK    9  A    between atoms: O_22  and  C_23
REMARK                            x       y       z     vdW  Elec       q    Type
REMARK                         _______ _______ _______ _____ _____    ______ ____
ROOT
ATOM     13  C   UNL     1      -3.404   3.407  25.266  0.00  0.00    +0.167 C 
ATOM     14  O   UNL     1      -2.645   3.322  24.956  0.00  0.00    -0.354 OA
ATOM     15  C   UNL     1      -2.038   3.821  25.208  0.00  0.00    +0.121 C 
ATOM     30  C   UNL     1      -2.191   4.405  25.771  0.00  0.00    +0.033 C 
ATOM     31  C   UNL     1      -2.951   4.490  26.080  0.00  0.00    +0.038 C 
ATOM     32  C   UNL     1      -3.557   3.992  25.829  0.00  0.00    +0.181 C 
ATOM     33  O   UNL     1      -4.318   4.077  26.138  0.00  0.00    -0.220 OA
ENDROOT
BRANCH  13  12
ATOM     12  C   UNL     1      -4.012   2.909  25.014  0.00  0.00    +0.147 C 
BRANCH  12  11
ATOM      9  C   UNL     1      -4.474   1.601  24.670  0.00  0.00    +0.265 C 
ATOM     10  O   UNL     1      -5.174   1.925  24.377  0.00  0.00    -0.268 OA
ATOM     11  N   UNL     1      -3.894   2.094  24.989  0.00  0.00    -0.199 NA
BRANCH   9   6
ATOM      3  C   UNL     1      -4.119  -0.847  24.596  0.00  0.00    +0.139 A 
ATOM      4  C   UNL     1      -4.054  -0.399  23.905  0.00  0.00    +0.037 A 
ATOM      5  C   UNL     1      -4.173   0.416  23.930  0.00  0.00    +0.008 A 
ATOM      6  C   UNL     1      -4.356   0.786  24.645  0.00  0.00    +0.055 A 
ATOM      7  C   UNL     1      -4.421   0.338  25.336  0.00  0.00    +0.008 A 
ATOM      8  C   UNL     1      -4.302  -0.478  25.311  0.00  0.00    +0.037 A 
BRANCH   3   2
ATOM      1  C   UNL     1      -4.125  -2.076  23.867  0.00  0.00    +0.252 C 
ATOM      2  O   UNL     1      -4.000  -1.663  24.571  0.00  0.00    -0.471 OA
ENDBRANCH   3   2
ENDBRANCH   9   6
ENDBRANCH  12  11
ENDBRANCH  13  12
BRANCH  15  16
ATOM     16  C   UNL     1      -1.279   3.735  24.898  0.00  0.00    +0.079 C 
BRANCH  16  17
ATOM     17  C   UNL     1      -0.818   3.084  25.108  0.00  0.00    +0.103 A 
ATOM     18  N   UNL     1      -0.212   3.079  25.668  0.00  0.00    -0.082 NA
ATOM     19  O   UNL     1       0.097   2.315  25.701  0.00  0.00    -0.354 OA
ATOM     20  C   UNL     1      -0.318   1.848  25.163  0.00  0.00    +0.198 A 
ATOM     29  C   UNL     1      -0.883   2.323  24.796  0.00  0.00    +0.057 A 
BRANCH  20  21
ATOM     21  C   UNL     1      -0.189   1.046  25.016  0.00  0.00    +0.272 C 
BRANCH  21  22
ATOM     22  O   UNL     1      -0.743   0.487  25.264  0.00  0.00    -0.467 OA
BRANCH  22  23
ATOM     23  C   UNL     1      -0.641  -0.308  25.071  0.00  0.00    +0.139 A 
ATOM     24  C   UNL     1      -0.733  -0.889  25.651  0.00  0.00    +0.037 A 
ATOM     25  C   UNL     1      -0.631  -1.684  25.458  0.00  0.00    +0.003 A 
ATOM     26  C   UNL     1      -0.436  -1.900  24.685  0.00  0.00    +0.000 A 
ATOM     27  C   UNL     1      -0.344  -1.319  24.106  0.00  0.00    +0.003 A 
ATOM     28  C   UNL     1      -0.446  -0.524  24.299  0.00  0.00    +0.037 A 
ENDBRANCH  22  23
ENDBRANCH  21  22
ENDBRANCH  20  21
ENDBRANCH  16  17
ENDBRANCH  15  16
TORSDOF 9
ENDMDL
