MODEL 1
REMARK VINA RESULT:     -11.6      0.000      0.000
REMARK  Name = 
REMARK  7 active torsions:
REMARK  status: ('A' for Active; 'I' for Inactive)
REMARK    1  A    between atoms: O_2  and  C_3
REMARK    2  A    between atoms: C_6  and  C_7
REMARK    3  A    between atoms: C_7  and  N_8
REMARK    4  A    between atoms: N_8  and  C_9
REMARK    5  A    between atoms: C_14  and  C_15
REMARK    6  A    between atoms: C_15  and  C_16
REMARK    7  A    between atoms: C_16  and  C_17
REMARK                            x       y       z     vdW  Elec       q    Type
REMARK                         _______ _______ _______ _____ _____    ______ ____
ROOT
ATOM      9  C   UNL     1      -4.699   1.234  24.906  0.00  0.00    +0.091 C 
ATOM     10  C   UNL     1      -5.361   1.528  25.301  0.00  0.00    +0.044 C 
ATOM     11  C   UNL     1      -5.236   2.330  25.446  0.00  0.00    +0.138 C 
ATOM     12  N   UNL     1      -4.496   2.533  25.141  0.00  0.00    -0.265 NA
ATOM     13  C   UNL     1      -4.164   1.856  24.807  0.00  0.00    +0.090 C 
ATOM     14  C   UNL     1      -4.222   3.308  25.206  0.00  0.00    +0.080 C 
ATOM     26  C   UNL     1      -4.685   3.880  25.577  0.00  0.00    +0.131 C 
ATOM     27  N   UNL     1      -5.425   3.678  25.882  0.00  0.00    -0.203 NA
ATOM     28  C   UNL     1      -5.700   2.903  25.817  0.00  0.00    +0.256 C 
ATOM     29  O   UNL     1      -6.440   2.701  26.122  0.00  0.00    -0.272 OA
ENDROOT
BRANCH   9   8
ATOM      8  N   UNL     1      -4.590   0.456  24.655  0.00  0.00    -0.213 NA
BRANCH   8   7
ATOM      7  C   UNL     1      -4.417  -0.135  25.204  0.00  0.00    +0.115 C 
BRANCH   7   6
ATOM      3  C   UNL     1      -3.255  -2.197  24.480  0.00  0.00    +0.139 A 
ATOM      4  C   UNL     1      -3.019  -1.810  25.170  0.00  0.00    +0.037 A 
ATOM      5  C   UNL     1      -3.407  -1.123  25.411  0.00  0.00    +0.000 A 
ATOM      6  C   UNL     1      -4.030  -0.822  24.963  0.00  0.00    -0.005 A 
ATOM     30  C   UNL     1      -4.266  -1.208  24.273  0.00  0.00    +0.000 A 
ATOM     31  C   UNL     1      -3.879  -1.895  24.032  0.00  0.00    +0.037 A 
BRANCH   3   2
ATOM      1  C   UNL     1      -2.043  -2.920  24.257  0.00  0.00    +0.252 C 
ATOM      2  O   UNL     1      -2.867  -2.884  24.239  0.00  0.00    -0.471 OA
ENDBRANCH   3   2
ENDBRANCH   7   6
ENDBRANCH   8   7
ENDBRANCH   9   8
BRANCH  14  15
ATOM     15  C   UNL     1      -3.482   3.510  24.901  0.00  0.00    +0.027 C 
BRANCH  15  16
ATOM     16  C   UNL     1      -2.852   3.659  25.412  0.00  0.00    +0.087 C 
BRANCH  16  17
ATOM     17  C   UNL     1      -2.128   3.917  25.110  0.00  0.00    +0.226 C 
ATOM     18  O   UNL     1      -2.108   4.517  24.546  0.00  0.00    -0.275 OA
ATOM     19  N   UNL     1      -1.426   3.574  25.373  0.00  0.00    -0.279 N 
ATOM     20  C   UNL     1      -0.703   3.832  25.072  0.00  0.00    +0.096 C 
ATOM     21  C   UNL     1       0.000   3.489  25.335  0.00  0.00    +0.054 C 
ATOM     22  C   UNL     1      -0.021   2.888  25.900  0.00  0.00    +0.155 C 
ATOM     23  O   UNL     1       0.682   2.545  26.163  0.00  0.00    -0.223 OA
ATOM     24  C   UNL     1      -0.744   2.630  26.201  0.00  0.00    +0.054 C 
ATOM     25  C   UNL     1      -1.446   2.973  25.938  0.00  0.00    +0.096 C 
ENDBRANCH  16  17
ENDBRANCH  15  16
ENDBRANCH  14  15
TORSDOF 7
ENDMDL
MODEL 2
REMARK VINA RESULT:     -10.4      2.429      4.808
REMARK  Name = 
REMARK  7 active torsions:
REMARK  status: ('A' for Active; 'I' for Inactive)
REMARK    1  A    between atoms: O_2  and  C_3
REMARK    2  A    between atoms: C_6  and  C_7
REMARK    3  A    between atoms: C_7  and  N_8
REMARK    4  A    between atoms: N_8  and  C_9
REMARK    5  A    between atoms: C_14  and  C_15
REMARK    6  A    between atoms: C_15  and  C_16
REMARK    7  A    between atoms: C_16  and  C_17
REMARK                            x       y       z     vdW  Elec       q    Type
REMARK                         _______ _______ _______ _____ _____    ______ ____
ROOT
ATOM      9  C   UNL     1      -3.785  -0.348  25.012  0.00  0.00    +0.091 C 
ATOM     10  C   UNL     1      -3.922  -1.148  24.867  0.00  0.00    +0.044 C 
ATOM     11  C   UNL     1      -3.193  -1.516  24.754  0.00  0.00    +0.138 C 
ATOM     12  N   UNL     1      -2.604  -0.943  24.828  0.00  0.00    -0.265 NA
ATOM     13  C   UNL     1      -2.969  -0.221  24.988  0.00  0.00    +0.090 C 
ATOM     14  C   UNL     1      -1.811  -1.153  24.741  0.00  0.00    +0.080 C 
ATOM     26  C   UNL     1      -1.607  -1.935  24.580  0.00  0.00    +0.131 C 
ATOM     27  N   UNL     1      -2.195  -2.508  24.505  0.00  0.00    -0.203 NA
ATOM     28  C   UNL     1      -2.989  -2.299  24.592  0.00  0.00    +0.256 C 
ATOM     29  O   UNL     1      -3.577  -2.872  24.517  0.00  0.00    -0.272 OA
ENDROOT
BRANCH   9   8
ATOM      8  N   UNL     1      -4.361   0.225  25.155  0.00  0.00    -0.213 NA
BRANCH   8   7
ATOM      7  C   UNL     1      -4.394   0.903  24.688  0.00  0.00    +0.115 C 
BRANCH   7   6
ATOM      3  C   UNL     1      -5.505   2.944  25.541  0.00  0.00    +0.139 A 
ATOM      4  C   UNL     1      -5.940   2.251  25.432  0.00  0.00    +0.037 A 
ATOM      5  C   UNL     1      -5.569   1.571  25.148  0.00  0.00    +0.000 A 
ATOM      6  C   UNL     1      -4.764   1.584  24.972  0.00  0.00    -0.005 A 
ATOM     30  C   UNL     1      -4.328   2.276  25.081  0.00  0.00    +0.000 A 
ATOM     31  C   UNL     1      -4.698   2.956  25.365  0.00  0.00    +0.037 A 
BRANCH   3   2
ATOM      1  C   UNL     1      -5.726   4.353  25.470  0.00  0.00    +0.252 C 
ATOM      2  O   UNL     1      -5.875   3.624  25.826  0.00  0.00    -0.471 OA
ENDBRANCH   3   2
ENDBRANCH   7   6
ENDBRANCH   8   7
ENDBRANCH   9   8
BRANCH  14  15
ATOM     15  C   UNL     1      -1.222  -0.580  24.816  0.00  0.00    +0.027 C 
BRANCH  15  16
ATOM     16  C   UNL     1      -0.615  -0.537  24.260  0.00  0.00    +0.087 C 
BRANCH  16  17
ATOM     17  C   UNL     1      -0.104   0.110  24.255  0.00  0.00    +0.226 C 
ATOM     18  O   UNL     1      -0.224   0.734  24.781  0.00  0.00    -0.275 OA
ATOM     19  N   UNL     1       0.527   0.134  23.725  0.00  0.00    -0.279 N 
ATOM     20  C   UNL     1       1.038   0.782  23.720  0.00  0.00    +0.096 C 
ATOM     21  C   UNL     1       1.669   0.806  23.189  0.00  0.00    +0.054 C 
ATOM     22  C   UNL     1       1.789   0.182  22.663  0.00  0.00    +0.155 C 
ATOM     23  O   UNL     1       2.420   0.206  22.131  0.00  0.00    -0.223 OA
ATOM     24  C   UNL     1       1.278  -0.466  22.667  0.00  0.00    +0.054 C 
ATOM     25  C   UNL     1       0.647  -0.490  23.198  0.00  0.00    +0.096 C 
ENDBRANCH  16  17
ENDBRANCH  15  16
ENDBRANCH  14  15
TORSDOF 7
ENDMDL
MODEL 3
REMARK VINA RESULT:     -10.4      1.405      3.799
REMARK  Name = 
REMARK  7 active torsions:
REMARK  status: ('A' for Active; 'I' for Inactive)
REMARK    1  A    between atoms: O_2  and  C_3
REMARK    2  A    between atoms: C_6  and  C_7
REMARK    3  A    between atoms: C_7  and  N_8
REMARK    4  A    between atoms: N_8  and  C_9
REMARK    5  A    between atoms: C_14  and  C_15
REMARK    6  A    between atoms: C_15  and  C_16
REMARK    7  A    between atoms: C_16  and  C_17
REMARK                            x       y       z     vdW  Elec       q    Type
REMARK                         _______ _______ _______ _____ _____    ______ ____
ROOT
ATOM      9  C   UNL     1      -0.940   0.584  25.060  0.00  0.00    +0.091 C 
ATOM     10  C   UNL     1      -0.266   0.898  24.703  0.00  0.00    +0.044 C 
ATOM     11  C   UNL     1      -0.315   1.720  24.745  0.00  0.00    +0.138 C 
ATOM     12  N   UNL     1      -1.019   1.915  25.128  0.00  0.00    -0.265 NA
ATOM     13  C   UNL     1      -1.406   1.213  25.323  0.00  0.00    +0.090 C 
ATOM     14  C   UNL     1      -1.217   2.706  25.250  0.00  0.00    +0.080 C 
ATOM     26  C   UNL     1      -0.712   3.303  24.988  0.00  0.00    +0.131 C 
ATOM     27  N   UNL     1      -0.008   3.109  24.605  0.00  0.00    -0.203 NA
ATOM     28  C   UNL     1       0.191   2.318  24.483  0.00  0.00    +0.256 C 
ATOM     29  O   UNL     1       0.895   2.123  24.099  0.00  0.00    -0.272 OA
ENDROOT
BRANCH   9   8
ATOM      8  N   UNL     1      -1.117  -0.218  25.141  0.00  0.00    -0.213 NA
BRANCH   8   7
ATOM      7  C   UNL     1      -1.761  -0.454  25.599  0.00  0.00    +0.115 C 
BRANCH   7   6
ATOM      3  C   UNL     1      -3.153  -2.371  24.883  0.00  0.00    +0.139 A 
ATOM      4  C   UNL     1      -3.491  -1.752  25.310  0.00  0.00    +0.037 A 
ATOM      5  C   UNL     1      -3.027  -1.113  25.548  0.00  0.00    +0.000 A 
ATOM      6  C   UNL     1      -2.225  -1.093  25.360  0.00  0.00    -0.005 A 
ATOM     30  C   UNL     1      -1.885  -1.712  24.933  0.00  0.00    +0.000 A 
ATOM     31  C   UNL     1      -2.349  -2.351  24.694  0.00  0.00    +0.037 A 
BRANCH   3   2
ATOM      1  C   UNL     1      -4.069  -2.957  23.956  0.00  0.00    +0.252 C 
ATOM      2  O   UNL     1      -3.617  -3.010  24.644  0.00  0.00    -0.471 OA
ENDBRANCH   3   2
ENDBRANCH   7   6
ENDBRANCH   8   7
ENDBRANCH   9   8
BRANCH  14  15
ATOM     15  C   UNL     1      -1.921   2.901  25.633  0.00  0.00    +0.027 C 
BRANCH  15  16
ATOM     16  C   UNL     1      -2.574   3.152  25.196  0.00  0.00    +0.087 C 
BRANCH  16  17
ATOM     17  C   UNL     1      -3.241   3.447  25.582  0.00  0.00    +0.226 C 
ATOM     18  O   UNL     1      -3.160   4.036  26.153  0.00  0.00    -0.275 OA
ATOM     19  N   UNL     1      -3.988   3.152  25.396  0.00  0.00    -0.279 N 
ATOM     20  C   UNL     1      -4.655   3.446  25.782  0.00  0.00    +0.096 C 
ATOM     21  C   UNL     1      -5.404   3.151  25.597  0.00  0.00    +0.054 C 
ATOM     22  C   UNL     1      -5.484   2.562  25.025  0.00  0.00    +0.155 C 
ATOM     23  O   UNL     1      -6.232   2.266  24.840  0.00  0.00    -0.223 OA
ATOM     24  C   UNL     1      -4.817   2.267  24.639  0.00  0.00    +0.054 C 
ATOM     25  C   UNL     1      -4.070   2.562  24.825  0.00  0.00    +0.096 C 
ENDBRANCH  16  17
ENDBRANCH  15  16
ENDBRANCH  14  15
TORSDOF 7
ENDMDL
MODEL 4
REMARK VINA RESULT:     -10.3      1.152      5.039
REMARK  Name = 
REMARK  7 active torsions:
REMARK  status: ('A' for Active; 'I' for Inactive)
REMARK    1  A    between atoms: O_2  and  C_3
REMARK    2  A    between atoms: C_6  and  C_7
REMARK    3  A    between atoms: C_7  and  N_8
REMARK    4  A    between atoms: N_8  and  C_9
REMARK    5  A    between atoms: C_14  and  C_15
REMARK    6  A    between atoms: C_15  and  C_16
REMARK    7  A    between atoms: C_16  and  C_17
REMARK                            x       y       z     vdW  Elec       q    Type
REMARK                         _______ _______ _______ _____ _____    ______ ____
ROOT
ATOM      9  C   UNL     1      -4.151   3.323  25.387  0.00  0.00    +0.091 C 
ATOM     10  C   UNL     1      -4.842   3.368  25.835  0.00  0.00    +0.044 C 
ATOM     11  C   UNL     1      -5.243   2.652  25.757  0.00  0.00    +0.138 C 
ATOM     12  N   UNL     1      -4.800   2.164  25.260  0.00  0.00    -0.265 NA
ATOM     13  C   UNL     1      -4.125   2.578  25.032  0.00  0.00    +0.090 C 
ATOM     14  C   UNL     1      -5.070   1.405  25.081  0.00  0.00    +0.080 C 
ATOM     26  C   UNL     1      -5.781   1.134  25.397  0.00  0.00    +0.131 C 
ATOM     27  N   UNL     1      -6.224   1.621  25.893  0.00  0.00    -0.203 NA
ATOM     28  C   UNL     1      -5.956   2.380  26.074  0.00  0.00    +0.256 C 
ATOM     29  O   UNL     1      -6.399   2.868  26.570  0.00  0.00    -0.272 OA
ENDROOT
BRANCH   9   8
ATOM      8  N   UNL     1      -3.585   3.918  25.308  0.00  0.00    -0.213 NA
BRANCH   8   7
ATOM      7  C   UNL     1      -2.905   3.906  25.776  0.00  0.00    +0.115 C 
BRANCH   7   6
ATOM      3  C   UNL     1      -0.785   4.839  24.905  0.00  0.00    +0.139 A 
ATOM      4  C   UNL     1      -1.439   5.331  25.015  0.00  0.00    +0.037 A 
ATOM      5  C   UNL     1      -2.145   5.020  25.305  0.00  0.00    +0.000 A 
ATOM      6  C   UNL     1      -2.199   4.217  25.486  0.00  0.00    -0.005 A 
ATOM     30  C   UNL     1      -1.546   3.724  25.376  0.00  0.00    +0.000 A 
ATOM     31  C   UNL     1      -0.839   4.036  25.086  0.00  0.00    +0.037 A 
BRANCH   3   2
ATOM      1  C   UNL     1       0.169   4.967  23.849  0.00  0.00    +0.252 C 
ATOM      2  O   UNL     1      -0.079   5.151  24.615  0.00  0.00    -0.471 OA
ENDBRANCH   3   2
ENDBRANCH   7   6
ENDBRANCH   8   7
ENDBRANCH   9   8
BRANCH  14  15
ATOM     15  C   UNL     1      -4.627   0.917  24.584  0.00  0.00    +0.027 C 
BRANCH  15  16
ATOM     16  C   UNL     1      -4.444   0.147  24.817  0.00  0.00    +0.087 C 
BRANCH  16  17
ATOM     17  C   UNL     1      -4.129  -0.385  24.272  0.00  0.00    +0.226 C 
ATOM     18  O   UNL     1      -4.111  -0.192  23.470  0.00  0.00    -0.275 OA
ATOM     19  N   UNL     1      -3.832  -1.110  24.528  0.00  0.00    -0.279 N 
ATOM     20  C   UNL     1      -3.516  -1.643  23.983  0.00  0.00    +0.096 C 
ATOM     21  C   UNL     1      -3.218  -2.369  24.240  0.00  0.00    +0.054 C 
ATOM     22  C   UNL     1      -3.237  -2.561  25.042  0.00  0.00    +0.155 C 
ATOM     23  O   UNL     1      -2.940  -3.287  25.298  0.00  0.00    -0.223 OA
ATOM     24  C   UNL     1      -3.553  -2.029  25.587  0.00  0.00    +0.054 C 
ATOM     25  C   UNL     1      -3.850  -1.304  25.330  0.00  0.00    +0.096 C 
ENDBRANCH  16  17
ENDBRANCH  15  16
ENDBRANCH  14  15
TORSDOF 7
ENDMDL
MODEL 5
REMARK VINA RESULT:     -10.1      1.571      4.004
REMARK  Name = 
REMARK  7 active torsions:
REMARK  status: ('A' for Active; 'I' for Inactive)
REMARK    1  A    between atoms: O_2  and  C_3
REMARK    2  A    between atoms: C_6  and  C_7
REMARK    3  A    between atoms: C_7  and  N_8
REMARK    4  A    between atoms: N_8  and  C_9
REMARK    5  A    between atoms: C_14  and  C_15
REMARK    6  A    between atoms: C_15  and  C_16
REMARK    7  A    between atoms: C_16  and  C_17
REMARK                            x       y       z     vdW  Elec       q    Type
REMARK                         _______ _______ _______ _____ _____    ______ ____
ROOT
ATOM      9  C   UNL     1      -0.889   2.434  25.060  0.00  0.00    +0.091 C 
ATOM     10  C   UNL     1      -0.476   3.093  24.786  0.00  0.00    +0.044 C 
ATOM     11  C   UNL     1      -0.926   3.763  24.955  0.00  0.00    +0.138 C 
ATOM     12  N   UNL     1      -1.618   3.518  25.332  0.00  0.00    -0.265 NA
ATOM     13  C   UNL     1      -1.595   2.696  25.398  0.00  0.00    +0.090 C 
ATOM     14  C   UNL     1      -2.178   4.075  25.568  0.00  0.00    +0.080 C 
ATOM     26  C   UNL     1      -2.048   4.877  25.427  0.00  0.00    +0.131 C 
ATOM     27  N   UNL     1      -1.357   5.122  25.049  0.00  0.00    -0.203 NA
ATOM     28  C   UNL     1      -0.796   4.566  24.813  0.00  0.00    +0.256 C 
ATOM     29  O   UNL     1      -0.105   4.811  24.435  0.00  0.00    -0.272 OA
ENDROOT
BRANCH   9   8
ATOM      8  N   UNL     1      -0.640   1.649  25.005  0.00  0.00    -0.213 NA
BRANCH   8   7
ATOM      7  C   UNL     1      -0.914   1.170  24.391  0.00  0.00    +0.115 C 
BRANCH   7   6
ATOM      3  C   UNL     1      -1.057  -1.281  24.700  0.00  0.00    +0.139 A 
ATOM      4  C   UNL     1      -1.720  -0.809  24.833  0.00  0.00    +0.037 A 
ATOM      5  C   UNL     1      -1.673   0.009  24.730  0.00  0.00    +0.000 A 
ATOM      6  C   UNL     1      -0.962   0.353  24.494  0.00  0.00    -0.005 A 
ATOM     30  C   UNL     1      -0.298  -0.118  24.361  0.00  0.00    +0.000 A 
ATOM     31  C   UNL     1      -0.345  -0.935  24.464  0.00  0.00    +0.037 A 
BRANCH   3   2
ATOM      1  C   UNL     1      -1.782  -2.505  24.565  0.00  0.00    +0.252 C 
ATOM      2  O   UNL     1      -1.105  -2.098  24.803  0.00  0.00    -0.471 OA
ENDBRANCH   3   2
ENDBRANCH   7   6
ENDBRANCH   8   7
ENDBRANCH   9   8
BRANCH  14  15
ATOM     15  C   UNL     1      -2.869   3.830  25.946  0.00  0.00    +0.027 C 
BRANCH  15  16
ATOM     16  C   UNL     1      -3.572   3.765  25.520  0.00  0.00    +0.087 C 
BRANCH  16  17
ATOM     17  C   UNL     1      -4.283   3.622  25.914  0.00  0.00    +0.226 C 
ATOM     18  O   UNL     1      -4.446   4.010  26.623  0.00  0.00    -0.275 OA
ATOM     19  N   UNL     1      -4.830   3.092  25.599  0.00  0.00    -0.279 N 
ATOM     20  C   UNL     1      -5.540   2.949  25.993  0.00  0.00    +0.096 C 
ATOM     21  C   UNL     1      -6.088   2.419  25.677  0.00  0.00    +0.054 C 
ATOM     22  C   UNL     1      -5.925   2.031  24.968  0.00  0.00    +0.155 C 
ATOM     23  O   UNL     1      -6.472   1.500  24.652  0.00  0.00    -0.223 OA
ATOM     24  C   UNL     1      -5.214   2.174  24.573  0.00  0.00    +0.054 C 
ATOM     25  C   UNL     1      -4.667   2.704  24.889  0.00  0.00    +0.096 C 
ENDBRANCH  16  17
ENDBRANCH  15  16
ENDBRANCH  14  15
TORSDOF 7
ENDMDL
MODEL 6
REMARK VINA RESULT:     -10.1      1.634      4.335
REMARK  Name = 
REMARK  7 active torsions:
REMARK  status: ('A' for Active; 'I' for Inactive)
REMARK    1  A    between atoms: O_2  and  C_3
REMARK    2  A    between atoms: C_6  and  C_7
REMARK    3  A    between atoms: C_7  and  N_8
REMARK    4  A    between atoms: N_8  and  C_9
REMARK    5  A    between atoms: C_14  and  C_15
REMARK    6  A    between atoms: C_15  and  C_16
REMARK    7  A    between atoms: C_16  and  C_17
REMARK                            x       y       z     vdW  Elec       q    Type
REMARK                         _______ _______ _______ _____ _____    ______ ____
ROOT
ATOM      9  C   UNL     1      -3.924  -0.406  24.800  0.00  0.00    +0.091 C 
ATOM     10  C   UNL     1      -3.980  -1.204  25.000  0.00  0.00    +0.044 C 
ATOM     11  C   UNL     1      -3.247  -1.554  24.857  0.00  0.00    +0.138 C 
ATOM     12  N   UNL     1      -2.738  -0.972  24.569  0.00  0.00    -0.265 NA
ATOM     13  C   UNL     1      -3.156  -0.263  24.534  0.00  0.00    +0.090 C 
ATOM     14  C   UNL     1      -1.959  -1.165  24.377  0.00  0.00    +0.080 C 
ATOM     26  C   UNL     1      -1.689  -1.938  24.472  0.00  0.00    +0.131 C 
ATOM     27  N   UNL     1      -2.198  -2.520  24.760  0.00  0.00    -0.203 NA
ATOM     28  C   UNL     1      -2.977  -2.329  24.952  0.00  0.00    +0.256 C 
ATOM     29  O   UNL     1      -3.486  -2.911  25.240  0.00  0.00    -0.272 OA
ENDROOT
BRANCH   9   8
ATOM      8  N   UNL     1      -4.530   0.151  24.856  0.00  0.00    -0.213 NA
BRANCH   8   7
ATOM      7  C   UNL     1      -4.441   0.894  24.508  0.00  0.00    +0.115 C 
BRANCH   7   6
ATOM      3  C   UNL     1      -5.526   2.875  25.521  0.00  0.00    +0.139 A 
ATOM      4  C   UNL     1      -4.716   2.882  25.365  0.00  0.00    +0.037 A 
ATOM      5  C   UNL     1      -4.354   2.221  25.028  0.00  0.00    +0.000 A 
ATOM      6  C   UNL     1      -4.803   1.554  24.846  0.00  0.00    -0.005 A 
ATOM     30  C   UNL     1      -5.613   1.546  25.001  0.00  0.00    +0.000 A 
ATOM     31  C   UNL     1      -5.975   2.206  25.338  0.00  0.00    +0.037 A 
BRANCH   3   2
ATOM      1  C   UNL     1      -5.742   4.287  25.550  0.00  0.00    +0.252 C 
ATOM      2  O   UNL     1      -5.887   3.535  25.858  0.00  0.00    -0.471 OA
ENDBRANCH   3   2
ENDBRANCH   7   6
ENDBRANCH   8   7
ENDBRANCH   9   8
BRANCH  14  15
ATOM     15  C   UNL     1      -1.450  -0.583  24.089  0.00  0.00    +0.027 C 
BRANCH  15  16
ATOM     16  C   UNL     1      -0.906  -0.224  24.594  0.00  0.00    +0.087 C 
BRANCH  16  17
ATOM     17  C   UNL     1      -0.402   0.364  24.308  0.00  0.00    +0.226 C 
ATOM     18  O   UNL     1      -0.034   0.271  23.576  0.00  0.00    -0.275 OA
ATOM     19  N   UNL     1      -0.267   1.044  24.754  0.00  0.00    -0.279 N 
ATOM     20  C   UNL     1       0.237   1.631  24.468  0.00  0.00    +0.096 C 
ATOM     21  C   UNL     1       0.372   2.312  24.915  0.00  0.00    +0.054 C 
ATOM     22  C   UNL     1       0.003   2.405  25.647  0.00  0.00    +0.155 C 
ATOM     23  O   UNL     1       0.139   3.086  26.093  0.00  0.00    -0.223 OA
ATOM     24  C   UNL     1      -0.500   1.817  25.933  0.00  0.00    +0.054 C 
ATOM     25  C   UNL     1      -0.635   1.138  25.487  0.00  0.00    +0.096 C 
ENDBRANCH  16  17
ENDBRANCH  15  16
ENDBRANCH  14  15
TORSDOF 7
ENDMDL
MODEL 7
REMARK VINA RESULT:     -10.0      1.873      5.788
REMARK  Name = 
REMARK  7 active torsions:
REMARK  status: ('A' for Active; 'I' for Inactive)
REMARK    1  A    between atoms: O_2  and  C_3
REMARK    2  A    between atoms: C_6  and  C_7
REMARK    3  A    between atoms: C_7  and  N_8
REMARK    4  A    between atoms: N_8  and  C_9
REMARK    5  A    between atoms: C_14  and  C_15
REMARK    6  A    between atoms: C_15  and  C_16
REMARK    7  A    between atoms: C_16  and  C_17
REMARK                            x       y       z     vdW  Elec       q    Type
REMARK                         _______ _______ _______ _____ _____    ______ ____
ROOT
ATOM      9  C   UNL     1      -1.221   2.049  25.050  0.00  0.00    +0.091 C 
ATOM     10  C   UNL     1      -0.525   2.176  24.626  0.00  0.00    +0.044 C 
ATOM     11  C   UNL     1      -0.204   1.441  24.436  0.00  0.00    +0.138 C 
ATOM     12  N   UNL     1      -0.702   0.859  24.742  0.00  0.00    -0.265 NA
ATOM     13  C   UNL     1      -1.330   1.234  25.122  0.00  0.00    +0.090 C 
ATOM     14  C   UNL     1      -0.517   0.061  24.635  0.00  0.00    +0.080 C 
ATOM     26  C   UNL     1       0.163  -0.153  24.223  0.00  0.00    +0.131 C 
ATOM     27  N   UNL     1       0.661   0.429  23.917  0.00  0.00    -0.203 NA
ATOM     28  C   UNL     1       0.478   1.226  24.023  0.00  0.00    +0.256 C 
ATOM     29  O   UNL     1       0.975   1.809  23.716  0.00  0.00    -0.272 OA
ENDROOT
BRANCH   9   8
ATOM      8  N   UNL     1      -1.720   2.633  25.349  0.00  0.00    -0.213 NA
BRANCH   8   7
ATOM      7  C   UNL     1      -2.155   3.109  24.834  0.00  0.00    +0.115 C 
BRANCH   7   6
ATOM      3  C   UNL     1      -4.481   3.740  25.396  0.00  0.00    +0.139 A 
ATOM      4  C   UNL     1      -3.871   3.896  25.928  0.00  0.00    +0.037 A 
ATOM      5  C   UNL     1      -3.096   3.686  25.741  0.00  0.00    +0.000 A 
ATOM      6  C   UNL     1      -2.930   3.319  25.022  0.00  0.00    -0.005 A 
ATOM     30  C   UNL     1      -3.540   3.162  24.488  0.00  0.00    +0.000 A 
ATOM     31  C   UNL     1      -4.316   3.373  24.675  0.00  0.00    +0.037 A 
BRANCH   3   2
ATOM      1  C   UNL     1      -5.826   3.364  25.701  0.00  0.00    +0.252 C 
ATOM      2  O   UNL     1      -5.257   3.950  25.583  0.00  0.00    -0.471 OA
ENDBRANCH   3   2
ENDBRANCH   7   6
ENDBRANCH   8   7
ENDBRANCH   9   8
BRANCH  14  15
ATOM     15  C   UNL     1      -1.015  -0.521  24.942  0.00  0.00    +0.027 C 
BRANCH  15  16
ATOM     16  C   UNL     1      -1.486  -0.970  24.435  0.00  0.00    +0.087 C 
BRANCH  16  17
ATOM     17  C   UNL     1      -1.810  -1.683  24.696  0.00  0.00    +0.226 C 
ATOM     18  O   UNL     1      -1.371  -2.181  25.185  0.00  0.00    -0.275 OA
ATOM     19  N   UNL     1      -2.573  -1.895  24.468  0.00  0.00    -0.279 N 
ATOM     20  C   UNL     1      -2.898  -2.608  24.729  0.00  0.00    +0.096 C 
ATOM     21  C   UNL     1      -3.662  -2.821  24.501  0.00  0.00    +0.054 C 
ATOM     22  C   UNL     1      -4.101  -2.322  24.013  0.00  0.00    +0.155 C 
ATOM     23  O   UNL     1      -4.865  -2.535  23.785  0.00  0.00    -0.223 OA
ATOM     24  C   UNL     1      -3.776  -1.610  23.752  0.00  0.00    +0.054 C 
ATOM     25  C   UNL     1      -3.013  -1.397  23.980  0.00  0.00    +0.096 C 
ENDBRANCH  16  17
ENDBRANCH  15  16
ENDBRANCH  14  15
TORSDOF 7
ENDMDL
MODEL 8
REMARK VINA RESULT:      -9.9      2.975      5.159
REMARK  Name = 
REMARK  7 active torsions:
REMARK  status: ('A' for Active; 'I' for Inactive)
REMARK    1  A    between atoms: O_2  and  C_3
REMARK    2  A    between atoms: C_6  and  C_7
REMARK    3  A    between atoms: C_7  and  N_8
REMARK    4  A    between atoms: N_8  and  C_9
REMARK    5  A    between atoms: C_14  and  C_15
REMARK    6  A    between atoms: C_15  and  C_16
REMARK    7  A    between atoms: C_16  and  C_17
REMARK                            x       y       z     vdW  Elec       q    Type
REMARK                         _______ _______ _______ _____ _____    ______ ____
ROOT
ATOM      9  C   UNL     1      -0.514  -0.470  24.176  0.00  0.00    +0.091 C 
ATOM     10  C   UNL     1      -0.888  -1.171  24.395  0.00  0.00    +0.044 C 
ATOM     11  C   UNL     1      -1.663  -0.991  24.610  0.00  0.00    +0.138 C 
ATOM     12  N   UNL     1      -1.769  -0.177  24.525  0.00  0.00    -0.265 NA
ATOM     13  C   UNL     1      -1.059   0.145  24.257  0.00  0.00    +0.090 C 
ATOM     14  C   UNL     1      -2.498   0.164  24.703  0.00  0.00    +0.080 C 
ATOM     26  C   UNL     1      -3.122  -0.307  24.966  0.00  0.00    +0.131 C 
ATOM     27  N   UNL     1      -3.016  -1.120  25.051  0.00  0.00    -0.203 NA
ATOM     28  C   UNL     1      -2.287  -1.463  24.874  0.00  0.00    +0.256 C 
ATOM     29  O   UNL     1      -2.181  -2.277  24.959  0.00  0.00    -0.272 OA
ENDROOT
BRANCH   9   8
ATOM      8  N   UNL     1       0.267  -0.395  23.922  0.00  0.00    -0.213 NA
BRANCH   8   7
ATOM      7  C   UNL     1       0.447   0.084  23.274  0.00  0.00    +0.115 C 
BRANCH   7   6
ATOM      3  C   UNL     1       2.798   0.361  22.552  0.00  0.00    +0.139 A 
ATOM      4  C   UNL     1       2.311  -0.188  22.174  0.00  0.00    +0.037 A 
ATOM      5  C   UNL     1       1.528  -0.280  22.415  0.00  0.00    +0.000 A 
ATOM      6  C   UNL     1       1.230   0.176  23.034  0.00  0.00    -0.005 A 
ATOM     30  C   UNL     1       1.716   0.726  23.412  0.00  0.00    +0.000 A 
ATOM     31  C   UNL     1       2.499   0.818  23.172  0.00  0.00    +0.037 A 
BRANCH   3   2
ATOM      1  C   UNL     1       4.121   0.838  22.803  0.00  0.00    +0.252 C 
ATOM      2  O   UNL     1       3.581   0.454  22.311  0.00  0.00    -0.471 OA
ENDBRANCH   3   2
ENDBRANCH   7   6
ENDBRANCH   8   7
ENDBRANCH   9   8
BRANCH  14  15
ATOM     15  C   UNL     1      -2.604   0.978  24.617  0.00  0.00    +0.027 C 
BRANCH  15  16
ATOM     16  C   UNL     1      -3.306   1.332  24.867  0.00  0.00    +0.087 C 
BRANCH  16  17
ATOM     17  C   UNL     1      -3.379   2.154  24.864  0.00  0.00    +0.226 C 
ATOM     18  O   UNL     1      -2.744   2.622  24.624  0.00  0.00    -0.275 OA
ATOM     19  N   UNL     1      -4.085   2.506  25.101  0.00  0.00    -0.279 N 
ATOM     20  C   UNL     1      -4.158   3.328  25.098  0.00  0.00    +0.096 C 
ATOM     21  C   UNL     1      -4.865   3.681  25.335  0.00  0.00    +0.054 C 
ATOM     22  C   UNL     1      -5.500   3.211  25.575  0.00  0.00    +0.155 C 
ATOM     23  O   UNL     1      -6.207   3.564  25.812  0.00  0.00    -0.223 OA
ATOM     24  C   UNL     1      -5.427   2.389  25.578  0.00  0.00    +0.054 C 
ATOM     25  C   UNL     1      -4.721   2.037  25.341  0.00  0.00    +0.096 C 
ENDBRANCH  16  17
ENDBRANCH  15  16
ENDBRANCH  14  15
TORSDOF 7
ENDMDL
MODEL 9
REMARK VINA RESULT:      -9.0      2.402      4.094
REMARK  Name = 
REMARK  7 active torsions:
REMARK  status: ('A' for Active; 'I' for Inactive)
REMARK    1  A    between atoms: O_2  and  C_3
REMARK    2  A    between atoms: C_6  and  C_7
REMARK    3  A    between atoms: C_7  and  N_8
REMARK    4  A    between atoms: N_8  and  C_9
REMARK    5  A    between atoms: C_14  and  C_15
REMARK    6  A    between atoms: C_15  and  C_16
REMARK    7  A    between atoms: C_16  and  C_17
REMARK                            x       y       z     vdW  Elec       q    Type
REMARK                         _______ _______ _______ _____ _____    ______ ____
ROOT
ATOM      9  C   UNL     1      -0.445  -0.635  24.227  0.00  0.00    +0.091 C 
ATOM     10  C   UNL     1       0.216  -0.542  23.743  0.00  0.00    +0.044 C 
ATOM     11  C   UNL     1       0.492   0.229  23.833  0.00  0.00    +0.138 C 
ATOM     12  N   UNL     1       0.001   0.614  24.373  0.00  0.00    -0.265 NA
ATOM     13  C   UNL     1      -0.578   0.080  24.617  0.00  0.00    +0.090 C 
ATOM     14  C   UNL     1       0.146   1.401  24.573  0.00  0.00    +0.080 C 
ATOM     26  C   UNL     1       0.781   1.804  24.234  0.00  0.00    +0.131 C 
ATOM     27  N   UNL     1       1.271   1.419  23.694  0.00  0.00    -0.203 NA
ATOM     28  C   UNL     1       1.127   0.632  23.493  0.00  0.00    +0.256 C 
ATOM     29  O   UNL     1       1.618   0.247  22.953  0.00  0.00    -0.272 OA
ENDROOT
BRANCH   9   8
ATOM      8  N   UNL     1      -0.896  -1.322  24.307  0.00  0.00    -0.213 NA
BRANCH   8   7
ATOM      7  C   UNL     1      -1.481  -1.366  24.886  0.00  0.00    +0.115 C 
BRANCH   7   6
ATOM      3  C   UNL     1      -3.584  -2.589  24.431  0.00  0.00    +0.139 A 
ATOM      4  C   UNL     1      -2.857  -2.954  24.296  0.00  0.00    +0.037 A 
ATOM      5  C   UNL     1      -2.156  -2.546  24.448  0.00  0.00    +0.000 A 
ATOM      6  C   UNL     1      -2.182  -1.774  24.735  0.00  0.00    -0.005 A 
ATOM     30  C   UNL     1      -2.909  -1.408  24.870  0.00  0.00    +0.000 A 
ATOM     31  C   UNL     1      -3.610  -1.815  24.719  0.00  0.00    +0.037 A 
BRANCH   3   2
ATOM      1  C   UNL     1      -4.657  -2.918  23.547  0.00  0.00    +0.252 C 
ATOM      2  O   UNL     1      -4.285  -2.996  24.279  0.00  0.00    -0.471 OA
ENDBRANCH   3   2
ENDBRANCH   7   6
ENDBRANCH   8   7
ENDBRANCH   9   8
BRANCH  14  15
ATOM     15  C   UNL     1      -0.344   1.786  25.114  0.00  0.00    +0.027 C 
BRANCH  15  16
ATOM     16  C   UNL     1      -0.437   2.605  25.077  0.00  0.00    +0.087 C 
BRANCH  16  17
ATOM     17  C   UNL     1      -1.080   2.965  25.448  0.00  0.00    +0.226 C 
ATOM     18  O   UNL     1      -1.574   2.523  25.937  0.00  0.00    -0.275 OA
ATOM     19  N   UNL     1      -1.228   3.767  25.329  0.00  0.00    -0.279 N 
ATOM     20  C   UNL     1      -1.871   4.127  25.700  0.00  0.00    +0.096 C 
ATOM     21  C   UNL     1      -2.019   4.931  25.581  0.00  0.00    +0.054 C 
ATOM     22  C   UNL     1      -1.524   5.373  25.092  0.00  0.00    +0.155 C 
ATOM     23  O   UNL     1      -1.672   6.177  24.973  0.00  0.00    -0.223 OA
ATOM     24  C   UNL     1      -0.881   5.013  24.721  0.00  0.00    +0.054 C 
ATOM     25  C   UNL     1      -0.733   4.211  24.840  0.00  0.00    +0.096 C 
ENDBRANCH  16  17
ENDBRANCH  15  16
ENDBRANCH  14  15
TORSDOF 7
ENDMDL
MODEL 10
REMARK VINA RESULT:      -9.0      1.905      4.385
REMARK  Name = 
REMARK  7 active torsions:
REMARK  status: ('A' for Active; 'I' for Inactive)
REMARK    1  A    between atoms: O_2  and  C_3
REMARK    2  A    between atoms: C_6  and  C_7
REMARK    3  A    between atoms: C_7  and  N_8
REMARK    4  A    between atoms: N_8  and  C_9
REMARK    5  A    between atoms: C_14  and  C_15
REMARK    6  A    between atoms: C_15  and  C_16
REMARK    7  A    between atoms: C_16  and  C_17
REMARK                            x       y       z     vdW  Elec       q    Type
REMARK                         _______ _______ _______ _____ _____    ______ ____
ROOT
ATOM      9  C   UNL     1      -2.782   3.648  24.811  0.00  0.00    +0.091 C 
ATOM     10  C   UNL     1      -2.287   4.280  24.998  0.00  0.00    +0.044 C 
ATOM     11  C   UNL     1      -1.514   4.061  24.814  0.00  0.00    +0.138 C 
ATOM     12  N   UNL     1      -1.531   3.293  24.513  0.00  0.00    -0.265 NA
ATOM     13  C   UNL     1      -2.315   3.037  24.512  0.00  0.00    +0.090 C 
ATOM     14  C   UNL     1      -0.830   2.926  24.280  0.00  0.00    +0.080 C 
ATOM     26  C   UNL     1      -0.112   3.326  24.347  0.00  0.00    +0.131 C 
ATOM     27  N   UNL     1      -0.095   4.094  24.648  0.00  0.00    -0.203 NA
ATOM     28  C   UNL     1      -0.795   4.462  24.881  0.00  0.00    +0.256 C 
ATOM     29  O   UNL     1      -0.778   5.230  25.181  0.00  0.00    -0.272 OA
ENDROOT
BRANCH   9   8
ATOM      8  N   UNL     1      -3.602   3.629  24.907  0.00  0.00    -0.213 NA
BRANCH   8   7
ATOM      7  C   UNL     1      -4.050   3.056  24.518  0.00  0.00    +0.115 C 
BRANCH   7   6
ATOM      3  C   UNL     1      -6.022   2.059  25.632  0.00  0.00    +0.139 A 
ATOM      4  C   UNL     1      -5.592   1.620  25.081  0.00  0.00    +0.037 A 
ATOM      5  C   UNL     1      -4.935   1.952  24.710  0.00  0.00    +0.000 A 
ATOM      6  C   UNL     1      -4.707   2.724  24.889  0.00  0.00    -0.005 A 
ATOM     30  C   UNL     1      -5.136   3.164  25.440  0.00  0.00    +0.000 A 
ATOM     31  C   UNL     1      -5.794   2.832  25.811  0.00  0.00    +0.037 A 
BRANCH   3   2
ATOM      1  C   UNL     1      -6.655   1.555  26.810  0.00  0.00    +0.252 C 
ATOM      2  O   UNL     1      -6.680   1.726  26.003  0.00  0.00    -0.471 OA
ENDBRANCH   3   2
ENDBRANCH   7   6
ENDBRANCH   8   7
ENDBRANCH   9   8
BRANCH  14  15
ATOM     15  C   UNL     1      -0.847   2.158  23.980  0.00  0.00    +0.027 C 
BRANCH  15  16
ATOM     16  C   UNL     1      -0.499   1.541  24.402  0.00  0.00    +0.087 C 
BRANCH  16  17
ATOM     17  C   UNL     1      -0.330   0.826  24.026  0.00  0.00    +0.226 C 
ATOM     18  O   UNL     1      -0.018   0.826  23.263  0.00  0.00    -0.275 OA
ATOM     19  N   UNL     1      -0.472   0.113  24.414  0.00  0.00    -0.279 N 
ATOM     20  C   UNL     1      -0.303  -0.602  24.038  0.00  0.00    +0.096 C 
ATOM     21  C   UNL     1      -0.445  -1.316  24.426  0.00  0.00    +0.054 C 
ATOM     22  C   UNL     1      -0.756  -1.315  25.190  0.00  0.00    +0.155 C 
ATOM     23  O   UNL     1      -0.899  -2.030  25.578  0.00  0.00    -0.223 OA
ATOM     24  C   UNL     1      -0.926  -0.601  25.566  0.00  0.00    +0.054 C 
ATOM     25  C   UNL     1      -0.783   0.113  25.178  0.00  0.00    +0.096 C 
ENDBRANCH  16  17
ENDBRANCH  15  16
ENDBRANCH  14  15
TORSDOF 7
ENDMDL
