MODEL 1
REMARK VINA RESULT:      -8.8      0.000      0.000
REMARK  Name = 
REMARK  5 active torsions:
REMARK  status: ('A' for Active; 'I' for Inactive)
REMARK    1  A    between atoms: O_2  and  C_3
REMARK    2  A    between atoms: C_5  and  C_13
REMARK    3  A    between atoms: C_7  and  O_8
REMARK    4  A    between atoms: C_10  and  O_11
REMARK    5  A    between atoms: N_15  and  C_16
REMARK                            x       y       z     vdW  Elec       q    Type
REMARK                         _______ _______ _______ _____ _____    ______ ____
ROOT
ATOM      3  C   UNL     1      -3.202   3.230  25.230  0.00  0.00    +0.176 A 
ATOM      4  C   UNL     1      -3.430   2.513  24.892  0.00  0.00    +0.045 A 
ATOM      5  C   UNL     1      -2.874   1.914  24.780  0.00  0.00    +0.061 A 
ATOM      6  C   UNL     1      -2.090   2.032  25.007  0.00  0.00    +0.045 A 
ATOM      7  C   UNL     1      -1.862   2.749  25.346  0.00  0.00    +0.176 A 
ATOM     10  C   UNL     1      -2.418   3.347  25.457  0.00  0.00    +0.206 A 
ENDROOT
BRANCH   5  13
ATOM     13  C   UNL     1      -3.102   1.197  24.441  0.00  0.00    +0.265 C 
ATOM     14  O   UNL     1      -3.097   1.109  23.620  0.00  0.00    -0.268 OA
ATOM     15  N   UNL     1      -3.334   0.568  24.922  0.00  0.00    -0.198 NA
BRANCH  15  16
ATOM     16  C   UNL     1      -3.562  -0.149  24.583  0.00  0.00    +0.155 C 
ATOM     17  C   UNL     1      -3.955  -0.241  23.864  0.00  0.00    +0.166 C 
ATOM     18  O   UNL     1      -4.072  -1.048  23.740  0.00  0.00    -0.349 OA
ATOM     19  C   UNL     1      -3.752  -1.454  24.382  0.00  0.00    +0.177 C 
ATOM     20  C   UNL     1      -3.625  -2.204  24.703  0.00  0.00    +0.211 C 
ATOM     21  O   UNL     1      -3.853  -2.921  24.364  0.00  0.00    -0.218 OA
ATOM     22  C   UNL     1      -3.232  -2.111  25.422  0.00  0.00    +0.178 C 
ATOM     23  O   UNL     1      -3.115  -1.304  25.546  0.00  0.00    -0.349 OA
ATOM     24  C   UNL     1      -3.436  -0.898  24.903  0.00  0.00    +0.167 C 
ENDBRANCH  15  16
ENDBRANCH   5  13
BRANCH   3   2
ATOM      1  C   UNL     1      -4.562   3.647  25.366  0.00  0.00    +0.253 C 
ATOM      2  O   UNL     1      -3.758   3.829  25.342  0.00  0.00    -0.468 OA
ENDBRANCH   3   2
BRANCH   7   8
ATOM      8  O   UNL     1      -1.077   2.867  25.573  0.00  0.00    -0.468 OA
ATOM      9  C   UNL     1      -0.600   2.220  25.759  0.00  0.00    +0.253 C 
ENDBRANCH   7   8
BRANCH  10  11
ATOM     11  O   UNL     1      -2.190   4.064  25.796  0.00  0.00    -0.465 OA
ATOM     12  C   UNL     1      -1.875   4.663  25.323  0.00  0.00    +0.253 C 
ENDBRANCH  10  11
TORSDOF 5
ENDMDL
MODEL 2
REMARK VINA RESULT:      -8.8      0.043      1.585
REMARK  Name = 
REMARK  5 active torsions:
REMARK  status: ('A' for Active; 'I' for Inactive)
REMARK    1  A    between atoms: O_2  and  C_3
REMARK    2  A    between atoms: C_5  and  C_13
REMARK    3  A    between atoms: C_7  and  O_8
REMARK    4  A    between atoms: C_10  and  O_11
REMARK    5  A    between atoms: N_15  and  C_16
REMARK                            x       y       z     vdW  Elec       q    Type
REMARK                         _______ _______ _______ _____ _____    ______ ____
ROOT
ATOM      3  C   UNL     1      -1.884   2.745  25.348  0.00  0.00    +0.176 A 
ATOM      4  C   UNL     1      -2.103   2.029  25.003  0.00  0.00    +0.045 A 
ATOM      5  C   UNL     1      -2.887   1.903  24.776  0.00  0.00    +0.061 A 
ATOM      6  C   UNL     1      -3.451   2.493  24.896  0.00  0.00    +0.045 A 
ATOM      7  C   UNL     1      -3.231   3.209  25.242  0.00  0.00    +0.176 A 
ATOM     10  C   UNL     1      -2.448   3.335  25.468  0.00  0.00    +0.206 A 
ENDROOT
BRANCH   5  13
ATOM     13  C   UNL     1      -3.106   1.187  24.431  0.00  0.00    +0.265 C 
ATOM     14  O   UNL     1      -3.073   1.097  23.610  0.00  0.00    -0.268 OA
ATOM     15  N   UNL     1      -3.358   0.560  24.904  0.00  0.00    -0.198 NA
BRANCH  15  16
ATOM     16  C   UNL     1      -3.578  -0.156  24.557  0.00  0.00    +0.155 C 
ATOM     17  C   UNL     1      -3.937  -0.249  23.821  0.00  0.00    +0.166 C 
ATOM     18  O   UNL     1      -4.057  -1.055  23.696  0.00  0.00    -0.349 OA
ATOM     19  C   UNL     1      -3.773  -1.461  24.354  0.00  0.00    +0.177 C 
ATOM     20  C   UNL     1      -3.672  -2.210  24.685  0.00  0.00    +0.211 C 
ATOM     21  O   UNL     1      -3.891  -2.926  24.339  0.00  0.00    -0.218 OA
ATOM     22  C   UNL     1      -3.313  -2.118  25.422  0.00  0.00    +0.178 C 
ATOM     23  O   UNL     1      -3.192  -1.311  25.547  0.00  0.00    -0.349 OA
ATOM     24  C   UNL     1      -3.477  -0.905  24.887  0.00  0.00    +0.167 C 
ENDBRANCH  15  16
ENDBRANCH   5  13
BRANCH   3   2
ATOM      1  C   UNL     1      -0.612   2.230  25.746  0.00  0.00    +0.253 C 
ATOM      2  O   UNL     1      -1.101   2.872  25.575  0.00  0.00    -0.468 OA
ENDBRANCH   3   2
BRANCH   7   8
ATOM      8  O   UNL     1      -3.795   3.799  25.361  0.00  0.00    -0.468 OA
ATOM      9  C   UNL     1      -4.596   3.603  25.401  0.00  0.00    +0.253 C 
ENDBRANCH   7   8
BRANCH  10  11
ATOM     11  O   UNL     1      -2.229   4.052  25.814  0.00  0.00    -0.465 OA
ATOM     12  C   UNL     1      -1.898   4.649  25.351  0.00  0.00    +0.253 C 
ENDBRANCH  10  11
TORSDOF 5
ENDMDL
MODEL 3
REMARK VINA RESULT:      -8.7      1.678      4.481
REMARK  Name = 
REMARK  5 active torsions:
REMARK  status: ('A' for Active; 'I' for Inactive)
REMARK    1  A    between atoms: O_2  and  C_3
REMARK    2  A    between atoms: C_5  and  C_13
REMARK    3  A    between atoms: C_7  and  O_8
REMARK    4  A    between atoms: C_10  and  O_11
REMARK    5  A    between atoms: N_15  and  C_16
REMARK                            x       y       z     vdW  Elec       q    Type
REMARK                         _______ _______ _______ _____ _____    ______ ____
ROOT
ATOM      3  C   UNL     1      -3.280  -1.489  24.390  0.00  0.00    +0.176 A 
ATOM      4  C   UNL     1      -3.846  -0.929  24.603  0.00  0.00    +0.045 A 
ATOM      5  C   UNL     1      -3.613  -0.220  24.956  0.00  0.00    +0.061 A 
ATOM      6  C   UNL     1      -2.813  -0.072  25.095  0.00  0.00    +0.045 A 
ATOM      7  C   UNL     1      -2.246  -0.633  24.881  0.00  0.00    +0.176 A 
ATOM     10  C   UNL     1      -2.480  -1.341  24.529  0.00  0.00    +0.206 A 
ENDROOT
BRANCH   5  13
ATOM     13  C   UNL     1      -4.178   0.341  25.169  0.00  0.00    +0.265 C 
ATOM     14  O   UNL     1      -4.711   0.179  25.779  0.00  0.00    -0.268 OA
ATOM     15  N   UNL     1      -4.214   1.064  24.773  0.00  0.00    -0.198 NA
BRANCH  15  16
ATOM     16  C   UNL     1      -4.780   1.625  24.986  0.00  0.00    +0.155 C 
ATOM     17  C   UNL     1      -5.585   1.483  25.095  0.00  0.00    +0.166 C 
ATOM     18  O   UNL     1      -5.943   2.196  25.304  0.00  0.00    -0.349 OA
ATOM     19  C   UNL     1      -5.360   2.778  25.325  0.00  0.00    +0.177 C 
ATOM     20  C   UNL     1      -5.219   3.579  25.467  0.00  0.00    +0.211 C 
ATOM     21  O   UNL     1      -5.786   4.140  25.680  0.00  0.00    -0.218 OA
ATOM     22  C   UNL     1      -4.414   3.720  25.358  0.00  0.00    +0.178 C 
ATOM     23  O   UNL     1      -4.056   3.007  25.149  0.00  0.00    -0.349 OA
ATOM     24  C   UNL     1      -4.641   2.425  25.128  0.00  0.00    +0.167 C 
ENDBRANCH  15  16
ENDBRANCH   5  13
BRANCH   3   2
ATOM      1  C   UNL     1      -4.271  -2.274  23.725  0.00  0.00    +0.253 C 
ATOM      2  O   UNL     1      -3.513  -2.198  24.038  0.00  0.00    -0.468 OA
ENDBRANCH   3   2
BRANCH   7   8
ATOM      8  O   UNL     1      -1.447  -0.485  25.020  0.00  0.00    -0.468 OA
ATOM      9  C   UNL     1      -1.192   0.283  25.186  0.00  0.00    +0.253 C 
ENDBRANCH   7   8
BRANCH  10  11
ATOM     11  O   UNL     1      -1.913  -1.902  24.316  0.00  0.00    -0.465 OA
ATOM     12  C   UNL     1      -1.685  -2.483  24.855  0.00  0.00    +0.253 C 
ENDBRANCH  10  11
TORSDOF 5
ENDMDL
MODEL 4
REMARK VINA RESULT:      -8.7      1.680      4.621
REMARK  Name = 
REMARK  5 active torsions:
REMARK  status: ('A' for Active; 'I' for Inactive)
REMARK    1  A    between atoms: O_2  and  C_3
REMARK    2  A    between atoms: C_5  and  C_13
REMARK    3  A    between atoms: C_7  and  O_8
REMARK    4  A    between atoms: C_10  and  O_11
REMARK    5  A    between atoms: N_15  and  C_16
REMARK                            x       y       z     vdW  Elec       q    Type
REMARK                         _______ _______ _______ _____ _____    ______ ____
ROOT
ATOM      3  C   UNL     1      -2.246  -0.636  24.871  0.00  0.00    +0.176 A 
ATOM      4  C   UNL     1      -2.812  -0.076  25.085  0.00  0.00    +0.045 A 
ATOM      5  C   UNL     1      -3.612  -0.222  24.944  0.00  0.00    +0.061 A 
ATOM      6  C   UNL     1      -3.846  -0.928  24.588  0.00  0.00    +0.045 A 
ATOM      7  C   UNL     1      -3.280  -1.489  24.374  0.00  0.00    +0.176 A 
ATOM     10  C   UNL     1      -2.480  -1.343  24.516  0.00  0.00    +0.206 A 
ENDROOT
BRANCH   5  13
ATOM     13  C   UNL     1      -4.177   0.339  25.158  0.00  0.00    +0.265 C 
ATOM     14  O   UNL     1      -4.709   0.177  25.769  0.00  0.00    -0.268 OA
ATOM     15  N   UNL     1      -4.213   1.062  24.762  0.00  0.00    -0.198 NA
BRANCH  15  16
ATOM     16  C   UNL     1      -4.779   1.623  24.976  0.00  0.00    +0.155 C 
ATOM     17  C   UNL     1      -5.586   1.482  25.080  0.00  0.00    +0.166 C 
ATOM     18  O   UNL     1      -5.943   2.195  25.292  0.00  0.00    -0.349 OA
ATOM     19  C   UNL     1      -5.358   2.775  25.320  0.00  0.00    +0.177 C 
ATOM     20  C   UNL     1      -5.216   3.574  25.468  0.00  0.00    +0.211 C 
ATOM     21  O   UNL     1      -5.783   4.135  25.683  0.00  0.00    -0.218 OA
ATOM     22  C   UNL     1      -4.410   3.715  25.365  0.00  0.00    +0.178 C 
ATOM     23  O   UNL     1      -4.053   3.002  25.153  0.00  0.00    -0.349 OA
ATOM     24  C   UNL     1      -4.639   2.421  25.125  0.00  0.00    +0.167 C 
ENDBRANCH  15  16
ENDBRANCH   5  13
BRANCH   3   2
ATOM      1  C   UNL     1      -1.197   0.263  25.235  0.00  0.00    +0.253 C 
ATOM      2  O   UNL     1      -1.446  -0.491  25.012  0.00  0.00    -0.468 OA
ENDBRANCH   3   2
BRANCH   7   8
ATOM      8  O   UNL     1      -3.513  -2.196  24.019  0.00  0.00    -0.468 OA
ATOM      9  C   UNL     1      -4.285  -2.281  23.737  0.00  0.00    +0.253 C 
ENDBRANCH   7   8
BRANCH  10  11
ATOM     11  O   UNL     1      -1.914  -1.904  24.301  0.00  0.00    -0.465 OA
ATOM     12  C   UNL     1      -1.678  -2.479  24.843  0.00  0.00    +0.253 C 
ENDBRANCH  10  11
TORSDOF 5
ENDMDL
MODEL 5
REMARK VINA RESULT:      -8.5      1.783      2.479
REMARK  Name = 
REMARK  5 active torsions:
REMARK  status: ('A' for Active; 'I' for Inactive)
REMARK    1  A    between atoms: O_2  and  C_3
REMARK    2  A    between atoms: C_5  and  C_13
REMARK    3  A    between atoms: C_7  and  O_8
REMARK    4  A    between atoms: C_10  and  O_11
REMARK    5  A    between atoms: N_15  and  C_16
REMARK                            x       y       z     vdW  Elec       q    Type
REMARK                         _______ _______ _______ _____ _____    ______ ____
ROOT
ATOM      3  C   UNL     1      -4.218   2.429  24.332  0.00  0.00    +0.176 A 
ATOM      4  C   UNL     1      -4.000   1.639  24.241  0.00  0.00    +0.045 A 
ATOM      5  C   UNL     1      -4.359   1.055  24.701  0.00  0.00    +0.061 A 
ATOM      6  C   UNL     1      -4.936   1.262  25.252  0.00  0.00    +0.045 A 
ATOM      7  C   UNL     1      -5.155   2.053  25.344  0.00  0.00    +0.176 A 
ATOM     10  C   UNL     1      -4.796   2.636  24.884  0.00  0.00    +0.206 A 
ENDROOT
BRANCH   5  13
ATOM     13  C   UNL     1      -4.140   0.266  24.610  0.00  0.00    +0.265 C 
ATOM     14  O   UNL     1      -4.599  -0.239  24.144  0.00  0.00    -0.268 OA
ATOM     15  N   UNL     1      -3.464  -0.022  24.984  0.00  0.00    -0.198 NA
BRANCH  15  16
ATOM     16  C   UNL     1      -3.245  -0.812  24.893  0.00  0.00    +0.155 C 
ATOM     17  C   UNL     1      -3.759  -1.457  24.866  0.00  0.00    +0.166 C 
ATOM     18  O   UNL     1      -3.306  -2.139  24.769  0.00  0.00    -0.349 OA
ATOM     19  C   UNL     1      -2.513  -1.917  24.736  0.00  0.00    +0.177 C 
ATOM     20  C   UNL     1      -1.742  -2.200  24.655  0.00  0.00    +0.211 C 
ATOM     21  O   UNL     1      -1.524  -2.991  24.564  0.00  0.00    -0.218 OA
ATOM     22  C   UNL     1      -1.229  -1.556  24.682  0.00  0.00    +0.178 C 
ATOM     23  O   UNL     1      -1.682  -0.873  24.779  0.00  0.00    -0.349 OA
ATOM     24  C   UNL     1      -2.476  -1.097  24.812  0.00  0.00    +0.167 C 
ENDBRANCH  15  16
ENDBRANCH   5  13
BRANCH   3   2
ATOM      1  C   UNL     1      -3.444   2.804  23.192  0.00  0.00    +0.253 C 
ATOM      2  O   UNL     1      -3.859   3.012  23.873  0.00  0.00    -0.468 OA
ENDBRANCH   3   2
BRANCH   7   8
ATOM      8  O   UNL     1      -5.733   2.260  25.895  0.00  0.00    -0.468 OA
ATOM      9  C   UNL     1      -6.291   1.702  26.138  0.00  0.00    +0.253 C 
ENDBRANCH   7   8
BRANCH  10  11
ATOM     11  O   UNL     1      -5.015   3.426  24.975  0.00  0.00    -0.465 OA
ATOM     12  C   UNL     1      -4.620   3.903  25.521  0.00  0.00    +0.253 C 
ENDBRANCH  10  11
TORSDOF 5
ENDMDL
MODEL 6
REMARK VINA RESULT:      -8.3      1.256      4.679
REMARK  Name = 
REMARK  5 active torsions:
REMARK  status: ('A' for Active; 'I' for Inactive)
REMARK    1  A    between atoms: O_2  and  C_3
REMARK    2  A    between atoms: C_5  and  C_13
REMARK    3  A    between atoms: C_7  and  O_8
REMARK    4  A    between atoms: C_10  and  O_11
REMARK    5  A    between atoms: N_15  and  C_16
REMARK                            x       y       z     vdW  Elec       q    Type
REMARK                         _______ _______ _______ _____ _____    ______ ____
ROOT
ATOM      3  C   UNL     1      -3.474  -0.184  24.836  0.00  0.00    +0.176 A 
ATOM      4  C   UNL     1      -3.101   0.532  24.670  0.00  0.00    +0.045 A 
ATOM      5  C   UNL     1      -2.279   0.567  24.615  0.00  0.00    +0.061 A 
ATOM      6  C   UNL     1      -1.829  -0.115  24.727  0.00  0.00    +0.045 A 
ATOM      7  C   UNL     1      -2.202  -0.833  24.894  0.00  0.00    +0.176 A 
ATOM     10  C   UNL     1      -3.024  -0.866  24.948  0.00  0.00    +0.206 A 
ENDROOT
BRANCH   5  13
ATOM     13  C   UNL     1      -1.906   1.284  24.449  0.00  0.00    +0.265 C 
ATOM     14  O   UNL     1      -1.656   1.450  23.680  0.00  0.00    -0.268 OA
ATOM     15  N   UNL     1      -1.783   1.834  25.051  0.00  0.00    -0.198 NA
BRANCH  15  16
ATOM     16  C   UNL     1      -1.410   2.551  24.884  0.00  0.00    +0.155 C 
ATOM     17  C   UNL     1      -0.745   2.652  24.407  0.00  0.00    +0.166 C 
ATOM     18  O   UNL     1      -0.561   3.456  24.394  0.00  0.00    -0.349 OA
ATOM     19  C   UNL     1      -1.111   3.852  24.862  0.00  0.00    +0.177 C 
ATOM     20  C   UNL     1      -1.338   4.593  25.145  0.00  0.00    +0.211 C 
ATOM     21  O   UNL     1      -0.965   5.310  24.978  0.00  0.00    -0.218 OA
ATOM     22  C   UNL     1      -2.003   4.492  25.622  0.00  0.00    +0.178 C 
ATOM     23  O   UNL     1      -2.187   3.689  25.635  0.00  0.00    -0.349 OA
ATOM     24  C   UNL     1      -1.636   3.293  25.166  0.00  0.00    +0.167 C 
ENDBRANCH  15  16
ENDBRANCH   5  13
BRANCH   3   2
ATOM      1  C   UNL     1      -4.733   0.472  25.000  0.00  0.00    +0.253 C 
ATOM      2  O   UNL     1      -4.297  -0.219  24.890  0.00  0.00    -0.468 OA
ENDBRANCH   3   2
BRANCH   7   8
ATOM      8  O   UNL     1      -1.752  -1.515  25.006  0.00  0.00    -0.468 OA
ATOM      9  C   UNL     1      -0.954  -1.455  25.207  0.00  0.00    +0.253 C 
ENDBRANCH   7   8
BRANCH  10  11
ATOM     11  O   UNL     1      -3.397  -1.584  25.114  0.00  0.00    -0.465 OA
ATOM     12  C   UNL     1      -3.620  -2.085  24.498  0.00  0.00    +0.253 C 
ENDBRANCH  10  11
TORSDOF 5
ENDMDL
MODEL 7
REMARK VINA RESULT:      -8.3      2.021      2.704
REMARK  Name = 
REMARK  5 active torsions:
REMARK  status: ('A' for Active; 'I' for Inactive)
REMARK    1  A    between atoms: O_2  and  C_3
REMARK    2  A    between atoms: C_5  and  C_13
REMARK    3  A    between atoms: C_7  and  O_8
REMARK    4  A    between atoms: C_10  and  O_11
REMARK    5  A    between atoms: N_15  and  C_16
REMARK                            x       y       z     vdW  Elec       q    Type
REMARK                         _______ _______ _______ _____ _____    ______ ____
ROOT
ATOM      3  C   UNL     1      -4.652   2.343  25.045  0.00  0.00    +0.176 A 
ATOM      4  C   UNL     1      -4.021   1.973  24.665  0.00  0.00    +0.045 A 
ATOM      5  C   UNL     1      -3.265   2.303  24.702  0.00  0.00    +0.061 A 
ATOM      6  C   UNL     1      -3.141   3.003  25.121  0.00  0.00    +0.045 A 
ATOM      7  C   UNL     1      -3.773   3.373  25.502  0.00  0.00    +0.176 A 
ATOM     10  C   UNL     1      -4.528   3.043  25.464  0.00  0.00    +0.206 A 
ENDROOT
BRANCH   5  13
ATOM     13  C   UNL     1      -2.634   1.933  24.322  0.00  0.00    +0.265 C 
ATOM     14  O   UNL     1      -2.505   2.061  23.516  0.00  0.00    -0.268 OA
ATOM     15  N   UNL     1      -2.130   1.435  24.745  0.00  0.00    -0.198 NA
BRANCH  15  16
ATOM     16  C   UNL     1      -1.499   1.066  24.364  0.00  0.00    +0.155 C 
ATOM     17  C   UNL     1      -1.066   1.373  23.733  0.00  0.00    +0.166 C 
ATOM     18  O   UNL     1      -0.490   0.821  23.526  0.00  0.00    -0.349 OA
ATOM     19  C   UNL     1      -0.565   0.173  24.029  0.00  0.00    +0.177 C 
ATOM     20  C   UNL     1      -0.256  -0.570  24.214  0.00  0.00    +0.211 C 
ATOM     21  O   UNL     1       0.376  -0.940  23.832  0.00  0.00    -0.218 OA
ATOM     22  C   UNL     1      -0.688  -0.878  24.845  0.00  0.00    +0.178 C 
ATOM     23  O   UNL     1      -1.265  -0.325  25.051  0.00  0.00    -0.349 OA
ATOM     24  C   UNL     1      -1.189   0.324  24.547  0.00  0.00    +0.167 C 
ENDBRANCH  15  16
ENDBRANCH   5  13
BRANCH   3   2
ATOM      1  C   UNL     1      -5.499   1.194  24.986  0.00  0.00    +0.253 C 
ATOM      2  O   UNL     1      -5.407   2.013  25.008  0.00  0.00    -0.468 OA
ENDBRANCH   3   2
BRANCH   7   8
ATOM      8  O   UNL     1      -3.649   4.073  25.920  0.00  0.00    -0.468 OA
ATOM      9  C   UNL     1      -2.900   4.248  26.219  0.00  0.00    +0.253 C 
ENDBRANCH   7   8
BRANCH  10  11
ATOM     11  O   UNL     1      -5.159   3.413  25.845  0.00  0.00    -0.465 OA
ATOM     12  C   UNL     1      -5.603   3.984  25.448  0.00  0.00    +0.253 C 
ENDBRANCH  10  11
TORSDOF 5
ENDMDL
