MODEL 1
REMARK VINA RESULT:     -11.3      0.000      0.000
REMARK  Name = 
REMARK  8 active torsions:
REMARK  status: ('A' for Active; 'I' for Inactive)
REMARK    1  A    between atoms: C_3  and  C_7
REMARK    2  A    between atoms: N_9  and  C_10
REMARK    3  A    between atoms: C_14  and  C_16
REMARK    4  A    between atoms: N_18  and  C_19
REMARK    5  A    between atoms: C_19  and  C_20
REMARK    6  A    between atoms: C_19  and  C_30
REMARK    7  A    between atoms: C_20  and  C_21
REMARK    8  A    between atoms: C_33  and  C_35
REMARK                            x       y       z     vdW  Elec       q    Type
REMARK                         _______ _______ _______ _____ _____    ______ ____
ROOT
ATOM     10  C   UNL     1      -4.352   0.854  25.187  0.00  0.00    +0.100 C 
ATOM     11  C   UNL     1      -4.777   0.164  25.032  0.00  0.00    +0.043 C 
ATOM     12  C   UNL     1      -4.393  -0.496  24.721  0.00  0.00    +0.096 C 
ATOM     13  N   UNL     1      -3.584  -0.468  24.566  0.00  0.00    -0.267 N 
ATOM     14  C   UNL     1      -3.157   0.221  24.721  0.00  0.00    +0.155 C 
ATOM     15  C   UNL     1      -3.542   0.882  25.031  0.00  0.00    +0.051 C 
ATOM     33  C   UNL     1      -3.200  -1.129  24.255  0.00  0.00    +0.284 C 
ATOM     34  O   UNL     1      -2.390  -1.101  24.099  0.00  0.00    -0.267 OA
ENDROOT
BRANCH  33  35
ATOM     35  C   UNL     1      -3.626  -1.818  24.100  0.00  0.00    +0.199 A 
ATOM     36  C   UNL     1      -3.570  -2.527  24.519  0.00  0.00    +0.045 A 
ATOM     37  C   UNL     1      -4.092  -3.067  24.177  0.00  0.00    +0.044 A 
ATOM     38  C   UNL     1      -4.470  -2.691  23.546  0.00  0.00    +0.180 A 
ATOM     39  O   UNL     1      -4.181  -1.920  23.499  0.00  0.00    -0.446 OA
ENDBRANCH  33  35
BRANCH  10   9
ATOM      7  C   UNL     1      -4.913   2.155  25.008  0.00  0.00    +0.273 C 
ATOM      8  O   UNL     1      -4.708   2.134  24.210  0.00  0.00    -0.268 OA
ATOM      9  N   UNL     1      -4.735   1.515  25.497  0.00  0.00    -0.203 NA
BRANCH   7   3
ATOM      1  C   UNL     1      -4.270   3.830  25.037  0.00  0.00    +0.055 C 
ATOM      2  C   UNL     1      -5.001   3.587  25.332  0.00  0.00    +0.093 A 
ATOM      3  C   UNL     1      -5.297   2.817  25.319  0.00  0.00    +0.119 A 
ATOM      4  S   UNL     1      -6.043   2.824  25.671  0.00  0.00    +0.042 S 
ATOM      5  N   UNL     1      -6.208   3.600  25.901  0.00  0.00    -0.110 NA
ATOM      6  N   UNL     1      -5.563   4.070  25.692  0.00  0.00    -0.145 NA
ENDBRANCH   7   3
ENDBRANCH  10   9
BRANCH  14  16
ATOM     16  C   UNL     1      -2.348   0.249  24.565  0.00  0.00    +0.260 C 
ATOM     17  O   UNL     1      -2.063   0.031  23.823  0.00  0.00    -0.272 OA
ATOM     18  N   UNL     1      -1.823   0.496  25.152  0.00  0.00    -0.196 NA
BRANCH  18  19
ATOM     19  C   UNL     1      -1.014   0.524  24.996  0.00  0.00    +0.179 C 
BRANCH  19  30
ATOM     30  C   UNL     1      -0.541  -0.133  25.155  0.00  0.00    +0.281 C 
ATOM     31  N   UNL     1      -0.007  -0.403  24.585  0.00  0.00    -0.086 NA
ATOM     32  O   UNL     1      -0.601  -0.520  25.880  0.00  0.00    -0.270 OA
ENDBRANCH  19  30
BRANCH  19  20
ATOM     20  C   UNL     1      -0.677   1.209  24.683  0.00  0.00    +0.059 C 
BRANCH  20  21
ATOM     21  C   UNL     1      -0.563   1.870  25.162  0.00  0.00    +0.001 A 
ATOM     22  C   UNL     1      -0.408   1.860  25.973  0.00  0.00    +0.095 A 
ATOM     23  N   UNL     1      -0.333   2.641  26.227  0.00  0.00    -0.244 NA
ATOM     24  C   UNL     1      -0.441   3.133  25.575  0.00  0.00    +0.081 A 
ATOM     25  C   UNL     1      -0.583   2.657  24.917  0.00  0.00    +0.015 A 
ATOM     26  C   UNL     1      -0.712   3.002  24.178  0.00  0.00    +0.001 A 
ATOM     27  C   UNL     1      -0.700   3.822  24.098  0.00  0.00    +0.000 A 
ATOM     28  C   UNL     1      -0.558   4.299  24.756  0.00  0.00    +0.002 A 
ATOM     29  C   UNL     1      -0.428   3.955  25.495  0.00  0.00    +0.019 A 
ENDBRANCH  20  21
ENDBRANCH  19  20
ENDBRANCH  18  19
ENDBRANCH  14  16
TORSDOF 8
ENDMDL
MODEL 2
REMARK VINA RESULT:     -11.0      2.071      5.777
REMARK  Name = 
REMARK  8 active torsions:
REMARK  status: ('A' for Active; 'I' for Inactive)
REMARK    1  A    between atoms: C_3  and  C_7
REMARK    2  A    between atoms: N_9  and  C_10
REMARK    3  A    between atoms: C_14  and  C_16
REMARK    4  A    between atoms: N_18  and  C_19
REMARK    5  A    between atoms: C_19  and  C_20
REMARK    6  A    between atoms: C_19  and  C_30
REMARK    7  A    between atoms: C_20  and  C_21
REMARK    8  A    between atoms: C_33  and  C_35
REMARK                            x       y       z     vdW  Elec       q    Type
REMARK                         _______ _______ _______ _____ _____    ______ ____
ROOT
ATOM     10  C   UNL     1      -1.009   1.794  23.866  0.00  0.00    +0.100 C 
ATOM     11  C   UNL     1      -0.772   2.581  23.944  0.00  0.00    +0.043 C 
ATOM     12  C   UNL     1      -1.252   3.118  24.347  0.00  0.00    +0.096 C 
ATOM     13  N   UNL     1      -1.967   2.869  24.673  0.00  0.00    -0.267 N 
ATOM     14  C   UNL     1      -2.204   2.082  24.596  0.00  0.00    +0.155 C 
ATOM     15  C   UNL     1      -1.725   1.545  24.192  0.00  0.00    +0.051 C 
ATOM     33  C   UNL     1      -2.446   3.406  25.077  0.00  0.00    +0.284 C 
ATOM     34  O   UNL     1      -3.162   3.156  25.403  0.00  0.00    -0.267 OA
ENDROOT
BRANCH  33  35
ATOM     35  C   UNL     1      -2.209   4.192  25.154  0.00  0.00    +0.199 A 
ATOM     36  C   UNL     1      -2.624   4.852  24.884  0.00  0.00    +0.045 A 
ATOM     37  C   UNL     1      -2.187   5.525  25.079  0.00  0.00    +0.044 A 
ATOM     38  C   UNL     1      -1.502   5.280  25.469  0.00  0.00    +0.180 A 
ATOM     39  O   UNL     1      -1.516   4.457  25.515  0.00  0.00    -0.446 OA
ENDBRANCH  33  35
BRANCH  10   9
ATOM      7  C   UNL     1       0.046   0.830  23.871  0.00  0.00    +0.273 C 
ATOM      8  O   UNL     1       0.143   0.942  24.683  0.00  0.00    -0.268 OA
ATOM      9  N   UNL     1      -0.531   1.257  23.463  0.00  0.00    -0.203 NA
BRANCH   7   3
ATOM      1  C   UNL     1      -0.061  -0.958  23.972  0.00  0.00    +0.055 C 
ATOM      2  C   UNL     1       0.475  -0.530  23.514  0.00  0.00    +0.093 A 
ATOM      3  C   UNL     1       0.524   0.293  23.468  0.00  0.00    +0.119 A 
ATOM      4  S   UNL     1       1.135   0.483  22.948  0.00  0.00    +0.042 S 
ATOM      5  N   UNL     1       1.464  -0.223  22.672  0.00  0.00    -0.110 NA
ATOM      6  N   UNL     1       1.055  -0.848  23.023  0.00  0.00    -0.145 NA
ENDBRANCH   7   3
ENDBRANCH  10   9
BRANCH  14  16
ATOM     16  C   UNL     1      -2.920   1.833  24.922  0.00  0.00    +0.260 C 
ATOM     17  O   UNL     1      -3.118   2.049  25.693  0.00  0.00    -0.272 OA
ATOM     18  N   UNL     1      -3.437   1.368  24.478  0.00  0.00    -0.196 NA
BRANCH  18  19
ATOM     19  C   UNL     1      -4.152   1.120  24.803  0.00  0.00    +0.179 C 
BRANCH  19  30
ATOM     30  C   UNL     1      -4.823   1.595  24.735  0.00  0.00    +0.281 C 
ATOM     31  N   UNL     1      -5.324   1.696  25.383  0.00  0.00    -0.086 NA
ATOM     32  O   UNL     1      -4.994   1.968  24.020  0.00  0.00    -0.270 OA
ENDBRANCH  19  30
BRANCH  19  20
ATOM     20  C   UNL     1      -4.197   0.396  25.198  0.00  0.00    +0.059 C 
BRANCH  20  21
ATOM     21  C   UNL     1      -4.179  -0.309  24.771  0.00  0.00    +0.001 A 
ATOM     22  C   UNL     1      -4.471  -0.421  24.007  0.00  0.00    +0.095 A 
ATOM     23  N   UNL     1      -4.339  -1.207  23.797  0.00  0.00    -0.244 NA
ATOM     24  C   UNL     1      -3.966  -1.581  24.430  0.00  0.00    +0.081 A 
ATOM     25  C   UNL     1      -3.867  -1.026  25.032  0.00  0.00    +0.015 A 
ATOM     26  C   UNL     1      -3.505  -1.246  25.740  0.00  0.00    +0.001 A 
ATOM     27  C   UNL     1      -3.242  -2.020  25.846  0.00  0.00    +0.000 A 
ATOM     28  C   UNL     1      -3.341  -2.575  25.244  0.00  0.00    +0.002 A 
ATOM     29  C   UNL     1      -3.702  -2.356  24.536  0.00  0.00    +0.019 A 
ENDBRANCH  20  21
ENDBRANCH  19  20
ENDBRANCH  18  19
ENDBRANCH  14  16
TORSDOF 8
ENDMDL
MODEL 3
REMARK VINA RESULT:     -10.4      2.209      4.368
REMARK  Name = 
REMARK  8 active torsions:
REMARK  status: ('A' for Active; 'I' for Inactive)
REMARK    1  A    between atoms: C_3  and  C_7
REMARK    2  A    between atoms: N_9  and  C_10
REMARK    3  A    between atoms: C_14  and  C_16
REMARK    4  A    between atoms: N_18  and  C_19
REMARK    5  A    between atoms: C_19  and  C_20
REMARK    6  A    between atoms: C_19  and  C_30
REMARK    7  A    between atoms: C_20  and  C_21
REMARK    8  A    between atoms: C_33  and  C_35
REMARK                            x       y       z     vdW  Elec       q    Type
REMARK                         _______ _______ _______ _____ _____    ______ ____
ROOT
ATOM     10  C   UNL     1      -0.957  -0.611  24.577  0.00  0.00    +0.100 C 
ATOM     11  C   UNL     1      -0.349  -0.942  24.127  0.00  0.00    +0.043 C 
ATOM     12  C   UNL     1       0.227  -0.456  23.792  0.00  0.00    +0.096 C 
ATOM     13  N   UNL     1       0.196   0.360  23.906  0.00  0.00    -0.267 N 
ATOM     14  C   UNL     1      -0.411   0.691  24.356  0.00  0.00    +0.155 C 
ATOM     15  C   UNL     1      -0.987   0.205  24.691  0.00  0.00    +0.051 C 
ATOM     33  C   UNL     1       0.772   0.845  23.570  0.00  0.00    +0.284 C 
ATOM     34  O   UNL     1       0.741   1.662  23.684  0.00  0.00    -0.267 OA
ENDROOT
BRANCH  33  35
ATOM     35  C   UNL     1       1.379   0.515  23.120  0.00  0.00    +0.199 A 
ATOM     36  C   UNL     1       2.183   0.529  23.306  0.00  0.00    +0.045 A 
ATOM     37  C   UNL     1       2.591   0.134  22.706  0.00  0.00    +0.044 A 
ATOM     38  C   UNL     1       2.037  -0.123  22.150  0.00  0.00    +0.180 A 
ATOM     39  O   UNL     1       1.290   0.112  22.406  0.00  0.00    -0.446 OA
ENDBRANCH  33  35
BRANCH  10   9
ATOM      7  C   UNL     1      -2.259  -1.197  24.534  0.00  0.00    +0.273 C 
ATOM      8  O   UNL     1      -2.408  -0.812  23.820  0.00  0.00    -0.268 OA
ATOM      9  N   UNL     1      -1.533  -1.096  24.913  0.00  0.00    -0.203 NA
BRANCH   7   3
ATOM      1  C   UNL     1      -3.758  -0.643  25.350  0.00  0.00    +0.055 C 
ATOM      2  C   UNL     1      -3.526  -1.427  25.245  0.00  0.00    +0.093 A 
ATOM      3  C   UNL     1      -2.836  -1.682  24.870  0.00  0.00    +0.119 A 
ATOM      4  S   UNL     1      -2.825  -2.506  24.891  0.00  0.00    +0.042 S 
ATOM      5  N   UNL     1      -3.508  -2.761  25.278  0.00  0.00    -0.110 NA
ATOM      6  N   UNL     1      -3.940  -2.094  25.497  0.00  0.00    -0.145 NA
ENDBRANCH   7   3
ENDBRANCH  10   9
BRANCH  14  16
ATOM     16  C   UNL     1      -0.442   1.507  24.470  0.00  0.00    +0.260 C 
ATOM     17  O   UNL     1      -0.095   2.014  23.919  0.00  0.00    -0.272 OA
ATOM     18  N   UNL     1      -0.820   1.818  25.134  0.00  0.00    -0.196 NA
BRANCH  18  19
ATOM     19  C   UNL     1      -0.850   2.634  25.248  0.00  0.00    +0.179 C 
BRANCH  19  30
ATOM     30  C   UNL     1      -0.305   3.001  25.747  0.00  0.00    +0.281 C 
ATOM     31  N   UNL     1      -0.111   2.654  26.471  0.00  0.00    -0.086 NA
ATOM     32  O   UNL     1       0.046   3.712  25.524  0.00  0.00    -0.270 OA
ENDBRANCH  19  30
BRANCH  19  20
ATOM     20  C   UNL     1      -1.426   3.083  24.863  0.00  0.00    +0.059 C 
BRANCH  20  21
ATOM     21  C   UNL     1      -2.153   3.221  25.226  0.00  0.00    +0.001 A 
ATOM     22  C   UNL     1      -2.274   3.367  26.030  0.00  0.00    +0.095 A 
ATOM     23  N   UNL     1      -3.083   3.474  26.150  0.00  0.00    -0.244 NA
ATOM     24  C   UNL     1      -3.462   3.394  25.422  0.00  0.00    +0.081 A 
ATOM     25  C   UNL     1      -2.887   3.238  24.851  0.00  0.00    +0.015 A 
ATOM     26  C   UNL     1      -3.107   3.130  24.063  0.00  0.00    +0.001 A 
ATOM     27  C   UNL     1      -3.901   3.179  23.846  0.00  0.00    +0.000 A 
ATOM     28  C   UNL     1      -4.476   3.335  24.416  0.00  0.00    +0.002 A 
ATOM     29  C   UNL     1      -4.257   3.443  25.205  0.00  0.00    +0.019 A 
ENDBRANCH  20  21
ENDBRANCH  19  20
ENDBRANCH  18  19
ENDBRANCH  14  16
TORSDOF 8
ENDMDL
MODEL 4
REMARK VINA RESULT:     -10.4      2.202      4.468
REMARK  Name = 
REMARK  8 active torsions:
REMARK  status: ('A' for Active; 'I' for Inactive)
REMARK    1  A    between atoms: C_3  and  C_7
REMARK    2  A    between atoms: N_9  and  C_10
REMARK    3  A    between atoms: C_14  and  C_16
REMARK    4  A    between atoms: N_18  and  C_19
REMARK    5  A    between atoms: C_19  and  C_20
REMARK    6  A    between atoms: C_19  and  C_30
REMARK    7  A    between atoms: C_20  and  C_21
REMARK    8  A    between atoms: C_33  and  C_35
REMARK                            x       y       z     vdW  Elec       q    Type
REMARK                         _______ _______ _______ _____ _____    ______ ____
ROOT
ATOM     10  C   UNL     1      -0.064   1.932  24.471  0.00  0.00    +0.100 C 
ATOM     11  C   UNL     1       0.645   2.005  24.055  0.00  0.00    +0.043 C 
ATOM     12  C   UNL     1       0.968   1.349  23.673  0.00  0.00    +0.096 C 
ATOM     13  N   UNL     1       0.583   0.621  23.705  0.00  0.00    -0.267 N 
ATOM     14  C   UNL     1      -0.127   0.548  24.121  0.00  0.00    +0.155 C 
ATOM     15  C   UNL     1      -0.450   1.203  24.504  0.00  0.00    +0.051 C 
ATOM     33  C   UNL     1       0.905  -0.035  23.323  0.00  0.00    +0.284 C 
ATOM     34  O   UNL     1       0.519  -0.764  23.356  0.00  0.00    -0.267 OA
ENDROOT
BRANCH  33  35
ATOM     35  C   UNL     1       1.614   0.038  22.907  0.00  0.00    +0.199 A 
ATOM     36  C   UNL     1       1.709  -0.047  22.092  0.00  0.00    +0.045 A 
ATOM     37  C   UNL     1       2.507   0.071  21.914  0.00  0.00    +0.044 A 
ATOM     38  C   UNL     1       2.904   0.229  22.621  0.00  0.00    +0.180 A 
ATOM     39  O   UNL     1       2.352   0.208  23.233  0.00  0.00    -0.446 OA
ENDBRANCH  33  35
BRANCH  10   9
ATOM      7  C   UNL     1      -0.972   3.035  24.482  0.00  0.00    +0.273 C 
ATOM      8  O   UNL     1      -1.233   2.827  23.727  0.00  0.00    -0.268 OA
ATOM      9  N   UNL     1      -0.387   2.587  24.854  0.00  0.00    -0.203 NA
BRANCH   7   3
ATOM      1  C   UNL     1      -2.614   3.133  25.197  0.00  0.00    +0.055 C 
ATOM      2  C   UNL     1      -2.051   3.736  25.194  0.00  0.00    +0.093 A 
ATOM      3  C   UNL     1      -1.295   3.690  24.864  0.00  0.00    +0.119 A 
ATOM      4  S   UNL     1      -0.921   4.415  24.986  0.00  0.00    +0.042 S 
ATOM      5  N   UNL     1      -1.445   4.909  25.390  0.00  0.00    -0.110 NA
ATOM      6  N   UNL     1      -2.143   4.488  25.518  0.00  0.00    -0.145 NA
ENDBRANCH   7   3
ENDBRANCH  10   9
BRANCH  14  16
ATOM     16  C   UNL     1      -0.512  -0.181  24.154  0.00  0.00    +0.260 C 
ATOM     17  O   UNL     1      -0.497  -0.685  23.501  0.00  0.00    -0.272 OA
ATOM     18  N   UNL     1      -0.913  -0.405  24.839  0.00  0.00    -0.196 NA
BRANCH  18  19
ATOM     19  C   UNL     1      -1.299  -1.133  24.872  0.00  0.00    +0.179 C 
BRANCH  19  30
ATOM     30  C   UNL     1      -0.913  -1.790  25.192  0.00  0.00    +0.281 C 
ATOM     31  N   UNL     1      -0.999  -2.531  24.838  0.00  0.00    -0.086 NA
ATOM     32  O   UNL     1      -0.444  -1.705  25.864  0.00  0.00    -0.270 OA
ENDBRANCH  19  30
BRANCH  19  20
ATOM     20  C   UNL     1      -2.069  -1.206  24.585  0.00  0.00    +0.059 C 
BRANCH  20  21
ATOM     21  C   UNL     1      -2.707  -0.975  25.052  0.00  0.00    +0.001 A 
ATOM     22  C   UNL     1      -2.775  -1.083  25.868  0.00  0.00    +0.095 A 
ATOM     23  N   UNL     1      -3.500  -0.770  26.107  0.00  0.00    -0.244 NA
ATOM     24  C   UNL     1      -3.880  -0.469  25.439  0.00  0.00    +0.081 A 
ATOM     25  C   UNL     1      -3.390  -0.596  24.788  0.00  0.00    +0.015 A 
ATOM     26  C   UNL     1      -3.630  -0.350  24.038  0.00  0.00    +0.001 A 
ATOM     27  C   UNL     1      -4.358   0.023  23.939  0.00  0.00    +0.000 A 
ATOM     28  C   UNL     1      -4.848   0.150  24.590  0.00  0.00    +0.002 A 
ATOM     29  C   UNL     1      -4.610  -0.096  25.341  0.00  0.00    +0.019 A 
ENDBRANCH  20  21
ENDBRANCH  19  20
ENDBRANCH  18  19
ENDBRANCH  14  16
TORSDOF 8
ENDMDL
MODEL 5
REMARK VINA RESULT:     -10.2      1.824      4.047
REMARK  Name = 
REMARK  8 active torsions:
REMARK  status: ('A' for Active; 'I' for Inactive)
REMARK    1  A    between atoms: C_3  and  C_7
REMARK    2  A    between atoms: N_9  and  C_10
REMARK    3  A    between atoms: C_14  and  C_16
REMARK    4  A    between atoms: N_18  and  C_19
REMARK    5  A    between atoms: C_19  and  C_20
REMARK    6  A    between atoms: C_19  and  C_30
REMARK    7  A    between atoms: C_20  and  C_21
REMARK    8  A    between atoms: C_33  and  C_35
REMARK                            x       y       z     vdW  Elec       q    Type
REMARK                         _______ _______ _______ _____ _____    ______ ____
ROOT
ATOM     10  C   UNL     1      -4.122  -0.323  24.372  0.00  0.00    +0.100 C 
ATOM     11  C   UNL     1      -4.740  -0.122  24.880  0.00  0.00    +0.043 C 
ATOM     12  C   UNL     1      -4.936   0.671  24.997  0.00  0.00    +0.096 C 
ATOM     13  N   UNL     1      -4.515   1.262  24.608  0.00  0.00    -0.267 N 
ATOM     14  C   UNL     1      -3.896   1.062  24.099  0.00  0.00    +0.155 C 
ATOM     15  C   UNL     1      -3.700   0.269  23.982  0.00  0.00    +0.051 C 
ATOM     33  C   UNL     1      -4.711   2.055  24.725  0.00  0.00    +0.284 C 
ATOM     34  O   UNL     1      -4.289   2.647  24.334  0.00  0.00    -0.267 OA
ENDROOT
BRANCH  33  35
ATOM     35  C   UNL     1      -5.329   2.256  25.233  0.00  0.00    +0.199 A 
ATOM     36  C   UNL     1      -5.255   2.645  25.956  0.00  0.00    +0.045 A 
ATOM     37  C   UNL     1      -6.011   2.733  26.277  0.00  0.00    +0.044 A 
ATOM     38  C   UNL     1      -6.551   2.397  25.751  0.00  0.00    +0.180 A 
ATOM     39  O   UNL     1      -6.130   2.103  25.106  0.00  0.00    -0.446 OA
ENDBRANCH  33  35
BRANCH  10   9
ATOM      7  C   UNL     1      -3.394  -1.488  24.765  0.00  0.00    +0.273 C 
ATOM      8  O   UNL     1      -3.061  -1.069  25.392  0.00  0.00    -0.268 OA
ATOM      9  N   UNL     1      -3.925  -1.115  24.254  0.00  0.00    -0.203 NA
BRANCH   7   3
ATOM      1  C   UNL     1      -1.733  -2.150  24.613  0.00  0.00    +0.055 C 
ATOM      2  C   UNL     1      -2.433  -2.585  24.577  0.00  0.00    +0.093 A 
ATOM      3  C   UNL     1      -3.197  -2.281  24.647  0.00  0.00    +0.119 A 
ATOM      4  S   UNL     1      -3.729  -2.908  24.578  0.00  0.00    +0.042 S 
ATOM      5  N   UNL     1      -3.293  -3.600  24.466  0.00  0.00    -0.110 NA
ATOM      6  N   UNL     1      -2.493  -3.400  24.465  0.00  0.00    -0.145 NA
ENDBRANCH   7   3
ENDBRANCH  10   9
BRANCH  14  16
ATOM     16  C   UNL     1      -3.474   1.654  23.709  0.00  0.00    +0.260 C 
ATOM     17  O   UNL     1      -3.857   2.346  23.475  0.00  0.00    -0.272 OA
ATOM     18  N   UNL     1      -2.670   1.554  23.553  0.00  0.00    -0.196 NA
BRANCH  18  19
ATOM     19  C   UNL     1      -2.249   2.146  23.163  0.00  0.00    +0.179 C 
BRANCH  19  30
ATOM     30  C   UNL     1      -2.319   2.230  22.345  0.00  0.00    +0.281 C 
ATOM     31  N   UNL     1      -2.500   2.968  22.021  0.00  0.00    -0.086 NA
ATOM     32  O   UNL     1      -2.208   1.580  21.851  0.00  0.00    -0.270 OA
ENDBRANCH  19  30
BRANCH  19  20
ATOM     20  C   UNL     1      -1.758   2.653  23.590  0.00  0.00    +0.059 C 
BRANCH  20  21
ATOM     21  C   UNL     1      -1.089   2.356  23.970  0.00  0.00    +0.001 A 
ATOM     22  C   UNL     1      -0.588   1.767  23.681  0.00  0.00    +0.095 A 
ATOM     23  N   UNL     1       0.008   1.643  24.238  0.00  0.00    -0.244 NA
ATOM     24  C   UNL     1      -0.124   2.156  24.870  0.00  0.00    +0.081 A 
ATOM     25  C   UNL     1      -0.801   2.597  24.704  0.00  0.00    +0.015 A 
ATOM     26  C   UNL     1      -1.068   3.161  25.244  0.00  0.00    +0.001 A 
ATOM     27  C   UNL     1      -0.659   3.284  25.949  0.00  0.00    +0.000 A 
ATOM     28  C   UNL     1       0.018   2.843  26.115  0.00  0.00    +0.002 A 
ATOM     29  C   UNL     1       0.287   2.279  25.576  0.00  0.00    +0.019 A 
ENDBRANCH  20  21
ENDBRANCH  19  20
ENDBRANCH  18  19
ENDBRANCH  14  16
TORSDOF 8
ENDMDL
MODEL 6
REMARK VINA RESULT:      -9.9      2.036      5.003
REMARK  Name = 
REMARK  8 active torsions:
REMARK  status: ('A' for Active; 'I' for Inactive)
REMARK    1  A    between atoms: C_3  and  C_7
REMARK    2  A    between atoms: N_9  and  C_10
REMARK    3  A    between atoms: C_14  and  C_16
REMARK    4  A    between atoms: N_18  and  C_19
REMARK    5  A    between atoms: C_19  and  C_20
REMARK    6  A    between atoms: C_19  and  C_30
REMARK    7  A    between atoms: C_20  and  C_21
REMARK    8  A    between atoms: C_33  and  C_35
REMARK                            x       y       z     vdW  Elec       q    Type
REMARK                         _______ _______ _______ _____ _____    ______ ____
ROOT
ATOM     10  C   UNL     1      -1.448  -0.191  24.650  0.00  0.00    +0.100 C 
ATOM     11  C   UNL     1      -0.898  -0.017  25.240  0.00  0.00    +0.043 C 
ATOM     12  C   UNL     1      -0.715   0.768  25.414  0.00  0.00    +0.096 C 
ATOM     13  N   UNL     1      -1.081   1.379  24.999  0.00  0.00    -0.267 N 
ATOM     14  C   UNL     1      -1.633   1.206  24.409  0.00  0.00    +0.155 C 
ATOM     15  C   UNL     1      -1.816   0.420  24.235  0.00  0.00    +0.051 C 
ATOM     33  C   UNL     1      -0.898   2.165  25.173  0.00  0.00    +0.284 C 
ATOM     34  O   UNL     1      -1.266   2.776  24.758  0.00  0.00    -0.267 OA
ENDROOT
BRANCH  33  35
ATOM     35  C   UNL     1      -0.348   2.339  25.763  0.00  0.00    +0.199 A 
ATOM     36  C   UNL     1      -0.521   2.540  26.544  0.00  0.00    +0.045 A 
ATOM     37  C   UNL     1       0.193   2.668  26.939  0.00  0.00    +0.044 A 
ATOM     38  C   UNL     1       0.806   2.546  26.400  0.00  0.00    +0.180 A 
ATOM     39  O   UNL     1       0.472   2.343  25.674  0.00  0.00    -0.446 OA
ENDBRANCH  33  35
BRANCH  10   9
ATOM      7  C   UNL     1      -2.286  -1.335  24.829  0.00  0.00    +0.273 C 
ATOM      8  O   UNL     1      -2.755  -0.908  25.356  0.00  0.00    -0.268 OA
ATOM      9  N   UNL     1      -1.632  -0.976  24.476  0.00  0.00    -0.203 NA
BRANCH   7   3
ATOM      1  C   UNL     1      -3.921  -1.979  24.466  0.00  0.00    +0.055 C 
ATOM      2  C   UNL     1      -3.222  -2.416  24.487  0.00  0.00    +0.093 A 
ATOM      3  C   UNL     1      -2.470  -2.120  24.654  0.00  0.00    +0.119 A 
ATOM      4  S   UNL     1      -1.934  -2.746  24.616  0.00  0.00    +0.042 S 
ATOM      5  N   UNL     1      -2.356  -3.430  24.425  0.00  0.00    -0.110 NA
ATOM      6  N   UNL     1      -3.151  -3.225  24.345  0.00  0.00    -0.145 NA
ENDBRANCH   7   3
ENDBRANCH  10   9
BRANCH  14  16
ATOM     16  C   UNL     1      -1.999   1.817  23.995  0.00  0.00    +0.260 C 
ATOM     17  O   UNL     1      -1.567   2.485  23.777  0.00  0.00    -0.272 OA
ATOM     18  N   UNL     1      -2.799   1.761  23.798  0.00  0.00    -0.196 NA
BRANCH  18  19
ATOM     19  C   UNL     1      -3.166   2.372  23.384  0.00  0.00    +0.179 C 
BRANCH  19  30
ATOM     30  C   UNL     1      -3.061   2.437  22.568  0.00  0.00    +0.281 C 
ATOM     31  N   UNL     1      -3.060   3.182  22.211  0.00  0.00    -0.086 NA
ATOM     32  O   UNL     1      -2.958   1.760  22.110  0.00  0.00    -0.270 OA
ENDBRANCH  19  30
BRANCH  19  20
ATOM     20  C   UNL     1      -3.637   2.918  23.785  0.00  0.00    +0.059 C 
BRANCH  20  21
ATOM     21  C   UNL     1      -4.321   2.669  24.171  0.00  0.00    +0.001 A 
ATOM     22  C   UNL     1      -4.762   1.995  23.989  0.00  0.00    +0.095 A 
ATOM     23  N   UNL     1      -5.399   1.959  24.512  0.00  0.00    -0.244 NA
ATOM     24  C   UNL     1      -5.352   2.609  25.017  0.00  0.00    +0.081 A 
ATOM     25  C   UNL     1      -4.686   3.048  24.806  0.00  0.00    +0.015 A 
ATOM     26  C   UNL     1      -4.498   3.736  25.220  0.00  0.00    +0.001 A 
ATOM     27  C   UNL     1      -4.975   3.986  25.844  0.00  0.00    +0.000 A 
ATOM     28  C   UNL     1      -5.641   3.547  26.055  0.00  0.00    +0.002 A 
ATOM     29  C   UNL     1      -5.830   2.859  25.642  0.00  0.00    +0.019 A 
ENDBRANCH  20  21
ENDBRANCH  19  20
ENDBRANCH  18  19
ENDBRANCH  14  16
TORSDOF 8
ENDMDL
MODEL 7
REMARK VINA RESULT:      -9.9      2.336      4.411
REMARK  Name = 
REMARK  8 active torsions:
REMARK  status: ('A' for Active; 'I' for Inactive)
REMARK    1  A    between atoms: C_3  and  C_7
REMARK    2  A    between atoms: N_9  and  C_10
REMARK    3  A    between atoms: C_14  and  C_16
REMARK    4  A    between atoms: N_18  and  C_19
REMARK    5  A    between atoms: C_19  and  C_20
REMARK    6  A    between atoms: C_19  and  C_30
REMARK    7  A    between atoms: C_20  and  C_21
REMARK    8  A    between atoms: C_33  and  C_35
REMARK                            x       y       z     vdW  Elec       q    Type
REMARK                         _______ _______ _______ _____ _____    ______ ____
ROOT
ATOM     10  C   UNL     1      -0.323  -0.442  24.079  0.00  0.00    +0.100 C 
ATOM     11  C   UNL     1      -0.613  -1.208  24.169  0.00  0.00    +0.043 C 
ATOM     12  C   UNL     1      -1.403  -1.328  24.377  0.00  0.00    +0.096 C 
ATOM     13  N   UNL     1      -1.901  -0.682  24.493  0.00  0.00    -0.267 N 
ATOM     14  C   UNL     1      -1.611   0.086  24.403  0.00  0.00    +0.155 C 
ATOM     15  C   UNL     1      -0.822   0.205  24.195  0.00  0.00    +0.051 C 
ATOM     33  C   UNL     1      -2.691  -0.802  24.701  0.00  0.00    +0.284 C 
ATOM     34  O   UNL     1      -3.190  -0.155  24.817  0.00  0.00    -0.267 OA
ENDROOT
BRANCH  33  35
ATOM     35  C   UNL     1      -2.982  -1.568  24.791  0.00  0.00    +0.199 A 
ATOM     36  C   UNL     1      -3.430  -1.985  24.238  0.00  0.00    +0.045 A 
ATOM     37  C   UNL     1      -3.601  -2.728  24.556  0.00  0.00    +0.044 A 
ATOM     38  C   UNL     1      -3.257  -2.769  25.306  0.00  0.00    +0.180 A 
ATOM     39  O   UNL     1      -2.875  -2.052  25.450  0.00  0.00    -0.446 OA
ENDBRANCH  33  35
BRANCH  10   9
ATOM      7  C   UNL     1       0.663  -0.122  23.095  0.00  0.00    +0.273 C 
ATOM      8  O   UNL     1       0.070  -0.043  22.527  0.00  0.00    -0.268 OA
ATOM      9  N   UNL     1       0.467  -0.321  23.871  0.00  0.00    -0.203 NA
BRANCH   7   3
ATOM      1  C   UNL     1       1.431  -0.601  21.546  0.00  0.00    +0.055 C 
ATOM      2  C   UNL     1       1.806  -0.222  22.175  0.00  0.00    +0.093 A 
ATOM      3  C   UNL     1       1.452  -0.001  22.888  0.00  0.00    +0.119 A 
ATOM      4  S   UNL     1       2.027   0.361  23.356  0.00  0.00    +0.042 S 
ATOM      5  N   UNL     1       2.736   0.364  22.932  0.00  0.00    -0.110 NA
ATOM      6  N   UNL     1       2.598   0.004  22.203  0.00  0.00    -0.145 NA
ENDBRANCH   7   3
ENDBRANCH  10   9
BRANCH  14  16
ATOM     16  C   UNL     1      -2.110   0.732  24.519  0.00  0.00    +0.260 C 
ATOM     17  O   UNL     1      -2.660   0.722  25.134  0.00  0.00    -0.272 OA
ATOM     18  N   UNL     1      -2.059   1.388  24.022  0.00  0.00    -0.196 NA
BRANCH  18  19
ATOM     19  C   UNL     1      -2.558   2.034  24.139  0.00  0.00    +0.179 C 
BRANCH  19  30
ATOM     30  C   UNL     1      -3.224   2.131  23.662  0.00  0.00    +0.281 C 
ATOM     31  N   UNL     1      -3.960   2.277  24.007  0.00  0.00    -0.086 NA
ATOM     32  O   UNL     1      -3.157   2.082  22.842  0.00  0.00    -0.270 OA
ENDBRANCH  19  30
BRANCH  19  20
ATOM     20  C   UNL     1      -2.391   2.583  24.731  0.00  0.00    +0.059 C 
BRANCH  20  21
ATOM     21  C   UNL     1      -1.810   3.156  24.612  0.00  0.00    +0.001 A 
ATOM     22  C   UNL     1      -1.123   3.064  24.163  0.00  0.00    +0.095 A 
ATOM     23  N   UNL     1      -0.702   3.772  24.194  0.00  0.00    -0.244 NA
ATOM     24  C   UNL     1      -1.128   4.302  24.661  0.00  0.00    +0.081 A 
ATOM     25  C   UNL     1      -1.812   3.921  24.919  0.00  0.00    +0.015 A 
ATOM     26  C   UNL     1      -2.349   4.321  25.401  0.00  0.00    +0.001 A 
ATOM     27  C   UNL     1      -2.202   5.101  25.625  0.00  0.00    +0.000 A 
ATOM     28  C   UNL     1      -1.518   5.482  25.367  0.00  0.00    +0.002 A 
ATOM     29  C   UNL     1      -0.980   5.083  24.885  0.00  0.00    +0.019 A 
ENDBRANCH  20  21
ENDBRANCH  19  20
ENDBRANCH  18  19
ENDBRANCH  14  16
TORSDOF 8
ENDMDL
MODEL 8
REMARK VINA RESULT:      -9.9      2.320      4.830
REMARK  Name = 
REMARK  8 active torsions:
REMARK  status: ('A' for Active; 'I' for Inactive)
REMARK    1  A    between atoms: C_3  and  C_7
REMARK    2  A    between atoms: N_9  and  C_10
REMARK    3  A    between atoms: C_14  and  C_16
REMARK    4  A    between atoms: N_18  and  C_19
REMARK    5  A    between atoms: C_19  and  C_20
REMARK    6  A    between atoms: C_19  and  C_30
REMARK    7  A    between atoms: C_20  and  C_21
REMARK    8  A    between atoms: C_33  and  C_35
REMARK                            x       y       z     vdW  Elec       q    Type
REMARK                         _______ _______ _______ _____ _____    ______ ____
ROOT
ATOM     10  C   UNL     1      -0.488   0.086  24.032  0.00  0.00    +0.100 C 
ATOM     11  C   UNL     1      -0.654  -0.628  24.409  0.00  0.00    +0.043 C 
ATOM     12  C   UNL     1      -1.438  -0.861  24.524  0.00  0.00    +0.096 C 
ATOM     13  N   UNL     1      -2.054  -0.379  24.264  0.00  0.00    -0.267 N 
ATOM     14  C   UNL     1      -1.888   0.337  23.887  0.00  0.00    +0.155 C 
ATOM     15  C   UNL     1      -1.105   0.569  23.772  0.00  0.00    +0.051 C 
ATOM     33  C   UNL     1      -2.837  -0.611  24.380  0.00  0.00    +0.284 C 
ATOM     34  O   UNL     1      -3.454  -0.128  24.120  0.00  0.00    -0.267 OA
ENDROOT
BRANCH  33  35
ATOM     35  C   UNL     1      -3.004  -1.326  24.756  0.00  0.00    +0.199 A 
ATOM     36  C   UNL     1      -3.243  -1.416  25.541  0.00  0.00    +0.045 A 
ATOM     37  C   UNL     1      -3.347  -2.223  25.684  0.00  0.00    +0.044 A 
ATOM     38  C   UNL     1      -3.172  -2.630  24.987  0.00  0.00    +0.180 A 
ATOM     39  O   UNL     1      -2.960  -2.075  24.415  0.00  0.00    -0.446 OA
ENDBRANCH  33  35
BRANCH  10   9
ATOM      7  C   UNL     1       0.697   0.088  23.233  0.00  0.00    +0.273 C 
ATOM      8  O   UNL     1       0.316  -0.377  22.668  0.00  0.00    -0.268 OA
ATOM      9  N   UNL     1       0.295   0.319  23.916  0.00  0.00    -0.203 NA
BRANCH   7   3
ATOM      1  C   UNL     1       1.772  -0.456  21.903  0.00  0.00    +0.055 C 
ATOM      2  C   UNL     1       1.974   0.071  22.505  0.00  0.00    +0.093 A 
ATOM      3  C   UNL     1       1.480   0.321  23.117  0.00  0.00    +0.119 A 
ATOM      4  S   UNL     1       1.906   0.844  23.591  0.00  0.00    +0.042 S 
ATOM      5  N   UNL     1       2.664   0.918  23.273  0.00  0.00    -0.110 NA
ATOM      6  N   UNL     1       2.706   0.439  22.602  0.00  0.00    -0.145 NA
ENDBRANCH   7   3
ENDBRANCH  10   9
BRANCH  14  16
ATOM     16  C   UNL     1      -2.504   0.819  23.627  0.00  0.00    +0.260 C 
ATOM     17  O   UNL     1      -3.067   0.521  23.103  0.00  0.00    -0.272 OA
ATOM     18  N   UNL     1      -2.558   1.599  23.891  0.00  0.00    -0.196 NA
BRANCH  18  19
ATOM     19  C   UNL     1      -3.175   2.081  23.631  0.00  0.00    +0.179 C 
BRANCH  19  30
ATOM     30  C   UNL     1      -3.053   2.603  23.003  0.00  0.00    +0.281 C 
ATOM     31  N   UNL     1      -2.364   3.057  22.974  0.00  0.00    -0.086 NA
ATOM     32  O   UNL     1      -3.617   2.670  22.407  0.00  0.00    -0.270 OA
ENDBRANCH  19  30
BRANCH  19  20
ATOM     20  C   UNL     1      -3.913   2.041  23.998  0.00  0.00    +0.059 C 
BRANCH  20  21
ATOM     21  C   UNL     1      -4.082   2.532  24.639  0.00  0.00    +0.001 A 
ATOM     22  C   UNL     1      -3.588   3.117  24.945  0.00  0.00    +0.095 A 
ATOM     23  N   UNL     1      -3.975   3.470  25.582  0.00  0.00    -0.244 NA
ATOM     24  C   UNL     1      -4.709   3.104  25.669  0.00  0.00    +0.081 A 
ATOM     25  C   UNL     1      -4.774   2.524  25.086  0.00  0.00    +0.015 A 
ATOM     26  C   UNL     1      -5.457   2.063  25.039  0.00  0.00    +0.001 A 
ATOM     27  C   UNL     1      -6.074   2.182  25.573  0.00  0.00    +0.000 A 
ATOM     28  C   UNL     1      -6.008   2.762  26.156  0.00  0.00    +0.002 A 
ATOM     29  C   UNL     1      -5.326   3.223  26.205  0.00  0.00    +0.019 A 
ENDBRANCH  20  21
ENDBRANCH  19  20
ENDBRANCH  18  19
ENDBRANCH  14  16
TORSDOF 8
ENDMDL
MODEL 9
REMARK VINA RESULT:      -9.7      2.438      4.728
REMARK  Name = 
REMARK  8 active torsions:
REMARK  status: ('A' for Active; 'I' for Inactive)
REMARK    1  A    between atoms: C_3  and  C_7
REMARK    2  A    between atoms: N_9  and  C_10
REMARK    3  A    between atoms: C_14  and  C_16
REMARK    4  A    between atoms: N_18  and  C_19
REMARK    5  A    between atoms: C_19  and  C_20
REMARK    6  A    between atoms: C_19  and  C_30
REMARK    7  A    between atoms: C_20  and  C_21
REMARK    8  A    between atoms: C_33  and  C_35
REMARK                            x       y       z     vdW  Elec       q    Type
REMARK                         _______ _______ _______ _____ _____    ______ ____
ROOT
ATOM     10  C   UNL     1       0.046  -0.454  24.049  0.00  0.00    +0.100 C 
ATOM     11  C   UNL     1      -0.434  -1.114  23.932  0.00  0.00    +0.043 C 
ATOM     12  C   UNL     1      -1.183  -1.145  24.275  0.00  0.00    +0.096 C 
ATOM     13  N   UNL     1      -1.454  -0.515  24.734  0.00  0.00    -0.267 N 
ATOM     14  C   UNL     1      -0.974   0.146  24.851  0.00  0.00    +0.155 C 
ATOM     15  C   UNL     1      -0.224   0.177  24.508  0.00  0.00    +0.051 C 
ATOM     33  C   UNL     1      -2.203  -0.546  25.077  0.00  0.00    +0.284 C 
ATOM     34  O   UNL     1      -2.474   0.084  25.536  0.00  0.00    -0.267 OA
ENDROOT
BRANCH  33  35
ATOM     35  C   UNL     1      -2.683  -1.207  24.960  0.00  0.00    +0.199 A 
ATOM     36  C   UNL     1      -3.329  -1.252  24.448  0.00  0.00    +0.045 A 
ATOM     37  C   UNL     1      -3.647  -2.012  24.506  0.00  0.00    +0.044 A 
ATOM     38  C   UNL     1      -3.197  -2.435  25.054  0.00  0.00    +0.180 A 
ATOM     39  O   UNL     1      -2.602  -1.937  25.334  0.00  0.00    -0.446 OA
ENDBRANCH  33  35
BRANCH  10   9
ATOM      7  C   UNL     1       0.904  -0.039  22.983  0.00  0.00    +0.273 C 
ATOM      8  O   UNL     1       0.261   0.312  22.603  0.00  0.00    -0.268 OA
ATOM      9  N   UNL     1       0.796  -0.422  23.707  0.00  0.00    -0.203 NA
BRANCH   7   3
ATOM      1  C   UNL     1       1.324  -0.553  21.316  0.00  0.00    +0.055 C 
ATOM      2  C   UNL     1       1.847  -0.244  21.874  0.00  0.00    +0.093 A 
ATOM      3  C   UNL     1       1.654  -0.008  22.641  0.00  0.00    +0.119 A 
ATOM      4  S   UNL     1       2.342   0.265  23.005  0.00  0.00    +0.042 S 
ATOM      5  N   UNL     1       2.961   0.198  22.462  0.00  0.00    -0.110 NA
ATOM      6  N   UNL     1       2.654  -0.117  21.764  0.00  0.00    -0.145 NA
ENDBRANCH   7   3
ENDBRANCH  10   9
BRANCH  14  16
ATOM     16  C   UNL     1      -1.244   0.776  25.310  0.00  0.00    +0.260 C 
ATOM     17  O   UNL     1      -1.464   0.649  26.095  0.00  0.00    -0.272 OA
ATOM     18  N   UNL     1      -1.294   1.532  24.985  0.00  0.00    -0.196 NA
BRANCH  18  19
ATOM     19  C   UNL     1      -1.564   2.162  25.444  0.00  0.00    +0.179 C 
BRANCH  19  30
ATOM     30  C   UNL     1      -1.023   2.664  25.814  0.00  0.00    +0.281 C 
ATOM     31  N   UNL     1      -0.409   3.001  25.376  0.00  0.00    -0.086 NA
ATOM     32  O   UNL     1      -1.095   2.828  26.618  0.00  0.00    -0.270 OA
ENDBRANCH  19  30
BRANCH  19  20
ATOM     20  C   UNL     1      -2.374   2.290  25.533  0.00  0.00    +0.059 C 
BRANCH  20  21
ATOM     21  C   UNL     1      -2.776   2.777  25.003  0.00  0.00    +0.001 A 
ATOM     22  C   UNL     1      -2.474   3.078  24.296  0.00  0.00    +0.095 A 
ATOM     23  N   UNL     1      -3.062   3.536  23.943  0.00  0.00    -0.244 NA
ATOM     24  C   UNL     1      -3.727   3.518  24.430  0.00  0.00    +0.081 A 
ATOM     25  C   UNL     1      -3.550   3.049  25.085  0.00  0.00    +0.015 A 
ATOM     26  C   UNL     1      -4.118   2.930  25.672  0.00  0.00    +0.001 A 
ATOM     27  C   UNL     1      -4.862   3.280  25.604  0.00  0.00    +0.000 A 
ATOM     28  C   UNL     1      -5.038   3.749  24.949  0.00  0.00    +0.002 A 
ATOM     29  C   UNL     1      -4.471   3.868  24.361  0.00  0.00    +0.019 A 
ENDBRANCH  20  21
ENDBRANCH  19  20
ENDBRANCH  18  19
ENDBRANCH  14  16
TORSDOF 8
ENDMDL
