MODEL 1
REMARK VINA RESULT:      -9.4      0.000      0.000
REMARK  Name = 
REMARK  5 active torsions:
REMARK  status: ('A' for Active; 'I' for Inactive)
REMARK    1  A    between atoms: C_2  and  N_3
REMARK    2  A    between atoms: N_6  and  C_7
REMARK    3  A    between atoms: C_11  and  N_15
REMARK    4  A    between atoms: C_18  and  C_22
REMARK    5  A    between atoms: C_23  and  O_24
REMARK                            x       y       z     vdW  Elec       q    Type
REMARK                         _______ _______ _______ _____ _____    ______ ____
ROOT
ATOM     15  N   UNL     1      -0.553   0.465  23.481  0.00  0.00    -0.200 NA
ATOM     16  C   UNL     1      -0.980   0.210  24.140  0.00  0.00    +0.237 A 
ATOM     17  N   UNL     1      -1.746  -0.080  24.048  0.00  0.00    -0.212 NA
ATOM     18  C   UNL     1      -2.173  -0.335  24.706  0.00  0.00    +0.089 A 
ATOM     19  C   UNL     1      -1.832  -0.301  25.457  0.00  0.00    +0.040 A 
ATOM     20  C   UNL     1      -1.065  -0.012  25.549  0.00  0.00    +0.103 A 
ATOM     21  N   UNL     1      -0.639   0.244  24.890  0.00  0.00    -0.211 NA
ENDROOT
BRANCH  15  11
ATOM      7  C   UNL     1       2.203   0.652  23.047  0.00  0.00    +0.156 C 
ATOM      8  C   UNL     1       1.974   0.038  22.547  0.00  0.00    +0.166 C 
ATOM      9  O   UNL     1       1.160  -0.068  22.630  0.00  0.00    -0.350 OA
ATOM     10  C   UNL     1       0.886   0.480  23.181  0.00  0.00    +0.166 C 
ATOM     11  C   UNL     1       0.214   0.755  23.574  0.00  0.00    +0.154 C 
ATOM     12  C   UNL     1       0.444   1.369  24.074  0.00  0.00    +0.166 C 
ATOM     13  O   UNL     1       1.257   1.475  23.991  0.00  0.00    -0.350 OA
ATOM     14  C   UNL     1       1.531   0.925  23.439  0.00  0.00    +0.166 C 
BRANCH   7   6
ATOM      3  N   UNL     1       4.380   0.714  23.198  0.00  0.00    -0.187 NA
ATOM      4  C   UNL     1       3.613   0.425  23.106  0.00  0.00    +0.339 C 
ATOM      5  O   UNL     1       3.488  -0.381  22.981  0.00  0.00    -0.249 OA
ATOM      6  N   UNL     1       2.970   0.941  23.139  0.00  0.00    -0.184 NA
BRANCH   3   2
ATOM      1  C   UNL     1       5.693   0.344  23.622  0.00  0.00    +0.025 C 
ATOM      2  C   UNL     1       5.023   0.198  23.165  0.00  0.00    +0.117 C 
ENDBRANCH   3   2
ENDBRANCH   7   6
ENDBRANCH  15  11
BRANCH  18  22
ATOM     22  C   UNL     1      -2.939  -0.625  24.614  0.00  0.00    +0.052 A 
ATOM     23  C   UNL     1      -3.583  -0.108  24.650  0.00  0.00    +0.140 A 
ATOM     26  C   UNL     1      -4.349  -0.397  24.558  0.00  0.00    +0.037 A 
ATOM     27  C   UNL     1      -4.474  -1.203  24.431  0.00  0.00    +0.003 A 
ATOM     28  C   UNL     1      -3.832  -1.719  24.395  0.00  0.00    +0.000 A 
ATOM     29  C   UNL     1      -3.064  -1.429  24.487  0.00  0.00    +0.005 A 
BRANCH  23  24
ATOM     24  O   UNL     1      -3.458   0.698  24.777  0.00  0.00    -0.471 OA
ATOM     25  C   UNL     1      -4.101   1.214  24.813  0.00  0.00    +0.252 C 
ENDBRANCH  23  24
ENDBRANCH  18  22
TORSDOF 5
ENDMDL
MODEL 2
REMARK VINA RESULT:      -9.1      1.511      2.541
REMARK  Name = 
REMARK  5 active torsions:
REMARK  status: ('A' for Active; 'I' for Inactive)
REMARK    1  A    between atoms: C_2  and  N_3
REMARK    2  A    between atoms: N_6  and  C_7
REMARK    3  A    between atoms: C_11  and  N_15
REMARK    4  A    between atoms: C_18  and  C_22
REMARK    5  A    between atoms: C_23  and  O_24
REMARK                            x       y       z     vdW  Elec       q    Type
REMARK                         _______ _______ _______ _____ _____    ______ ____
ROOT
ATOM     15  N   UNL     1      -1.713   1.003  24.904  0.00  0.00    -0.200 NA
ATOM     16  C   UNL     1      -2.454   1.047  24.544  0.00  0.00    +0.237 A 
ATOM     17  N   UNL     1      -3.076   1.432  24.925  0.00  0.00    -0.212 NA
ATOM     18  C   UNL     1      -3.817   1.476  24.565  0.00  0.00    +0.089 A 
ATOM     19  C   UNL     1      -3.936   1.134  23.823  0.00  0.00    +0.040 A 
ATOM     20  C   UNL     1      -3.313   0.749  23.442  0.00  0.00    +0.103 A 
ATOM     21  N   UNL     1      -2.573   0.705  23.803  0.00  0.00    -0.211 NA
ENDROOT
BRANCH  15  11
ATOM      7  C   UNL     1       0.771   0.732  23.649  0.00  0.00    +0.156 C 
ATOM      8  C   UNL     1       0.739   1.535  23.834  0.00  0.00    +0.166 C 
ATOM      9  O   UNL     1       0.020   1.681  24.211  0.00  0.00    -0.350 OA
ATOM     10  C   UNL     1      -0.392   0.969  24.260  0.00  0.00    +0.166 C 
ATOM     11  C   UNL     1      -1.091   0.618  24.523  0.00  0.00    +0.154 C 
ATOM     12  C   UNL     1      -1.059  -0.186  24.338  0.00  0.00    +0.166 C 
ATOM     13  O   UNL     1      -0.340  -0.331  23.961  0.00  0.00    -0.350 OA
ATOM     14  C   UNL     1       0.072   0.382  23.912  0.00  0.00    +0.166 C 
BRANCH   7   6
ATOM      3  N   UNL     1       2.740   0.342  22.792  0.00  0.00    -0.187 NA
ATOM      4  C   UNL     1       2.119   0.727  23.173  0.00  0.00    +0.339 C 
ATOM      5  O   UNL     1       2.222   1.495  23.459  0.00  0.00    -0.249 OA
ATOM      6  N   UNL     1       1.393   0.346  23.268  0.00  0.00    -0.184 NA
BRANCH   3   2
ATOM      1  C   UNL     1       4.163   0.283  22.666  0.00  0.00    +0.025 C 
ATOM      2  C   UNL     1       3.466   0.723  22.697  0.00  0.00    +0.117 C 
ENDBRANCH   3   2
ENDBRANCH   7   6
ENDBRANCH  15  11
BRANCH  18  22
ATOM     22  C   UNL     1      -4.438   1.861  24.945  0.00  0.00    +0.052 A 
ATOM     23  C   UNL     1      -4.488   2.686  24.923  0.00  0.00    +0.140 A 
ATOM     26  C   UNL     1      -5.110   3.071  25.304  0.00  0.00    +0.037 A 
ATOM     27  C   UNL     1      -5.682   2.634  25.706  0.00  0.00    +0.003 A 
ATOM     28  C   UNL     1      -5.633   1.811  25.728  0.00  0.00    +0.000 A 
ATOM     29  C   UNL     1      -5.010   1.425  25.347  0.00  0.00    +0.005 A 
BRANCH  23  24
ATOM     24  O   UNL     1      -3.916   3.123  24.521  0.00  0.00    -0.471 OA
ATOM     25  C   UNL     1      -3.961   3.947  24.507  0.00  0.00    +0.252 C 
ENDBRANCH  23  24
ENDBRANCH  18  22
TORSDOF 5
ENDMDL
MODEL 3
REMARK VINA RESULT:      -7.0      3.196      4.128
REMARK  Name = 
REMARK  5 active torsions:
REMARK  status: ('A' for Active; 'I' for Inactive)
REMARK    1  A    between atoms: C_2  and  N_3
REMARK    2  A    between atoms: N_6  and  C_7
REMARK    3  A    between atoms: C_11  and  N_15
REMARK    4  A    between atoms: C_18  and  C_22
REMARK    5  A    between atoms: C_23  and  O_24
REMARK                            x       y       z     vdW  Elec       q    Type
REMARK                         _______ _______ _______ _____ _____    ______ ____
ROOT
ATOM     15  N   UNL     1      -1.722   0.478  24.015  0.00  0.00    -0.200 NA
ATOM     16  C   UNL     1      -2.494   0.202  24.103  0.00  0.00    +0.237 A 
ATOM     17  N   UNL     1      -2.634  -0.602  24.222  0.00  0.00    -0.212 NA
ATOM     18  C   UNL     1      -3.407  -0.878  24.309  0.00  0.00    +0.089 A 
ATOM     19  C   UNL     1      -4.039  -0.349  24.279  0.00  0.00    +0.040 A 
ATOM     20  C   UNL     1      -3.899   0.456  24.160  0.00  0.00    +0.103 A 
ATOM     21  N   UNL     1      -3.127   0.731  24.073  0.00  0.00    -0.211 NA
ENDROOT
BRANCH  15  11
ATOM      7  C   UNL     1      -0.767   3.042  24.593  0.00  0.00    +0.156 C 
ATOM      8  C   UNL     1      -0.530   2.600  25.247  0.00  0.00    +0.166 C 
ATOM      9  O   UNL     1      -0.785   1.824  25.136  0.00  0.00    -0.350 OA
ATOM     10  C   UNL     1      -1.180   1.786  24.414  0.00  0.00    +0.166 C 
ATOM     11  C   UNL     1      -1.582   1.283  23.897  0.00  0.00    +0.154 C 
ATOM     12  C   UNL     1      -1.819   1.725  23.242  0.00  0.00    +0.166 C 
ATOM     13  O   UNL     1      -1.564   2.501  23.354  0.00  0.00    -0.350 OA
ATOM     14  C   UNL     1      -1.169   2.539  24.077  0.00  0.00    +0.166 C 
BRANCH   7   6
ATOM      3  N   UNL     1      -0.908   5.212  24.792  0.00  0.00    -0.187 NA
ATOM      4  C   UNL     1      -1.048   4.408  24.910  0.00  0.00    +0.339 C 
ATOM      5  O   UNL     1      -1.609   4.163  25.464  0.00  0.00    -0.249 OA
ATOM      6  N   UNL     1      -0.627   3.847  24.474  0.00  0.00    -0.184 NA
BRANCH   3   2
ATOM      1  C   UNL     1      -1.701   6.400  24.842  0.00  0.00    +0.025 C 
ATOM      2  C   UNL     1      -1.329   5.772  25.227  0.00  0.00    +0.117 C 
ENDBRANCH   3   2
ENDBRANCH   7   6
ENDBRANCH  15  11
BRANCH  18  22
ATOM     22  C   UNL     1      -3.547  -1.682  24.428  0.00  0.00    +0.052 A 
ATOM     23  C   UNL     1      -3.438  -2.014  25.176  0.00  0.00    +0.140 A 
ATOM     26  C   UNL     1      -3.578  -2.818  25.294  0.00  0.00    +0.037 A 
ATOM     27  C   UNL     1      -3.827  -3.291  24.666  0.00  0.00    +0.003 A 
ATOM     28  C   UNL     1      -3.936  -2.959  23.919  0.00  0.00    +0.000 A 
ATOM     29  C   UNL     1      -3.796  -2.154  23.800  0.00  0.00    +0.005 A 
BRANCH  23  24
ATOM     24  O   UNL     1      -3.188  -1.541  25.805  0.00  0.00    -0.471 OA
ATOM     25  C   UNL     1      -3.147  -1.856  26.566  0.00  0.00    +0.252 C 
ENDBRANCH  23  24
ENDBRANCH  18  22
TORSDOF 5
ENDMDL
MODEL 4
REMARK VINA RESULT:      -7.0      3.245      5.760
REMARK  Name = 
REMARK  5 active torsions:
REMARK  status: ('A' for Active; 'I' for Inactive)
REMARK    1  A    between atoms: C_2  and  N_3
REMARK    2  A    between atoms: N_6  and  C_7
REMARK    3  A    between atoms: C_11  and  N_15
REMARK    4  A    between atoms: C_18  and  C_22
REMARK    5  A    between atoms: C_23  and  O_24
REMARK                            x       y       z     vdW  Elec       q    Type
REMARK                         _______ _______ _______ _____ _____    ______ ____
ROOT
ATOM     15  N   UNL     1      -2.083   1.631  24.282  0.00  0.00    -0.200 NA
ATOM     16  C   UNL     1      -1.627   2.104  24.782  0.00  0.00    +0.237 A 
ATOM     17  N   UNL     1      -1.626   2.923  24.689  0.00  0.00    -0.212 NA
ATOM     18  C   UNL     1      -1.170   3.395  25.189  0.00  0.00    +0.089 A 
ATOM     19  C   UNL     1      -0.715   3.048  25.782  0.00  0.00    +0.040 A 
ATOM     20  C   UNL     1      -0.716   2.228  25.876  0.00  0.00    +0.103 A 
ATOM     21  N   UNL     1      -1.173   1.756  25.376  0.00  0.00    -0.211 NA
ENDROOT
BRANCH  15  11
ATOM      7  C   UNL     1      -3.155  -0.912  24.730  0.00  0.00    +0.156 C 
ATOM      8  C   UNL     1      -3.815  -0.419  24.770  0.00  0.00    +0.166 C 
ATOM      9  O   UNL     1      -3.561   0.356  24.645  0.00  0.00    -0.350 OA
ATOM     10  C   UNL     1      -2.746   0.342  24.527  0.00  0.00    +0.166 C 
ATOM     11  C   UNL     1      -2.084   0.811  24.376  0.00  0.00    +0.154 C 
ATOM     12  C   UNL     1      -1.424   0.318  24.336  0.00  0.00    +0.166 C 
ATOM     13  O   UNL     1      -1.678  -0.456  24.462  0.00  0.00    -0.350 OA
ATOM     14  C   UNL     1      -2.495  -0.442  24.580  0.00  0.00    +0.166 C 
BRANCH   7   6
ATOM      3  N   UNL     1      -3.656  -3.019  24.456  0.00  0.00    -0.187 NA
ATOM      4  C   UNL     1      -3.654  -2.200  24.362  0.00  0.00    +0.339 C 
ATOM      5  O   UNL     1      -4.152  -1.847  23.806  0.00  0.00    -0.249 OA
ATOM      6  N   UNL     1      -3.156  -1.732  24.824  0.00  0.00    -0.184 NA
BRANCH   3   2
ATOM      1  C   UNL     1      -3.894  -4.219  23.717  0.00  0.00    +0.025 C 
ATOM      2  C   UNL     1      -4.154  -3.487  23.994  0.00  0.00    +0.117 C 
ENDBRANCH   3   2
ENDBRANCH   7   6
ENDBRANCH  15  11
BRANCH  18  22
ATOM     22  C   UNL     1      -1.169   4.214  25.095  0.00  0.00    +0.052 A 
ATOM     23  C   UNL     1      -1.793   4.665  25.396  0.00  0.00    +0.140 A 
ATOM     26  C   UNL     1      -1.792   5.484  25.302  0.00  0.00    +0.037 A 
ATOM     27  C   UNL     1      -1.168   5.854  24.908  0.00  0.00    +0.003 A 
ATOM     28  C   UNL     1      -0.546   5.404  24.608  0.00  0.00    +0.000 A 
ATOM     29  C   UNL     1      -0.547   4.584  24.701  0.00  0.00    +0.005 A 
BRANCH  23  24
ATOM     24  O   UNL     1      -2.416   4.295  25.790  0.00  0.00    -0.471 OA
ATOM     25  C   UNL     1      -3.066   4.738  26.040  0.00  0.00    +0.252 C 
ENDBRANCH  23  24
ENDBRANCH  18  22
TORSDOF 5
ENDMDL
MODEL 5
REMARK VINA RESULT:      -6.8     14.478     16.266
REMARK  Name = 
REMARK  5 active torsions:
REMARK  status: ('A' for Active; 'I' for Inactive)
REMARK    1  A    between atoms: C_2  and  N_3
REMARK    2  A    between atoms: N_6  and  C_7
REMARK    3  A    between atoms: C_11  and  N_15
REMARK    4  A    between atoms: C_18  and  C_22
REMARK    5  A    between atoms: C_23  and  O_24
REMARK                            x       y       z     vdW  Elec       q    Type
REMARK                         _______ _______ _______ _____ _____    ______ ____
ROOT
ATOM     15  N   UNL     1      -5.179 -10.312  13.322  0.00  0.00    -0.200 NA
ATOM     16  C   UNL     1      -5.418  -9.840  12.689  0.00  0.00    +0.237 A 
ATOM     17  N   UNL     1      -4.994  -9.852  11.982  0.00  0.00    -0.212 NA
ATOM     18  C   UNL     1      -5.233  -9.380  11.348  0.00  0.00    +0.089 A 
ATOM     19  C   UNL     1      -5.896  -8.896  11.423  0.00  0.00    +0.040 A 
ATOM     20  C   UNL     1      -6.321  -8.883  12.130  0.00  0.00    +0.103 A 
ATOM     21  N   UNL     1      -6.081  -9.355  12.763  0.00  0.00    -0.211 NA
ENDROOT
BRANCH  15  11
ATOM      7  C   UNL     1      -5.579 -10.300  16.089  0.00  0.00    +0.156 C 
ATOM      8  C   UNL     1      -4.758 -10.325  16.017  0.00  0.00    +0.166 C 
ATOM      9  O   UNL     1      -4.573 -10.331  15.213  0.00  0.00    -0.350 OA
ATOM     10  C   UNL     1      -5.279 -10.309  14.789  0.00  0.00    +0.166 C 
ATOM     11  C   UNL     1      -5.603 -10.299  14.030  0.00  0.00    +0.154 C 
ATOM     12  C   UNL     1      -6.424 -10.274  14.102  0.00  0.00    +0.166 C 
ATOM     13  O   UNL     1      -6.609 -10.269  14.906  0.00  0.00    -0.350 OA
ATOM     14  C   UNL     1      -5.901 -10.290  15.330  0.00  0.00    +0.166 C 
BRANCH   7   6
ATOM      3  N   UNL     1      -6.048 -10.449  18.216  0.00  0.00    -0.187 NA
ATOM      4  C   UNL     1      -5.624 -10.462  17.509  0.00  0.00    +0.339 C 
ATOM      5  O   UNL     1      -4.820 -10.648  17.512  0.00  0.00    -0.249 OA
ATOM      6  N   UNL     1      -6.003 -10.288  16.797  0.00  0.00    -0.184 NA
BRANCH   3   2
ATOM      1  C   UNL     1      -6.073 -10.540  19.642  0.00  0.00    +0.025 C 
ATOM      2  C   UNL     1      -5.669 -10.623  18.928  0.00  0.00    +0.117 C 
ENDBRANCH   3   2
ENDBRANCH   7   6
ENDBRANCH  15  11
BRANCH  18  22
ATOM     22  C   UNL     1      -4.809  -9.393  10.641  0.00  0.00    +0.052 A 
ATOM     23  C   UNL     1      -5.076  -9.852  10.008  0.00  0.00    +0.140 A 
ATOM     26  C   UNL     1      -4.652  -9.865   9.301  0.00  0.00    +0.037 A 
ATOM     27  C   UNL     1      -3.962  -9.419   9.225  0.00  0.00    +0.003 A 
ATOM     28  C   UNL     1      -3.696  -8.960   9.857  0.00  0.00    +0.000 A 
ATOM     29  C   UNL     1      -4.120  -8.948  10.565  0.00  0.00    +0.005 A 
BRANCH  23  24
ATOM     24  O   UNL     1      -5.766 -10.298  10.084  0.00  0.00    -0.471 OA
ATOM     25  C   UNL     1      -6.015 -10.781   9.463  0.00  0.00    +0.252 C 
ENDBRANCH  23  24
ENDBRANCH  18  22
TORSDOF 5
ENDMDL
