MODEL 1
REMARK VINA RESULT:     -10.8      0.000      0.000
REMARK  Name = 
REMARK  4 active torsions:
REMARK  status: ('A' for Active; 'I' for Inactive)
REMARK    1  A    between atoms: C_2  and  N_3
REMARK    2  A    between atoms: C_4  and  C_6
REMARK    3  A    between atoms: C_6  and  C_7
REMARK    4  A    between atoms: C_20  and  N_28
REMARK                            x       y       z     vdW  Elec       q    Type
REMARK                         _______ _______ _______ _____ _____    ______ ____
ROOT
ATOM      7  C   UNL     1      -4.519   1.010  24.730  0.00  0.00    +0.017 C 
ATOM      8  C   UNL     1      -4.667   0.376  25.236  0.00  0.00    +0.022 C 
ATOM      9  C   UNL     1      -4.068  -0.167  25.402  0.00  0.00    +0.093 C 
ATOM     10  N   UNL     1      -3.336  -0.135  25.111  0.00  0.00    -0.278 N 
ATOM     11  C   UNL     1      -3.174   0.559  24.557  0.00  0.00    +0.098 C 
ATOM     12  C   UNL     1      -3.555   1.215  24.230  0.00  0.00    +0.042 C 
ATOM     13  C   UNL     1      -3.013   1.610  23.749  0.00  0.00    -0.026 C 
ATOM     14  C   UNL     1      -2.298   1.199  23.780  0.00  0.00    +0.016 C 
ATOM     15  C   UNL     1      -1.460   1.235  23.446  0.00  0.00    +0.231 C 
ATOM     16  O   UNL     1      -1.169   0.574  23.810  0.00  0.00    -0.471 OA
ATOM     17  C   UNL     1      -1.066   0.052  24.144  0.00  0.00    +0.136 A 
ATOM     18  C   UNL     1      -0.884   0.675  23.634  0.00  0.00    +0.038 A 
ATOM     19  C   UNL     1      -0.127   0.738  23.311  0.00  0.00    +0.018 A 
ATOM     20  C   UNL     1       0.449   0.176  23.499  0.00  0.00    +0.048 A 
ATOM     21  C   UNL     1       0.267  -0.446  24.009  0.00  0.00    +0.015 A 
ATOM     22  C   UNL     1      -0.490  -0.509  24.331  0.00  0.00    +0.030 A 
ATOM     23  C   UNL     1      -0.670  -1.131  24.841  0.00  0.00    +0.119 C 
ATOM     24  N   UNL     1      -1.428  -1.194  25.164  0.00  0.00    -0.204 NA
ATOM     25  C   UNL     1      -2.004  -0.633  24.976  0.00  0.00    +0.174 C 
ATOM     26  C   UNL     1      -2.760  -0.695  25.298  0.00  0.00    +0.243 C 
ATOM     27  O   UNL     1      -2.941  -1.318  25.808  0.00  0.00    -0.273 OA
ENDROOT
BRANCH  20  28
ATOM     28  N   UNL     1       1.205   0.239  23.177  0.00  0.00    -0.303 N 
ATOM     29  C   UNL     1       1.743   0.781  23.489  0.00  0.00    +0.123 C 
ATOM     30  C   UNL     1       2.500   0.843  23.167  0.00  0.00    +0.164 C 
ATOM     31  O   UNL     1       2.719   0.364  22.532  0.00  0.00    -0.350 OA
ATOM     32  C   UNL     1       2.181  -0.178  22.220  0.00  0.00    +0.164 C 
ATOM     33  C   UNL     1       1.424  -0.240  22.542  0.00  0.00    +0.123 C 
ENDBRANCH  20  28
BRANCH   7   6
ATOM      6  C   UNL     1      -5.140   1.534  24.585  0.00  0.00    +0.087 C 
BRANCH   6   4
ATOM      3  N   UNL     1      -5.305   2.851  25.112  0.00  0.00    -0.205 NA
ATOM      4  C   UNL     1      -5.404   2.036  25.185  0.00  0.00    +0.241 C 
ATOM      5  O   UNL     1      -5.767   1.722  25.856  0.00  0.00    -0.273 OA
BRANCH   3   2
ATOM      1  C   UNL     1      -5.508   4.171  25.621  0.00  0.00    +0.025 C 
ATOM      2  C   UNL     1      -5.569   3.354  25.712  0.00  0.00    +0.115 C 
ENDBRANCH   3   2
ENDBRANCH   6   4
ENDBRANCH   7   6
TORSDOF 4
ENDMDL
MODEL 2
REMARK VINA RESULT:     -10.0      2.682      4.589
REMARK  Name = 
REMARK  4 active torsions:
REMARK  status: ('A' for Active; 'I' for Inactive)
REMARK    1  A    between atoms: C_2  and  N_3
REMARK    2  A    between atoms: C_4  and  C_6
REMARK    3  A    between atoms: C_6  and  C_7
REMARK    4  A    between atoms: C_20  and  N_28
REMARK                            x       y       z     vdW  Elec       q    Type
REMARK                         _______ _______ _______ _____ _____    ______ ____
ROOT
ATOM      7  C   UNL     1      -2.235   3.944  25.609  0.00  0.00    +0.017 C 
ATOM      8  C   UNL     1      -2.969   4.320  25.620  0.00  0.00    +0.022 C 
ATOM      9  C   UNL     1      -3.657   3.882  25.497  0.00  0.00    +0.093 C 
ATOM     10  N   UNL     1      -3.680   3.105  25.363  0.00  0.00    -0.278 N 
ATOM     11  C   UNL     1      -2.877   2.694  25.351  0.00  0.00    +0.098 C 
ATOM     12  C   UNL     1      -2.073   2.865  25.438  0.00  0.00    +0.042 C 
ATOM     13  C   UNL     1      -1.652   2.160  25.348  0.00  0.00    -0.026 C 
ATOM     14  C   UNL     1      -2.196   1.556  25.207  0.00  0.00    +0.016 C 
ATOM     15  C   UNL     1      -2.223   0.666  25.054  0.00  0.00    +0.231 C 
ATOM     16  O   UNL     1      -3.025   0.592  24.984  0.00  0.00    -0.471 OA
ATOM     17  C   UNL     1      -3.647   0.665  24.952  0.00  0.00    +0.136 A 
ATOM     18  C   UNL     1      -2.930   0.258  24.934  0.00  0.00    +0.038 A 
ATOM     19  C   UNL     1      -2.919  -0.555  24.797  0.00  0.00    +0.018 A 
ATOM     20  C   UNL     1      -3.627  -0.962  24.677  0.00  0.00    +0.048 A 
ATOM     21  C   UNL     1      -4.345  -0.556  24.695  0.00  0.00    +0.015 A 
ATOM     22  C   UNL     1      -4.355   0.257  24.832  0.00  0.00    +0.030 A 
ATOM     23  C   UNL     1      -5.073   0.663  24.849  0.00  0.00    +0.119 C 
ATOM     24  N   UNL     1      -5.084   1.477  24.986  0.00  0.00    -0.204 NA
ATOM     25  C   UNL     1      -4.376   1.884  25.106  0.00  0.00    +0.174 C 
ATOM     26  C   UNL     1      -4.387   2.697  25.243  0.00  0.00    +0.243 C 
ATOM     27  O   UNL     1      -5.105   3.103  25.261  0.00  0.00    -0.273 OA
ENDROOT
BRANCH  20  28
ATOM     28  N   UNL     1      -3.616  -1.775  24.540  0.00  0.00    -0.303 N 
ATOM     29  C   UNL     1      -3.233  -2.279  25.070  0.00  0.00    +0.123 C 
ATOM     30  C   UNL     1      -3.222  -3.092  24.933  0.00  0.00    +0.164 C 
ATOM     31  O   UNL     1      -3.594  -3.403  24.265  0.00  0.00    -0.350 OA
ATOM     32  C   UNL     1      -3.977  -2.900  23.735  0.00  0.00    +0.164 C 
ATOM     33  C   UNL     1      -3.988  -2.086  23.872  0.00  0.00    +0.123 C 
ENDBRANCH  20  28
BRANCH   7   6
ATOM      6  C   UNL     1      -1.567   4.412  25.737  0.00  0.00    +0.087 C 
BRANCH   6   4
ATOM      3  N   UNL     1      -0.635   4.736  24.702  0.00  0.00    -0.205 NA
ATOM      4  C   UNL     1      -1.304   4.926  25.145  0.00  0.00    +0.241 C 
ATOM      5  O   UNL     1      -1.712   5.629  24.999  0.00  0.00    -0.273 OA
BRANCH   3   2
ATOM      1  C   UNL     1       0.121   4.971  23.513  0.00  0.00    +0.025 C 
ATOM      2  C   UNL     1      -0.372   5.249  24.111  0.00  0.00    +0.115 C 
ENDBRANCH   3   2
ENDBRANCH   6   4
ENDBRANCH   7   6
TORSDOF 4
ENDMDL
MODEL 3
REMARK VINA RESULT:      -9.8      0.964      5.742
REMARK  Name = 
REMARK  4 active torsions:
REMARK  status: ('A' for Active; 'I' for Inactive)
REMARK    1  A    between atoms: C_2  and  N_3
REMARK    2  A    between atoms: C_4  and  C_6
REMARK    3  A    between atoms: C_6  and  C_7
REMARK    4  A    between atoms: C_20  and  N_28
REMARK                            x       y       z     vdW  Elec       q    Type
REMARK                         _______ _______ _______ _____ _____    ______ ____
ROOT
ATOM      7  C   UNL     1       0.551   0.373  23.740  0.00  0.00    +0.017 C 
ATOM      8  C   UNL     1       0.572  -0.444  23.850  0.00  0.00    +0.022 C 
ATOM      9  C   UNL     1      -0.105  -0.843  24.104  0.00  0.00    +0.093 C 
ATOM     10  N   UNL     1      -0.799  -0.501  24.256  0.00  0.00    -0.278 N 
ATOM     11  C   UNL     1      -0.822   0.393  24.135  0.00  0.00    +0.098 C 
ATOM     12  C   UNL     1      -0.333   1.016  23.904  0.00  0.00    +0.042 C 
ATOM     13  C   UNL     1      -0.776   1.712  23.933  0.00  0.00    -0.026 C 
ATOM     14  C   UNL     1      -1.538   1.518  24.182  0.00  0.00    +0.016 C 
ATOM     15  C   UNL     1      -2.334   1.908  24.358  0.00  0.00    +0.231 C 
ATOM     16  O   UNL     1      -2.738   1.240  24.570  0.00  0.00    -0.471 OA
ATOM     17  C   UNL     1      -2.936   0.662  24.710  0.00  0.00    +0.136 A 
ATOM     18  C   UNL     1      -2.992   1.479  24.610  0.00  0.00    +0.038 A 
ATOM     19  C   UNL     1      -3.704   1.866  24.761  0.00  0.00    +0.018 A 
ATOM     20  C   UNL     1      -4.362   1.436  25.013  0.00  0.00    +0.048 A 
ATOM     21  C   UNL     1      -4.307   0.619  25.114  0.00  0.00    +0.015 A 
ATOM     22  C   UNL     1      -3.595   0.231  24.963  0.00  0.00    +0.030 A 
ATOM     23  C   UNL     1      -3.540  -0.585  25.064  0.00  0.00    +0.119 C 
ATOM     24  N   UNL     1      -2.827  -0.973  24.912  0.00  0.00    -0.204 NA
ATOM     25  C   UNL     1      -2.169  -0.543  24.660  0.00  0.00    +0.174 C 
ATOM     26  C   UNL     1      -1.457  -0.931  24.509  0.00  0.00    +0.243 C 
ATOM     27  O   UNL     1      -1.403  -1.747  24.609  0.00  0.00    -0.273 OA
ENDROOT
BRANCH  20  28
ATOM     28  N   UNL     1      -5.074   1.824  25.165  0.00  0.00    -0.303 N 
ATOM     29  C   UNL     1      -5.089   2.480  25.664  0.00  0.00    +0.123 C 
ATOM     30  C   UNL     1      -5.801   2.868  25.815  0.00  0.00    +0.164 C 
ATOM     31  O   UNL     1      -6.499   2.599  25.467  0.00  0.00    -0.350 OA
ATOM     32  C   UNL     1      -6.484   1.942  24.968  0.00  0.00    +0.164 C 
ATOM     33  C   UNL     1      -5.772   1.555  24.817  0.00  0.00    +0.123 C 
ENDBRANCH  20  28
BRANCH   7   6
ATOM      6  C   UNL     1       1.245   0.740  23.486  0.00  0.00    +0.087 C 
BRANCH   6   4
ATOM      3  N   UNL     1       2.534   0.510  22.915  0.00  0.00    -0.205 NA
ATOM      4  C   UNL     1       1.721   0.375  22.919  0.00  0.00    +0.241 C 
ATOM      5  O   UNL     1       1.383  -0.126  22.356  0.00  0.00    -0.273 OA
BRANCH   3   2
ATOM      1  C   UNL     1       3.803   0.361  22.274  0.00  0.00    +0.025 C 
ATOM      2  C   UNL     1       3.011   0.144  22.348  0.00  0.00    +0.115 C 
ENDBRANCH   3   2
ENDBRANCH   6   4
ENDBRANCH   7   6
TORSDOF 4
ENDMDL
MODEL 4
REMARK VINA RESULT:      -9.4      2.420      4.342
REMARK  Name = 
REMARK  4 active torsions:
REMARK  status: ('A' for Active; 'I' for Inactive)
REMARK    1  A    between atoms: C_2  and  N_3
REMARK    2  A    between atoms: C_4  and  C_6
REMARK    3  A    between atoms: C_6  and  C_7
REMARK    4  A    between atoms: C_20  and  N_28
REMARK                            x       y       z     vdW  Elec       q    Type
REMARK                         _______ _______ _______ _____ _____    ______ ____
ROOT
ATOM      7  C   UNL     1      -2.143  -1.734  24.944  0.00  0.00    +0.017 C 
ATOM      8  C   UNL     1      -1.440  -2.032  24.632  0.00  0.00    +0.022 C 
ATOM      9  C   UNL     1      -0.835  -1.516  24.413  0.00  0.00    +0.093 C 
ATOM     10  N   UNL     1      -0.867  -0.730  24.477  0.00  0.00    -0.278 N 
ATOM     11  C   UNL     1      -1.637  -0.404  24.818  0.00  0.00    +0.098 C 
ATOM     12  C   UNL     1      -2.366  -0.664  25.105  0.00  0.00    +0.042 C 
ATOM     13  C   UNL     1      -2.803   0.000  25.329  0.00  0.00    -0.026 C 
ATOM     14  C   UNL     1      -2.343   0.669  25.180  0.00  0.00    +0.016 C 
ATOM     15  C   UNL     1      -2.379   1.568  25.253  0.00  0.00    +0.231 C 
ATOM     16  O   UNL     1      -1.644   1.731  24.957  0.00  0.00    -0.471 OA
ATOM     17  C   UNL     1      -1.065   1.726  24.715  0.00  0.00    +0.136 A 
ATOM     18  C   UNL     1      -1.755   2.057  25.024  0.00  0.00    +0.038 A 
ATOM     19  C   UNL     1      -1.820   2.875  25.103  0.00  0.00    +0.018 A 
ATOM     20  C   UNL     1      -1.195   3.363  24.874  0.00  0.00    +0.048 A 
ATOM     21  C   UNL     1      -0.505   3.032  24.566  0.00  0.00    +0.015 A 
ATOM     22  C   UNL     1      -0.439   2.214  24.486  0.00  0.00    +0.030 A 
ATOM     23  C   UNL     1       0.251   1.884  24.178  0.00  0.00    +0.119 C 
ATOM     24  N   UNL     1       0.316   1.065  24.098  0.00  0.00    -0.204 NA
ATOM     25  C   UNL     1      -0.309   0.577  24.327  0.00  0.00    +0.174 C 
ATOM     26  C   UNL     1      -0.243  -0.242  24.248  0.00  0.00    +0.243 C 
ATOM     27  O   UNL     1       0.447  -0.572  23.939  0.00  0.00    -0.273 OA
ENDROOT
BRANCH  20  28
ATOM     28  N   UNL     1      -1.261   4.181  24.954  0.00  0.00    -0.303 N 
ATOM     29  C   UNL     1      -0.649   4.672  24.697  0.00  0.00    +0.123 C 
ATOM     30  C   UNL     1      -0.715   5.490  24.776  0.00  0.00    +0.164 C 
ATOM     31  O   UNL     1      -1.393   5.819  25.113  0.00  0.00    -0.350 OA
ATOM     32  C   UNL     1      -2.005   5.328  25.370  0.00  0.00    +0.164 C 
ATOM     33  C   UNL     1      -1.939   4.510  25.290  0.00  0.00    +0.123 C 
ENDBRANCH  20  28
BRANCH   7   6
ATOM      6  C   UNL     1      -2.727  -2.279  25.153  0.00  0.00    +0.087 C 
BRANCH   6   4
ATOM      3  N   UNL     1      -3.900  -2.508  24.369  0.00  0.00    -0.205 NA
ATOM      4  C   UNL     1      -3.124  -2.704  24.566  0.00  0.00    +0.241 C 
ATOM      5  O   UNL     1      -2.742  -3.323  24.176  0.00  0.00    -0.273 OA
BRANCH   3   2
ATOM      1  C   UNL     1      -4.960  -2.608  23.416  0.00  0.00    +0.025 C 
ATOM      2  C   UNL     1      -4.297  -2.933  23.783  0.00  0.00    +0.115 C 
ENDBRANCH   3   2
ENDBRANCH   6   4
ENDBRANCH   7   6
TORSDOF 4
ENDMDL
MODEL 5
REMARK VINA RESULT:      -8.9      1.782      2.409
REMARK  Name = 
REMARK  4 active torsions:
REMARK  status: ('A' for Active; 'I' for Inactive)
REMARK    1  A    between atoms: C_2  and  N_3
REMARK    2  A    between atoms: C_4  and  C_6
REMARK    3  A    between atoms: C_6  and  C_7
REMARK    4  A    between atoms: C_20  and  N_28
REMARK                            x       y       z     vdW  Elec       q    Type
REMARK                         _______ _______ _______ _____ _____    ______ ____
ROOT
ATOM      7  C   UNL     1      -4.141   3.206  25.025  0.00  0.00    +0.017 C 
ATOM      8  C   UNL     1      -3.905   3.720  25.625  0.00  0.00    +0.022 C 
ATOM      9  C   UNL     1      -3.109   3.767  25.838  0.00  0.00    +0.093 C 
ATOM     10  N   UNL     1      -2.529   3.348  25.508  0.00  0.00    -0.278 N 
ATOM     11  C   UNL     1      -2.787   2.785  24.852  0.00  0.00    +0.098 C 
ATOM     12  C   UNL     1      -3.468   2.543  24.452  0.00  0.00    +0.042 C 
ATOM     13  C   UNL     1      -3.247   1.978  23.892  0.00  0.00    -0.026 C 
ATOM     14  C   UNL     1      -2.431   1.872  23.946  0.00  0.00    +0.016 C 
ATOM     15  C   UNL     1      -1.765   1.392  23.569  0.00  0.00    +0.231 C 
ATOM     16  O   UNL     1      -1.154   1.687  24.010  0.00  0.00    -0.471 OA
ATOM     17  C   UNL     1      -0.776   1.988  24.410  0.00  0.00    +0.136 A 
ATOM     18  C   UNL     1      -0.978   1.463  23.806  0.00  0.00    +0.038 A 
ATOM     19  C   UNL     1      -0.394   1.010  23.440  0.00  0.00    +0.018 A 
ATOM     20  C   UNL     1       0.393   1.081  23.679  0.00  0.00    +0.048 A 
ATOM     21  C   UNL     1       0.595   1.606  24.283  0.00  0.00    +0.015 A 
ATOM     22  C   UNL     1       0.011   2.059  24.649  0.00  0.00    +0.030 A 
ATOM     23  C   UNL     1       0.214   2.583  25.252  0.00  0.00    +0.119 C 
ATOM     24  N   UNL     1      -0.371   3.037  25.618  0.00  0.00    -0.204 NA
ATOM     25  C   UNL     1      -1.158   2.966  25.380  0.00  0.00    +0.174 C 
ATOM     26  C   UNL     1      -1.742   3.419  25.746  0.00  0.00    +0.243 C 
ATOM     27  O   UNL     1      -1.539   3.943  26.349  0.00  0.00    -0.273 OA
ENDROOT
BRANCH  20  28
ATOM     28  N   UNL     1       0.977   0.628  23.313  0.00  0.00    -0.303 N 
ATOM     29  C   UNL     1       1.743   0.925  23.236  0.00  0.00    +0.123 C 
ATOM     30  C   UNL     1       2.326   0.472  22.870  0.00  0.00    +0.164 C 
ATOM     31  O   UNL     1       2.145  -0.279  22.581  0.00  0.00    -0.350 OA
ATOM     32  C   UNL     1       1.379  -0.576  22.658  0.00  0.00    +0.164 C 
ATOM     33  C   UNL     1       0.795  -0.123  23.024  0.00  0.00    +0.123 C 
ENDBRANCH  20  28
BRANCH   7   6
ATOM      6  C   UNL     1      -4.945   3.185  24.837  0.00  0.00    +0.087 C 
BRANCH   6   4
ATOM      3  N   UNL     1      -5.778   2.312  25.602  0.00  0.00    -0.205 NA
ATOM      4  C   UNL     1      -5.505   3.071  25.433  0.00  0.00    +0.241 C 
ATOM      5  O   UNL     1      -5.791   3.717  25.859  0.00  0.00    -0.273 OA
BRANCH   3   2
ATOM      1  C   UNL     1      -6.513   1.435  26.457  0.00  0.00    +0.025 C 
ATOM      2  C   UNL     1      -6.337   2.197  26.198  0.00  0.00    +0.115 C 
ENDBRANCH   3   2
ENDBRANCH   6   4
ENDBRANCH   7   6
TORSDOF 4
ENDMDL
MODEL 6
REMARK VINA RESULT:      -8.9      1.492      6.077
REMARK  Name = 
REMARK  4 active torsions:
REMARK  status: ('A' for Active; 'I' for Inactive)
REMARK    1  A    between atoms: C_2  and  N_3
REMARK    2  A    between atoms: C_4  and  C_6
REMARK    3  A    between atoms: C_6  and  C_7
REMARK    4  A    between atoms: C_20  and  N_28
REMARK                            x       y       z     vdW  Elec       q    Type
REMARK                         _______ _______ _______ _____ _____    ______ ____
ROOT
ATOM      7  C   UNL     1       0.412   0.733  23.861  0.00  0.00    +0.017 C 
ATOM      8  C   UNL     1       0.777   1.473  23.862  0.00  0.00    +0.022 C 
ATOM      9  C   UNL     1       0.336   2.149  24.034  0.00  0.00    +0.093 C 
ATOM     10  N   UNL     1      -0.434   2.154  24.205  0.00  0.00    -0.278 N 
ATOM     11  C   UNL     1      -0.833   1.345  24.203  0.00  0.00    +0.098 C 
ATOM     12  C   UNL     1      -0.656   0.548  24.076  0.00  0.00    +0.042 C 
ATOM     13  C   UNL     1      -1.350   0.113  24.181  0.00  0.00    -0.026 C 
ATOM     14  C   UNL     1      -1.954   0.642  24.373  0.00  0.00    +0.016 C 
ATOM     15  C   UNL     1      -2.836   0.649  24.568  0.00  0.00    +0.231 C 
ATOM     16  O   UNL     1      -2.918   1.447  24.674  0.00  0.00    -0.471 OA
ATOM     17  C   UNL     1      -2.851   2.068  24.728  0.00  0.00    +0.136 A 
ATOM     18  C   UNL     1      -3.247   1.344  24.736  0.00  0.00    +0.038 A 
ATOM     19  C   UNL     1      -4.052   1.315  24.910  0.00  0.00    +0.018 A 
ATOM     20  C   UNL     1      -4.463   2.012  25.078  0.00  0.00    +0.048 A 
ATOM     21  C   UNL     1      -4.068   2.736  25.070  0.00  0.00    +0.015 A 
ATOM     22  C   UNL     1      -3.262   2.764  24.896  0.00  0.00    +0.030 A 
ATOM     23  C   UNL     1      -2.868   3.489  24.889  0.00  0.00    +0.119 C 
ATOM     24  N   UNL     1      -2.061   3.517  24.714  0.00  0.00    -0.204 NA
ATOM     25  C   UNL     1      -1.650   2.821  24.546  0.00  0.00    +0.174 C 
ATOM     26  C   UNL     1      -0.845   2.850  24.372  0.00  0.00    +0.243 C 
ATOM     27  O   UNL     1      -0.450   3.574  24.365  0.00  0.00    -0.273 OA
ENDROOT
BRANCH  20  28
ATOM     28  N   UNL     1      -5.269   1.983  25.252  0.00  0.00    -0.303 N 
ATOM     29  C   UNL     1      -5.525   2.050  26.034  0.00  0.00    +0.123 C 
ATOM     30  C   UNL     1      -6.330   2.021  26.208  0.00  0.00    +0.164 C 
ATOM     31  O   UNL     1      -6.881   1.925  25.601  0.00  0.00    -0.350 OA
ATOM     32  C   UNL     1      -6.625   1.858  24.820  0.00  0.00    +0.164 C 
ATOM     33  C   UNL     1      -5.819   1.887  24.645  0.00  0.00    +0.123 C 
ENDBRANCH  20  28
BRANCH   7   6
ATOM      6  C   UNL     1       0.882   0.078  23.685  0.00  0.00    +0.087 C 
BRANCH   6   4
ATOM      3  N   UNL     1       2.148   0.116  23.024  0.00  0.00    -0.205 NA
ATOM      4  C   UNL     1       1.326   0.064  22.989  0.00  0.00    +0.241 C 
ATOM      5  O   UNL     1       0.947  -0.002  22.259  0.00  0.00    -0.273 OA
BRANCH   3   2
ATOM      1  C   UNL     1       3.400   0.271  22.351  0.00  0.00    +0.025 C 
ATOM      2  C   UNL     1       2.593   0.102  22.328  0.00  0.00    +0.115 C 
ENDBRANCH   3   2
ENDBRANCH   6   4
ENDBRANCH   7   6
TORSDOF 4
ENDMDL
MODEL 7
REMARK VINA RESULT:      -8.5      2.600      4.518
REMARK  Name = 
REMARK  4 active torsions:
REMARK  status: ('A' for Active; 'I' for Inactive)
REMARK    1  A    between atoms: C_2  and  N_3
REMARK    2  A    between atoms: C_4  and  C_6
REMARK    3  A    between atoms: C_6  and  C_7
REMARK    4  A    between atoms: C_20  and  N_28
REMARK                            x       y       z     vdW  Elec       q    Type
REMARK                         _______ _______ _______ _____ _____    ______ ____
ROOT
ATOM      7  C   UNL     1      -4.131  -0.788  24.119  0.00  0.00    +0.017 C 
ATOM      8  C   UNL     1      -4.877  -0.719  24.465  0.00  0.00    +0.022 C 
ATOM      9  C   UNL     1      -5.106  -0.005  24.810  0.00  0.00    +0.093 C 
ATOM     10  N   UNL     1      -4.660   0.645  24.841  0.00  0.00    -0.278 N 
ATOM     11  C   UNL     1      -3.844   0.569  24.463  0.00  0.00    +0.098 C 
ATOM     12  C   UNL     1      -3.374   0.015  24.069  0.00  0.00    +0.042 C 
ATOM     13  C   UNL     1      -2.656   0.377  23.883  0.00  0.00    -0.026 C 
ATOM     14  C   UNL     1      -2.683   1.153  24.162  0.00  0.00    +0.016 C 
ATOM     15  C   UNL     1      -2.173   1.897  24.198  0.00  0.00    +0.231 C 
ATOM     16  O   UNL     1      -2.699   2.372  24.589  0.00  0.00    -0.471 OA
ATOM     17  C   UNL     1      -3.185   2.632  24.889  0.00  0.00    +0.136 A 
ATOM     18  C   UNL     1      -2.433   2.596  24.552  0.00  0.00    +0.038 A 
ATOM     19  C   UNL     1      -1.942   3.258  24.567  0.00  0.00    +0.018 A 
ATOM     20  C   UNL     1      -2.203   3.957  24.921  0.00  0.00    +0.048 A 
ATOM     21  C   UNL     1      -2.955   3.993  25.258  0.00  0.00    +0.015 A 
ATOM     22  C   UNL     1      -3.446   3.331  25.242  0.00  0.00    +0.030 A 
ATOM     23  C   UNL     1      -4.198   3.367  25.580  0.00  0.00    +0.119 C 
ATOM     24  N   UNL     1      -4.690   2.704  25.564  0.00  0.00    -0.204 NA
ATOM     25  C   UNL     1      -4.429   2.005  25.210  0.00  0.00    +0.174 C 
ATOM     26  C   UNL     1      -4.920   1.343  25.194  0.00  0.00    +0.243 C 
ATOM     27  O   UNL     1      -5.672   1.380  25.532  0.00  0.00    -0.273 OA
ENDROOT
BRANCH  20  28
ATOM     28  N   UNL     1      -1.711   4.619  24.937  0.00  0.00    -0.303 N 
ATOM     29  C   UNL     1      -2.039   5.376  24.963  0.00  0.00    +0.123 C 
ATOM     30  C   UNL     1      -1.547   6.038  24.979  0.00  0.00    +0.164 C 
ATOM     31  O   UNL     1      -0.728   5.944  24.968  0.00  0.00    -0.350 OA
ATOM     32  C   UNL     1      -0.400   5.187  24.942  0.00  0.00    +0.164 C 
ATOM     33  C   UNL     1      -0.892   4.525  24.926  0.00  0.00    +0.123 C 
ENDBRANCH  20  28
BRANCH   7   6
ATOM      6  C   UNL     1      -3.935  -1.516  23.784  0.00  0.00    +0.087 C 
BRANCH   6   4
ATOM      3  N   UNL     1      -2.822  -2.351  24.109  0.00  0.00    -0.205 NA
ATOM      4  C   UNL     1      -3.596  -2.108  24.250  0.00  0.00    +0.241 C 
ATOM      5  O   UNL     1      -4.034  -2.455  24.858  0.00  0.00    -0.273 OA
BRANCH   3   2
ATOM      1  C   UNL     1      -1.666  -3.051  24.573  0.00  0.00    +0.025 C 
ATOM      2  C   UNL     1      -2.483  -2.942  24.575  0.00  0.00    +0.115 C 
ENDBRANCH   3   2
ENDBRANCH   6   4
ENDBRANCH   7   6
TORSDOF 4
ENDMDL
MODEL 8
REMARK VINA RESULT:      -8.2     14.296     15.814
REMARK  Name = 
REMARK  4 active torsions:
REMARK  status: ('A' for Active; 'I' for Inactive)
REMARK    1  A    between atoms: C_2  and  N_3
REMARK    2  A    between atoms: C_4  and  C_6
REMARK    3  A    between atoms: C_6  and  C_7
REMARK    4  A    between atoms: C_20  and  N_28
REMARK                            x       y       z     vdW  Elec       q    Type
REMARK                         _______ _______ _______ _____ _____    ______ ____
ROOT
ATOM      7  C   UNL     1      -3.167 -10.516  12.266  0.00  0.00    +0.017 C 
ATOM      8  C   UNL     1      -3.790 -10.331  11.758  0.00  0.00    +0.022 C 
ATOM      9  C   UNL     1      -4.545 -10.198  12.064  0.00  0.00    +0.093 C 
ATOM     10  N   UNL     1      -4.735 -10.233  12.829  0.00  0.00    -0.278 N 
ATOM     11  C   UNL     1      -4.053 -10.435  13.385  0.00  0.00    +0.098 C 
ATOM     12  C   UNL     1      -3.245 -10.608  13.364  0.00  0.00    +0.042 C 
ATOM     13  C   UNL     1      -2.994 -10.739  14.140  0.00  0.00    -0.026 C 
ATOM     14  C   UNL     1      -3.646 -10.647  14.637  0.00  0.00    +0.016 C 
ATOM     15  C   UNL     1      -3.863 -10.687  15.513  0.00  0.00    +0.231 C 
ATOM     16  O   UNL     1      -4.649 -10.510  15.438  0.00  0.00    -0.471 OA
ATOM     17  C   UNL     1      -5.230 -10.366  15.250  0.00  0.00    +0.136 A 
ATOM     18  C   UNL     1      -4.630 -10.548  15.786  0.00  0.00    +0.038 A 
ATOM     19  C   UNL     1      -4.795 -10.593  16.592  0.00  0.00    +0.018 A 
ATOM     20  C   UNL     1      -5.562 -10.454  16.865  0.00  0.00    +0.048 A 
ATOM     21  C   UNL     1      -6.162 -10.271  16.329  0.00  0.00    +0.015 A 
ATOM     22  C   UNL     1      -5.997 -10.227  15.523  0.00  0.00    +0.030 A 
ATOM     23  C   UNL     1      -6.599 -10.044  14.988  0.00  0.00    +0.119 C 
ATOM     24  N   UNL     1      -6.433 -10.000  14.181  0.00  0.00    -0.204 NA
ATOM     25  C   UNL     1      -5.666 -10.138  13.908  0.00  0.00    +0.174 C 
ATOM     26  C   UNL     1      -5.501 -10.094  13.102  0.00  0.00    +0.243 C 
ATOM     27  O   UNL     1      -6.102  -9.911  12.567  0.00  0.00    -0.273 OA
ENDROOT
BRANCH  20  28
ATOM     28  N   UNL     1      -5.727 -10.498  17.671  0.00  0.00    -0.303 N 
ATOM     29  C   UNL     1      -5.140 -10.735  18.201  0.00  0.00    +0.123 C 
ATOM     30  C   UNL     1      -5.305 -10.779  19.008  0.00  0.00    +0.164 C 
ATOM     31  O   UNL     1      -6.057 -10.587  19.286  0.00  0.00    -0.350 OA
ATOM     32  C   UNL     1      -6.644 -10.350  18.757  0.00  0.00    +0.164 C 
ATOM     33  C   UNL     1      -6.479 -10.306  17.950  0.00  0.00    +0.123 C 
ENDBRANCH  20  28
BRANCH   7   6
ATOM      6  C   UNL     1      -2.425 -10.642  11.927  0.00  0.00    +0.087 C 
BRANCH   6   4
ATOM      3  N   UNL     1      -1.366  -9.736  11.615  0.00  0.00    -0.205 NA
ATOM      4  C   UNL     1      -2.096 -10.070  11.430  0.00  0.00    +0.241 C 
ATOM      5  O   UNL     1      -2.498  -9.834  10.749  0.00  0.00    -0.273 OA
BRANCH   3   2
ATOM      1  C   UNL     1      -0.314  -8.816  11.314  0.00  0.00    +0.025 C 
ATOM      2  C   UNL     1      -1.036  -9.164  11.119  0.00  0.00    +0.115 C 
ENDBRANCH   3   2
ENDBRANCH   6   4
ENDBRANCH   7   6
TORSDOF 4
ENDMDL
MODEL 9
REMARK VINA RESULT:      -7.7      2.486      4.329
REMARK  Name = 
REMARK  4 active torsions:
REMARK  status: ('A' for Active; 'I' for Inactive)
REMARK    1  A    between atoms: C_2  and  N_3
REMARK    2  A    between atoms: C_4  and  C_6
REMARK    3  A    between atoms: C_6  and  C_7
REMARK    4  A    between atoms: C_20  and  N_28
REMARK                            x       y       z     vdW  Elec       q    Type
REMARK                         _______ _______ _______ _____ _____    ______ ____
ROOT
ATOM      7  C   UNL     1      -0.811   3.305  25.429  0.00  0.00    +0.017 C 
ATOM      8  C   UNL     1      -0.025   3.201  25.202  0.00  0.00    +0.022 C 
ATOM      9  C   UNL     1       0.226   2.472  24.907  0.00  0.00    +0.093 C 
ATOM     10  N   UNL     1      -0.236   1.839  24.818  0.00  0.00    -0.278 N 
ATOM     11  C   UNL     1      -1.096   1.953  25.067  0.00  0.00    +0.098 C 
ATOM     12  C   UNL     1      -1.598   2.532  25.376  0.00  0.00    +0.042 C 
ATOM     13  C   UNL     1      -2.350   2.200  25.456  0.00  0.00    -0.026 C 
ATOM     14  C   UNL     1      -2.312   1.418  25.196  0.00  0.00    +0.016 C 
ATOM     15  C   UNL     1      -2.840   0.692  25.094  0.00  0.00    +0.231 C 
ATOM     16  O   UNL     1      -2.279   0.191  24.795  0.00  0.00    -0.471 OA
ATOM     17  C   UNL     1      -1.764  -0.093  24.577  0.00  0.00    +0.136 A 
ATOM     18  C   UNL     1      -2.557  -0.023  24.795  0.00  0.00    +0.038 A 
ATOM     19  C   UNL     1      -3.066  -0.666  24.715  0.00  0.00    +0.018 A 
ATOM     20  C   UNL     1      -2.782  -1.382  24.416  0.00  0.00    +0.048 A 
ATOM     21  C   UNL     1      -1.990  -1.452  24.198  0.00  0.00    +0.015 A 
ATOM     22  C   UNL     1      -1.480  -0.809  24.278  0.00  0.00    +0.030 A 
ATOM     23  C   UNL     1      -0.688  -0.880  24.060  0.00  0.00    +0.119 C 
ATOM     24  N   UNL     1      -0.179  -0.235  24.140  0.00  0.00    -0.204 NA
ATOM     25  C   UNL     1      -0.462   0.480  24.439  0.00  0.00    +0.174 C 
ATOM     26  C   UNL     1       0.047   1.124  24.520  0.00  0.00    +0.243 C 
ATOM     27  O   UNL     1       0.839   1.052  24.301  0.00  0.00    -0.273 OA
ENDROOT
BRANCH  20  28
ATOM     28  N   UNL     1      -3.291  -2.026  24.336  0.00  0.00    -0.303 N 
ATOM     29  C   UNL     1      -3.157  -2.716  24.768  0.00  0.00    +0.123 C 
ATOM     30  C   UNL     1      -3.666  -3.359  24.688  0.00  0.00    +0.164 C 
ATOM     31  O   UNL     1      -4.311  -3.314  24.175  0.00  0.00    -0.350 OA
ATOM     32  C   UNL     1      -4.445  -2.624  23.743  0.00  0.00    +0.164 C 
ATOM     33  C   UNL     1      -3.936  -1.980  23.823  0.00  0.00    +0.123 C 
ENDBRANCH  20  28
BRANCH   7   6
ATOM      6  C   UNL     1      -1.027   4.047  25.720  0.00  0.00    +0.087 C 
BRANCH   6   4
ATOM      3  N   UNL     1      -1.652   5.223  25.203  0.00  0.00    -0.205 NA
ATOM      4  C   UNL     1      -1.010   4.706  25.222  0.00  0.00    +0.241 C 
ATOM      5  O   UNL     1      -0.352   4.846  24.745  0.00  0.00    -0.273 OA
BRANCH   3   2
ATOM      1  C   UNL     1      -2.316   6.336  24.600  0.00  0.00    +0.025 C 
ATOM      2  C   UNL     1      -1.636   5.882  24.706  0.00  0.00    +0.115 C 
ENDBRANCH   3   2
ENDBRANCH   6   4
ENDBRANCH   7   6
TORSDOF 4
ENDMDL
MODEL 10
REMARK VINA RESULT:      -7.2      1.892      3.006
REMARK  Name = 
REMARK  4 active torsions:
REMARK  status: ('A' for Active; 'I' for Inactive)
REMARK    1  A    between atoms: C_2  and  N_3
REMARK    2  A    between atoms: C_4  and  C_6
REMARK    3  A    between atoms: C_6  and  C_7
REMARK    4  A    between atoms: C_20  and  N_28
REMARK                            x       y       z     vdW  Elec       q    Type
REMARK                         _______ _______ _______ _____ _____    ______ ____
ROOT
ATOM      7  C   UNL     1      -2.782  -0.614  25.204  0.00  0.00    +0.017 C 
ATOM      8  C   UNL     1      -3.055   0.128  25.438  0.00  0.00    +0.022 C 
ATOM      9  C   UNL     1      -2.589   0.798  25.311  0.00  0.00    +0.093 C 
ATOM     10  N   UNL     1      -1.877   0.794  24.972  0.00  0.00    -0.278 N 
ATOM     11  C   UNL     1      -1.578  -0.019  24.716  0.00  0.00    +0.098 C 
ATOM     12  C   UNL     1      -1.811  -0.811  24.716  0.00  0.00    +0.042 C 
ATOM     13  C   UNL     1      -1.207  -1.253  24.367  0.00  0.00    -0.026 C 
ATOM     14  C   UNL     1      -0.603  -0.734  24.153  0.00  0.00    +0.016 C 
ATOM     15  C   UNL     1       0.213  -0.737  23.765  0.00  0.00    +0.231 C 
ATOM     16  O   UNL     1       0.358   0.057  23.808  0.00  0.00    -0.471 OA
ATOM     17  C   UNL     1       0.350   0.678  23.899  0.00  0.00    +0.136 A 
ATOM     18  C   UNL     1       0.653  -0.049  23.653  0.00  0.00    +0.038 A 
ATOM     19  C   UNL     1       1.395  -0.087  23.295  0.00  0.00    +0.018 A 
ATOM     20  C   UNL     1       1.835   0.602  23.183  0.00  0.00    +0.048 A 
ATOM     21  C   UNL     1       1.532   1.329  23.429  0.00  0.00    +0.015 A 
ATOM     22  C   UNL     1       0.790   1.368  23.787  0.00  0.00    +0.030 A 
ATOM     23  C   UNL     1       0.488   2.095  24.032  0.00  0.00    +0.119 C 
ATOM     24  N   UNL     1      -0.255   2.133  24.390  0.00  0.00    -0.204 NA
ATOM     25  C   UNL     1      -0.695   1.444  24.502  0.00  0.00    +0.174 C 
ATOM     26  C   UNL     1      -1.437   1.482  24.860  0.00  0.00    +0.243 C 
ATOM     27  O   UNL     1      -1.739   2.209  25.105  0.00  0.00    -0.273 OA
ENDROOT
BRANCH  20  28
ATOM     28  N   UNL     1       2.577   0.564  22.826  0.00  0.00    -0.303 N 
ATOM     29  C   UNL     1       3.227   0.926  23.182  0.00  0.00    +0.123 C 
ATOM     30  C   UNL     1       3.969   0.887  22.825  0.00  0.00    +0.164 C 
ATOM     31  O   UNL     1       4.063   0.487  22.110  0.00  0.00    -0.350 OA
ATOM     32  C   UNL     1       3.413   0.125  21.753  0.00  0.00    +0.164 C 
ATOM     33  C   UNL     1       2.671   0.163  22.111  0.00  0.00    +0.123 C 
ENDBRANCH  20  28
BRANCH   7   6
ATOM      6  C   UNL     1      -3.273  -1.262  25.347  0.00  0.00    +0.087 C 
BRANCH   6   4
ATOM      3  N   UNL     1      -3.898  -2.175  24.443  0.00  0.00    -0.205 NA
ATOM      4  C   UNL     1      -3.882  -1.442  24.818  0.00  0.00    +0.241 C 
ATOM      5  O   UNL     1      -4.474  -0.887  24.666  0.00  0.00    -0.273 OA
BRANCH   3   2
ATOM      1  C   UNL     1      -4.479  -3.053  23.476  0.00  0.00    +0.025 C 
ATOM      2  C   UNL     1      -4.506  -2.356  23.914  0.00  0.00    +0.115 C 
ENDBRANCH   3   2
ENDBRANCH   6   4
ENDBRANCH   7   6
TORSDOF 4
ENDMDL
