MODEL 1
REMARK VINA RESULT:     -13.3      0.000      0.000
REMARK  Name = 
REMARK  6 active torsions:
REMARK  status: ('A' for Active; 'I' for Inactive)
REMARK    1  A    between atoms: C_2  and  C_3
REMARK    2  A    between atoms: C_8  and  C_9
REMARK    3  A    between atoms: C_9  and  C_10
REMARK    4  A    between atoms: N_12  and  C_13
REMARK    5  A    between atoms: C_13  and  C_14
REMARK    6  A    between atoms: C_21  and  C_23
REMARK                            x       y       z     vdW  Elec       q    Type
REMARK                         _______ _______ _______ _____ _____    ______ ____
ROOT
ATOM      3  C   UNL     1      -3.240   2.590  24.250  0.00  0.00    +0.020 C 
ATOM      4  C   UNL     1      -2.823   3.170  24.662  0.00  0.00    +0.094 C 
ATOM      5  N   UNL     1      -3.086   3.422  25.401  0.00  0.00    -0.276 N 
ATOM      6  C   UNL     1      -3.768   3.094  25.730  0.00  0.00    +0.094 C 
ATOM      7  C   UNL     1      -4.186   2.514  25.318  0.00  0.00    +0.022 C 
ATOM      8  C   UNL     1      -3.923   2.262  24.578  0.00  0.00    +0.012 C 
ATOM     21  C   UNL     1      -2.668   4.002  25.813  0.00  0.00    +0.249 C 
ATOM     22  O   UNL     1      -2.931   4.254  26.553  0.00  0.00    -0.270 OA
ENDROOT
BRANCH  21  23
ATOM     23  C   UNL     1      -1.986   4.330  25.484  0.00  0.00    +0.054 A 
ATOM     24  C   UNL     1      -1.278   3.908  25.495  0.00  0.00    +0.005 A 
ATOM     25  C   UNL     1      -0.596   4.236  25.166  0.00  0.00    +0.000 A 
ATOM     26  C   UNL     1      -0.624   4.987  24.826  0.00  0.00    +0.000 A 
ATOM     27  C   UNL     1      -1.331   5.409  24.814  0.00  0.00    +0.000 A 
ATOM     28  C   UNL     1      -2.013   5.081  25.143  0.00  0.00    +0.005 A 
ENDBRANCH  21  23
BRANCH   3   2
ATOM      1  C   UNL     1      -3.081   2.822  22.849  0.00  0.00    +0.000 C 
ATOM      2  C   UNL     1      -2.977   2.339  23.510  0.00  0.00    +0.002 C 
ENDBRANCH   3   2
BRANCH   8   9
ATOM      9  C   UNL     1      -4.340   1.682  24.166  0.00  0.00    +0.087 C 
BRANCH   9  10
ATOM     10  C   UNL     1      -4.612   1.011  24.562  0.00  0.00    +0.242 C 
ATOM     11  O   UNL     1      -5.251   1.068  25.080  0.00  0.00    -0.273 OA
ATOM     12  N   UNL     1      -4.244   0.283  24.439  0.00  0.00    -0.201 NA
BRANCH  12  13
ATOM     13  C   UNL     1      -4.516  -0.388  24.835  0.00  0.00    +0.141 C 
BRANCH  13  14
ATOM     14  C   UNL     1      -4.156  -1.119  24.703  0.00  0.00    -0.000 A 
ATOM     15  C   UNL     1      -4.324  -1.544  24.016  0.00  0.00    -0.000 A 
ATOM     16  C   UNL     1      -3.963  -2.274  23.884  0.00  0.00    +0.029 A 
ATOM     17  C   UNL     1      -3.435  -2.579  24.439  0.00  0.00    +0.140 A 
ATOM     18  F   UNL     1      -3.075  -3.309  24.307  0.00  0.00    -0.204 F 
ATOM     19  C   UNL     1      -3.267  -2.155  25.125  0.00  0.00    +0.029 A 
ATOM     20  C   UNL     1      -3.627  -1.424  25.258  0.00  0.00    -0.000 A 
ENDBRANCH  13  14
ENDBRANCH  12  13
ENDBRANCH   9  10
ENDBRANCH   8   9
TORSDOF 6
ENDMDL
MODEL 2
REMARK VINA RESULT:     -12.0      2.509      5.900
REMARK  Name = 
REMARK  6 active torsions:
REMARK  status: ('A' for Active; 'I' for Inactive)
REMARK    1  A    between atoms: C_2  and  C_3
REMARK    2  A    between atoms: C_8  and  C_9
REMARK    3  A    between atoms: C_9  and  C_10
REMARK    4  A    between atoms: N_12  and  C_13
REMARK    5  A    between atoms: C_13  and  C_14
REMARK    6  A    between atoms: C_21  and  C_23
REMARK                            x       y       z     vdW  Elec       q    Type
REMARK                         _______ _______ _______ _____ _____    ______ ____
ROOT
ATOM      3  C   UNL     1      -1.627  -0.192  24.603  0.00  0.00    +0.020 C 
ATOM      4  C   UNL     1      -2.324  -0.628  24.668  0.00  0.00    +0.094 C 
ATOM      5  N   UNL     1      -2.956  -0.332  25.108  0.00  0.00    -0.276 N 
ATOM      6  C   UNL     1      -2.891   0.400  25.482  0.00  0.00    +0.094 C 
ATOM      7  C   UNL     1      -2.193   0.837  25.416  0.00  0.00    +0.022 C 
ATOM      8  C   UNL     1      -1.562   0.541  24.977  0.00  0.00    +0.012 C 
ATOM     21  C   UNL     1      -3.653  -0.769  25.173  0.00  0.00    +0.249 C 
ATOM     22  O   UNL     1      -4.285  -0.473  25.613  0.00  0.00    -0.270 OA
ENDROOT
BRANCH  21  23
ATOM     23  C   UNL     1      -3.718  -1.501  24.799  0.00  0.00    +0.054 A 
ATOM     24  C   UNL     1      -4.041  -1.551  24.043  0.00  0.00    +0.005 A 
ATOM     25  C   UNL     1      -4.106  -2.284  23.668  0.00  0.00    +0.000 A 
ATOM     26  C   UNL     1      -3.846  -2.966  24.052  0.00  0.00    +0.000 A 
ATOM     27  C   UNL     1      -3.522  -2.916  24.808  0.00  0.00    +0.000 A 
ATOM     28  C   UNL     1      -3.458  -2.184  25.183  0.00  0.00    +0.005 A 
ENDBRANCH  21  23
BRANCH   3   2
ATOM      1  C   UNL     1      -0.591  -1.159  24.423  0.00  0.00    +0.000 C 
ATOM      2  C   UNL     1      -0.995  -0.488  24.163  0.00  0.00    +0.002 C 
ENDBRANCH   3   2
BRANCH   8   9
ATOM      9  C   UNL     1      -0.865   0.976  24.911  0.00  0.00    +0.087 C 
BRANCH   9  10
ATOM     10  C   UNL     1      -0.730   1.617  25.415  0.00  0.00    +0.242 C 
ATOM     11  O   UNL     1      -0.479   1.487  26.189  0.00  0.00    -0.273 OA
ATOM     12  N   UNL     1      -0.846   2.387  25.142  0.00  0.00    -0.201 NA
BRANCH  12  13
ATOM     13  C   UNL     1      -0.711   3.026  25.645  0.00  0.00    +0.141 C 
BRANCH  13  14
ATOM     14  C   UNL     1      -0.931   3.787  25.412  0.00  0.00    -0.000 A 
ATOM     15  C   UNL     1      -0.431   4.230  24.926  0.00  0.00    -0.000 A 
ATOM     16  C   UNL     1      -0.651   4.990  24.693  0.00  0.00    +0.029 A 
ATOM     17  C   UNL     1      -1.368   5.308  24.946  0.00  0.00    +0.140 A 
ATOM     18  F   UNL     1      -1.587   6.068  24.714  0.00  0.00    -0.204 F 
ATOM     19  C   UNL     1      -1.867   4.867  25.432  0.00  0.00    +0.029 A 
ATOM     20  C   UNL     1      -1.648   4.106  25.666  0.00  0.00    -0.000 A 
ENDBRANCH  13  14
ENDBRANCH  12  13
ENDBRANCH   9  10
ENDBRANCH   8   9
TORSDOF 6
ENDMDL
MODEL 3
REMARK VINA RESULT:     -11.7      2.024      5.463
REMARK  Name = 
REMARK  6 active torsions:
REMARK  status: ('A' for Active; 'I' for Inactive)
REMARK    1  A    between atoms: C_2  and  C_3
REMARK    2  A    between atoms: C_8  and  C_9
REMARK    3  A    between atoms: C_9  and  C_10
REMARK    4  A    between atoms: N_12  and  C_13
REMARK    5  A    between atoms: C_13  and  C_14
REMARK    6  A    between atoms: C_21  and  C_23
REMARK                            x       y       z     vdW  Elec       q    Type
REMARK                         _______ _______ _______ _____ _____    ______ ____
ROOT
ATOM      3  C   UNL     1      -3.650   0.630  24.090  0.00  0.00    +0.020 C 
ATOM      4  C   UNL     1      -3.579  -0.138  24.380  0.00  0.00    +0.094 C 
ATOM      5  N   UNL     1      -3.780  -0.305  25.162  0.00  0.00    -0.276 N 
ATOM      6  C   UNL     1      -4.053   0.298  25.655  0.00  0.00    +0.094 C 
ATOM      7  C   UNL     1      -4.125   1.067  25.365  0.00  0.00    +0.022 C 
ATOM      8  C   UNL     1      -3.923   1.234  24.583  0.00  0.00    +0.012 C 
ATOM     21  C   UNL     1      -3.709  -1.074  25.452  0.00  0.00    +0.249 C 
ATOM     22  O   UNL     1      -3.910  -1.241  26.234  0.00  0.00    -0.270 OA
ENDROOT
BRANCH  21  23
ATOM     23  C   UNL     1      -3.436  -1.677  24.959  0.00  0.00    +0.054 A 
ATOM     24  C   UNL     1      -3.964  -2.084  24.474  0.00  0.00    +0.005 A 
ATOM     25  C   UNL     1      -3.690  -2.687  23.981  0.00  0.00    +0.000 A 
ATOM     26  C   UNL     1      -2.888  -2.881  23.973  0.00  0.00    +0.000 A 
ATOM     27  C   UNL     1      -2.361  -2.473  24.457  0.00  0.00    +0.000 A 
ATOM     28  C   UNL     1      -2.634  -1.871  24.950  0.00  0.00    +0.005 A 
ENDBRANCH  21  23
BRANCH   3   2
ATOM      1  C   UNL     1      -2.661   0.751  23.066  0.00  0.00    +0.000 C 
ATOM      2  C   UNL     1      -3.449   0.797  23.307  0.00  0.00    +0.002 C 
ENDBRANCH   3   2
BRANCH   8   9
ATOM      9  C   UNL     1      -3.995   2.002  24.293  0.00  0.00    +0.087 C 
BRANCH   9  10
ATOM     10  C   UNL     1      -3.859   2.646  24.793  0.00  0.00    +0.242 C 
ATOM     11  O   UNL     1      -4.435   2.875  25.335  0.00  0.00    -0.273 OA
ATOM     12  N   UNL     1      -3.146   3.059  24.748  0.00  0.00    -0.201 NA
BRANCH  12  13
ATOM     13  C   UNL     1      -3.011   3.701  25.247  0.00  0.00    +0.141 C 
BRANCH  13  14
ATOM     14  C   UNL     1      -2.313   4.137  25.179  0.00  0.00    -0.000 A 
ATOM     15  C   UNL     1      -1.585   3.748  25.151  0.00  0.00    -0.000 A 
ATOM     16  C   UNL     1      -0.888   4.183  25.082  0.00  0.00    +0.029 A 
ATOM     17  C   UNL     1      -0.918   5.007  25.042  0.00  0.00    +0.140 A 
ATOM     18  F   UNL     1      -0.221   5.441  24.974  0.00  0.00    -0.204 F 
ATOM     19  C   UNL     1      -1.645   5.395  25.070  0.00  0.00    +0.029 A 
ATOM     20  C   UNL     1      -2.343   4.960  25.138  0.00  0.00    -0.000 A 
ENDBRANCH  13  14
ENDBRANCH  12  13
ENDBRANCH   9  10
ENDBRANCH   8   9
TORSDOF 6
ENDMDL
MODEL 4
REMARK VINA RESULT:     -11.4      2.001      2.480
REMARK  Name = 
REMARK  6 active torsions:
REMARK  status: ('A' for Active; 'I' for Inactive)
REMARK    1  A    between atoms: C_2  and  C_3
REMARK    2  A    between atoms: C_8  and  C_9
REMARK    3  A    between atoms: C_9  and  C_10
REMARK    4  A    between atoms: N_12  and  C_13
REMARK    5  A    between atoms: C_13  and  C_14
REMARK    6  A    between atoms: C_21  and  C_23
REMARK                            x       y       z     vdW  Elec       q    Type
REMARK                         _______ _______ _______ _____ _____    ______ ____
ROOT
ATOM      3  C   UNL     1      -1.142   1.813  24.118  0.00  0.00    +0.020 C 
ATOM      4  C   UNL     1      -1.140   2.483  24.599  0.00  0.00    +0.094 C 
ATOM      5  N   UNL     1      -0.831   2.443  25.362  0.00  0.00    -0.276 N 
ATOM      6  C   UNL     1      -0.524   1.732  25.646  0.00  0.00    +0.094 C 
ATOM      7  C   UNL     1      -0.526   1.061  25.165  0.00  0.00    +0.022 C 
ATOM      8  C   UNL     1      -0.835   1.101  24.402  0.00  0.00    +0.012 C 
ATOM     21  C   UNL     1      -0.829   3.114  25.843  0.00  0.00    +0.249 C 
ATOM     22  O   UNL     1      -0.520   3.074  26.606  0.00  0.00    -0.270 OA
ENDROOT
BRANCH  21  23
ATOM     23  C   UNL     1      -1.137   3.825  25.559  0.00  0.00    +0.054 A 
ATOM     24  C   UNL     1      -0.658   4.339  25.127  0.00  0.00    +0.005 A 
ATOM     25  C   UNL     1      -0.966   5.050  24.843  0.00  0.00    +0.000 A 
ATOM     26  C   UNL     1      -1.754   5.246  24.991  0.00  0.00    +0.000 A 
ATOM     27  C   UNL     1      -2.232   4.733  25.423  0.00  0.00    +0.000 A 
ATOM     28  C   UNL     1      -1.925   4.022  25.707  0.00  0.00    +0.005 A 
ENDBRANCH  21  23
BRANCH   3   2
ATOM      1  C   UNL     1      -2.253   2.014  23.242  0.00  0.00    +0.000 C 
ATOM      2  C   UNL     1      -1.451   1.854  23.354  0.00  0.00    +0.002 C 
ENDBRANCH   3   2
BRANCH   8   9
ATOM      9  C   UNL     1      -0.837   0.431  23.922  0.00  0.00    +0.087 C 
BRANCH   9  10
ATOM     10  C   UNL     1      -0.821  -0.321  24.263  0.00  0.00    +0.242 C 
ATOM     11  O   UNL     1      -0.110  -0.634  24.537  0.00  0.00    -0.273 OA
ATOM     12  N   UNL     1      -1.517  -0.757  24.329  0.00  0.00    -0.201 NA
BRANCH  12  13
ATOM     13  C   UNL     1      -1.501  -1.508  24.670  0.00  0.00    +0.141 C 
BRANCH  13  14
ATOM     14  C   UNL     1      -2.179  -1.980  24.661  0.00  0.00    -0.000 A 
ATOM     15  C   UNL     1      -2.852  -1.742  25.077  0.00  0.00    -0.000 A 
ATOM     16  C   UNL     1      -3.529  -2.213  25.068  0.00  0.00    +0.029 A 
ATOM     17  C   UNL     1      -3.534  -2.921  24.645  0.00  0.00    +0.140 A 
ATOM     18  F   UNL     1      -4.211  -3.391  24.637  0.00  0.00    -0.204 F 
ATOM     19  C   UNL     1      -2.862  -3.158  24.230  0.00  0.00    +0.029 A 
ATOM     20  C   UNL     1      -2.184  -2.688  24.238  0.00  0.00    -0.000 A 
ENDBRANCH  13  14
ENDBRANCH  12  13
ENDBRANCH   9  10
ENDBRANCH   8   9
TORSDOF 6
ENDMDL
