MODEL 1
REMARK VINA RESULT:     -15.2      0.000      0.000
REMARK  Name = 
REMARK  5 active torsions:
REMARK  status: ('A' for Active; 'I' for Inactive)
REMARK    1  A    between atoms: O_2  and  C_3
REMARK    2  A    between atoms: C_6  and  C_9
REMARK    3  A    between atoms: N_11  and  C_12
REMARK    4  A    between atoms: N_20  and  S_22
REMARK    5  A    between atoms: S_22  and  C_25
REMARK                            x       y       z     vdW  Elec       q    Type
REMARK                         _______ _______ _______ _____ _____    ______ ____
ROOT
ATOM     12  C   UNL     1      -2.513   0.438  24.301  0.00  0.00    +0.130 A 
ATOM     13  C   UNL     1      -2.171   1.172  24.145  0.00  0.00    +0.023 A 
ATOM     14  C   UNL     1      -2.625   1.859  24.198  0.00  0.00    +0.014 A 
ATOM     15  C   UNL     1      -3.421   1.811  24.408  0.00  0.00    +0.041 A 
ATOM     16  C   UNL     1      -4.156   2.345  24.548  0.00  0.00    +0.056 C 
ATOM     17  C   UNL     1      -4.357   3.017  24.538  0.00  0.00    +0.011 C 
ATOM     18  C   UNL     1      -4.692   2.291  24.692  0.00  0.00    +0.041 C 
ATOM     19  C   UNL     1      -5.269   1.519  24.912  0.00  0.00    +0.098 C 
ATOM     20  N   UNL     1      -4.714   0.900  24.826  0.00  0.00    -0.155 NA
ATOM     21  C   UNL     1      -4.726   1.610  24.763  0.00  0.00    +0.102 C 
ATOM     32  C   UNL     1      -3.930   1.724  24.547  0.00  0.00    +0.110 C 
ATOM     33  N   UNL     1      -3.763   1.076  24.564  0.00  0.00    -0.298 N 
ATOM     34  C   UNL     1      -3.309   0.390  24.510  0.00  0.00    +0.276 A 
ATOM     35  O   UNL     1      -3.651  -0.345  24.666  0.00  0.00    -0.266 OA
ENDROOT
BRANCH  12  11
ATOM      9  C   UNL     1      -1.261  -0.232  24.456  0.00  0.00    +0.269 C 
ATOM     10  O   UNL     1      -0.806  -0.920  24.402  0.00  0.00    -0.268 OA
ATOM     11  N   UNL     1      -2.059  -0.248  24.247  0.00  0.00    -0.171 NA
BRANCH   9   6
ATOM      3  C   UNL     1      -0.232   1.873  25.249  0.00  0.00    +0.139 A 
ATOM      4  C   UNL     1      -0.234   1.693  24.443  0.00  0.00    +0.037 A 
ATOM      5  C   UNL     1      -0.577   0.991  24.179  0.00  0.00    +0.008 A 
ATOM      6  C   UNL     1      -0.918   0.470  24.720  0.00  0.00    +0.056 A 
ATOM      7  C   UNL     1      -0.915   0.650  25.526  0.00  0.00    +0.008 A 
ATOM      8  C   UNL     1      -0.572   1.352  25.790  0.00  0.00    +0.037 A 
BRANCH   3   2
ATOM      1  C   UNL     1       0.175   2.725  26.322  0.00  0.00    +0.252 C 
ATOM      2  O   UNL     1       0.112   2.576  25.513  0.00  0.00    -0.471 OA
ENDBRANCH   3   2
ENDBRANCH   9   6
ENDBRANCH  12  11
BRANCH  20  22
ATOM     22  S   UNL     1      -4.413   0.132  24.819  0.00  0.00    +0.063 S 
ATOM     23  O   UNL     1      -4.573   0.077  24.011  0.00  0.00    -0.153 OA
ATOM     24  O   UNL     1      -4.253   0.187  25.627  0.00  0.00    -0.153 OA
BRANCH  22  25
ATOM     25  C   UNL     1      -4.112  -0.636  24.812  0.00  0.00    +0.122 A 
ATOM     26  C   UNL     1      -4.102  -1.069  24.110  0.00  0.00    +0.021 A 
ATOM     27  C   UNL     1      -3.801  -1.838  24.103  0.00  0.00    +0.013 A 
ATOM     28  C   UNL     1      -3.510  -2.172  24.799  0.00  0.00    +0.058 A 
ATOM     29 CL   UNL     1      -3.209  -2.941  24.792  0.00  0.00    -0.082 Cl
ATOM     30  C   UNL     1      -3.520  -1.739  25.501  0.00  0.00    +0.013 A 
ATOM     31  C   UNL     1      -3.821  -0.971  25.507  0.00  0.00    +0.021 A 
ENDBRANCH  22  25
ENDBRANCH  20  22
TORSDOF 5
ENDMDL
MODEL 2
REMARK VINA RESULT:     -14.9      2.078      3.626
REMARK  Name = 
REMARK  5 active torsions:
REMARK  status: ('A' for Active; 'I' for Inactive)
REMARK    1  A    between atoms: O_2  and  C_3
REMARK    2  A    between atoms: C_6  and  C_9
REMARK    3  A    between atoms: N_11  and  C_12
REMARK    4  A    between atoms: N_20  and  S_22
REMARK    5  A    between atoms: S_22  and  C_25
REMARK                            x       y       z     vdW  Elec       q    Type
REMARK                         _______ _______ _______ _____ _____    ______ ____
ROOT
ATOM     12  C   UNL     1      -3.248   1.602  24.689  0.00  0.00    +0.130 A 
ATOM     13  C   UNL     1      -3.710   0.936  24.531  0.00  0.00    +0.023 A 
ATOM     14  C   UNL     1      -4.526   0.963  24.648  0.00  0.00    +0.014 A 
ATOM     15  C   UNL     1      -4.881   1.655  24.922  0.00  0.00    +0.041 A 
ATOM     16  C   UNL     1      -5.705   1.996  25.142  0.00  0.00    +0.056 C 
ATOM     17  C   UNL     1      -6.384   1.819  25.173  0.00  0.00    +0.011 C 
ATOM     18  C   UNL     1      -5.925   2.474  25.328  0.00  0.00    +0.041 C 
ATOM     19  C   UNL     1      -5.548   3.355  25.567  0.00  0.00    +0.098 C 
ATOM     20  N   UNL     1      -4.740   3.209  25.412  0.00  0.00    -0.155 NA
ATOM     21  C   UNL     1      -5.357   2.853  25.377  0.00  0.00    +0.102 C 
ATOM     32  C   UNL     1      -5.059   2.127  25.100  0.00  0.00    +0.110 C 
ATOM     33  N   UNL     1      -4.419   2.321  25.079  0.00  0.00    -0.298 N 
ATOM     34  C   UNL     1      -3.603   2.294  24.962  0.00  0.00    +0.276 A 
ATOM     35  O   UNL     1      -3.141   2.960  25.120  0.00  0.00    -0.266 OA
ENDROOT
BRANCH  12  11
ATOM      9  C   UNL     1      -2.033   0.854  24.619  0.00  0.00    +0.269 C 
ATOM     10  O   UNL     1      -1.216   0.827  24.502  0.00  0.00    -0.268 OA
ATOM     11  N   UNL     1      -2.433   1.574  24.572  0.00  0.00    -0.171 NA
BRANCH   9   6
ATOM      3  C   UNL     1      -3.282  -1.225  25.111  0.00  0.00    +0.139 A 
ATOM      4  C   UNL     1      -3.206  -0.964  24.331  0.00  0.00    +0.037 A 
ATOM      5  C   UNL     1      -2.789  -0.271  24.167  0.00  0.00    +0.008 A 
ATOM      6  C   UNL     1      -2.450   0.161  24.782  0.00  0.00    +0.056 A 
ATOM      7  C   UNL     1      -2.526  -0.100  25.562  0.00  0.00    +0.008 A 
ATOM      8  C   UNL     1      -2.943  -0.793  25.726  0.00  0.00    +0.037 A 
BRANCH   3   2
ATOM      1  C   UNL     1      -3.436  -2.638  24.970  0.00  0.00    +0.252 C 
ATOM      2  O   UNL     1      -3.699  -1.918  25.274  0.00  0.00    -0.471 OA
ENDBRANCH   3   2
ENDBRANCH   9   6
ENDBRANCH  12  11
BRANCH  20  22
ATOM     22  S   UNL     1      -3.930   3.353  25.353  0.00  0.00    +0.063 S 
ATOM     23  O   UNL     1      -3.831   3.123  26.139  0.00  0.00    -0.153 OA
ATOM     24  O   UNL     1      -4.029   3.582  24.566  0.00  0.00    -0.153 OA
BRANCH  22  25
ATOM     25  C   UNL     1      -3.119   3.496  25.293  0.00  0.00    +0.122 A 
ATOM     26  C   UNL     1      -2.794   3.731  24.572  0.00  0.00    +0.021 A 
ATOM     27  C   UNL     1      -1.984   3.875  24.512  0.00  0.00    +0.013 A 
ATOM     28  C   UNL     1      -1.499   3.783  25.173  0.00  0.00    +0.058 A 
ATOM     29 CL   UNL     1      -0.689   3.927  25.114  0.00  0.00    -0.082 Cl
ATOM     30  C   UNL     1      -1.824   3.548  25.894  0.00  0.00    +0.013 A 
ATOM     31  C   UNL     1      -2.635   3.405  25.954  0.00  0.00    +0.021 A 
ENDBRANCH  22  25
ENDBRANCH  20  22
TORSDOF 5
ENDMDL
MODEL 3
REMARK VINA RESULT:     -14.3      1.850      4.144
REMARK  Name = 
REMARK  5 active torsions:
REMARK  status: ('A' for Active; 'I' for Inactive)
REMARK    1  A    between atoms: O_2  and  C_3
REMARK    2  A    between atoms: C_6  and  C_9
REMARK    3  A    between atoms: N_11  and  C_12
REMARK    4  A    between atoms: N_20  and  S_22
REMARK    5  A    between atoms: S_22  and  C_25
REMARK                            x       y       z     vdW  Elec       q    Type
REMARK                         _______ _______ _______ _____ _____    ______ ____
ROOT
ATOM     12  C   UNL     1      -3.214   1.223  24.432  0.00  0.00    +0.130 A 
ATOM     13  C   UNL     1      -2.921   0.485  24.206  0.00  0.00    +0.023 A 
ATOM     14  C   UNL     1      -2.111   0.379  24.095  0.00  0.00    +0.014 A 
ATOM     15  C   UNL     1      -1.593   1.010  24.210  0.00  0.00    +0.041 A 
ATOM     16  C   UNL     1      -0.698   1.215  24.173  0.00  0.00    +0.056 C 
ATOM     17  C   UNL     1      -0.073   0.928  24.033  0.00  0.00    +0.011 C 
ATOM     18  C   UNL     1      -0.365   1.655  24.256  0.00  0.00    +0.041 C 
ATOM     19  C   UNL     1      -0.521   2.594  24.521  0.00  0.00    +0.098 C 
ATOM     20  N   UNL     1      -1.353   2.580  24.602  0.00  0.00    -0.155 NA
ATOM     21  C   UNL     1      -0.832   2.125  24.428  0.00  0.00    +0.102 C 
ATOM     32  C   UNL     1      -1.302   1.451  24.297  0.00  0.00    +0.110 C 
ATOM     33  N   UNL     1      -1.885   1.748  24.436  0.00  0.00    -0.298 N 
ATOM     34  C   UNL     1      -2.696   1.854  24.547  0.00  0.00    +0.276 A 
ATOM     35  O   UNL     1      -2.988   2.592  24.773  0.00  0.00    -0.266 OA
ENDROOT
BRANCH  12  11
ATOM      9  C   UNL     1      -4.501   0.684  24.736  0.00  0.00    +0.269 C 
ATOM     10  O   UNL     1      -5.313   0.790  24.847  0.00  0.00    -0.268 OA
ATOM     11  N   UNL     1      -4.024   1.328  24.543  0.00  0.00    -0.171 NA
BRANCH   9   6
ATOM      3  C   UNL     1      -3.503  -1.566  24.986  0.00  0.00    +0.139 A 
ATOM      4  C   UNL     1      -3.781  -1.317  24.249  0.00  0.00    +0.037 A 
ATOM      5  C   UNL     1      -4.115  -0.567  24.167  0.00  0.00    +0.008 A 
ATOM      6  C   UNL     1      -4.168  -0.066  24.819  0.00  0.00    +0.056 A 
ATOM      7  C   UNL     1      -3.889  -0.314  25.556  0.00  0.00    +0.008 A 
ATOM      8  C   UNL     1      -3.556  -1.065  25.638  0.00  0.00    +0.037 A 
BRANCH   3   2
ATOM      1  C   UNL     1      -3.492  -2.957  24.662  0.00  0.00    +0.252 C 
ATOM      2  O   UNL     1      -3.169  -2.316  25.069  0.00  0.00    -0.471 OA
ENDBRANCH   3   2
ENDBRANCH   9   6
ENDBRANCH  12  11
BRANCH  20  22
ATOM     22  S   UNL     1      -2.116   2.855  24.754  0.00  0.00    +0.063 S 
ATOM     23  O   UNL     1      -2.024   2.670  25.553  0.00  0.00    -0.153 OA
ATOM     24  O   UNL     1      -2.208   3.039  23.954  0.00  0.00    -0.153 OA
BRANCH  22  25
ATOM     25  C   UNL     1      -2.879   3.130  24.905  0.00  0.00    +0.122 A 
ATOM     26  C   UNL     1      -3.356   3.387  24.282  0.00  0.00    +0.021 A 
ATOM     27  C   UNL     1      -4.119   3.662  24.434  0.00  0.00    +0.013 A 
ATOM     28  C   UNL     1      -4.405   3.679  25.207  0.00  0.00    +0.058 A 
ATOM     29 CL   UNL     1      -5.168   3.955  25.358  0.00  0.00    -0.082 Cl
ATOM     30  C   UNL     1      -3.929   3.422  25.829  0.00  0.00    +0.013 A 
ATOM     31  C   UNL     1      -3.165   3.147  25.678  0.00  0.00    +0.021 A 
ENDBRANCH  22  25
ENDBRANCH  20  22
TORSDOF 5
ENDMDL
MODEL 4
REMARK VINA RESULT:     -14.1      1.670      3.866
REMARK  Name = 
REMARK  5 active torsions:
REMARK  status: ('A' for Active; 'I' for Inactive)
REMARK    1  A    between atoms: O_2  and  C_3
REMARK    2  A    between atoms: C_6  and  C_9
REMARK    3  A    between atoms: N_11  and  C_12
REMARK    4  A    between atoms: N_20  and  S_22
REMARK    5  A    between atoms: S_22  and  C_25
REMARK                            x       y       z     vdW  Elec       q    Type
REMARK                         _______ _______ _______ _____ _____    ______ ____
ROOT
ATOM     12  C   UNL     1      -2.778   1.080  24.242  0.00  0.00    +0.130 A 
ATOM     13  C   UNL     1      -3.563   0.968  24.016  0.00  0.00    +0.023 A 
ATOM     14  C   UNL     1      -3.899   0.215  24.047  0.00  0.00    +0.014 A 
ATOM     15  C   UNL     1      -3.448  -0.426  24.304  0.00  0.00    +0.041 A 
ATOM     16  C   UNL     1      -3.513  -1.332  24.448  0.00  0.00    +0.056 C 
ATOM     17  C   UNL     1      -3.966  -1.865  24.402  0.00  0.00    +0.011 C 
ATOM     18  C   UNL     1      -3.191  -1.751  24.625  0.00  0.00    +0.041 C 
ATOM     19  C   UNL     1      -2.254  -1.816  24.931  0.00  0.00    +0.098 C 
ATOM     20  N   UNL     1      -2.027  -1.015  24.857  0.00  0.00    -0.155 NA
ATOM     21  C   UNL     1      -2.609  -1.410  24.746  0.00  0.00    +0.102 C 
ATOM     32  C   UNL     1      -3.114  -0.806  24.478  0.00  0.00    +0.110 C 
ATOM     33  N   UNL     1      -2.663  -0.314  24.531  0.00  0.00    -0.298 N 
ATOM     34  C   UNL     1      -2.328   0.439  24.500  0.00  0.00    +0.276 A 
ATOM     35  O   UNL     1      -1.542   0.551  24.726  0.00  0.00    -0.266 OA
ENDROOT
BRANCH  12  11
ATOM      9  C   UNL     1      -2.905   2.497  24.376  0.00  0.00    +0.269 C 
ATOM     10  O   UNL     1      -2.569   3.251  24.344  0.00  0.00    -0.268 OA
ATOM     11  N   UNL     1      -2.444   1.833  24.211  0.00  0.00    -0.171 NA
BRANCH   9   6
ATOM      3  C   UNL     1      -5.293   2.229  24.966  0.00  0.00    +0.139 A 
ATOM      4  C   UNL     1      -5.068   2.293  24.174  0.00  0.00    +0.037 A 
ATOM      5  C   UNL     1      -4.272   2.382  23.978  0.00  0.00    +0.008 A 
ATOM      6  C   UNL     1      -3.701   2.407  24.572  0.00  0.00    +0.056 A 
ATOM      7  C   UNL     1      -3.926   2.343  25.364  0.00  0.00    +0.008 A 
ATOM      8  C   UNL     1      -4.722   2.254  25.561  0.00  0.00    +0.037 A 
BRANCH   3   2
ATOM      1  C   UNL     1      -6.325   2.173  25.952  0.00  0.00    +0.252 C 
ATOM      2  O   UNL     1      -6.089   2.139  25.162  0.00  0.00    -0.471 OA
ENDBRANCH   3   2
ENDBRANCH   9   6
ENDBRANCH  12  11
BRANCH  20  22
ATOM     22  S   UNL     1      -1.545  -0.346  24.888  0.00  0.00    +0.063 S 
ATOM     23  O   UNL     1      -1.325  -0.469  24.102  0.00  0.00    -0.153 OA
ATOM     24  O   UNL     1      -1.765  -0.223  25.674  0.00  0.00    -0.153 OA
BRANCH  22  25
ATOM     25  C   UNL     1      -1.063   0.323  24.918  0.00  0.00    +0.122 A 
ATOM     26  C   UNL     1      -0.654   0.568  24.244  0.00  0.00    +0.021 A 
ATOM     27  C   UNL     1      -0.172   1.237  24.275  0.00  0.00    +0.013 A 
ATOM     28  C   UNL     1      -0.099   1.661  24.979  0.00  0.00    +0.058 A 
ATOM     29 CL   UNL     1       0.383   2.330  25.009  0.00  0.00    -0.082 Cl
ATOM     30  C   UNL     1      -0.508   1.416  25.652  0.00  0.00    +0.013 A 
ATOM     31  C   UNL     1      -0.990   0.747  25.622  0.00  0.00    +0.021 A 
ENDBRANCH  22  25
ENDBRANCH  20  22
TORSDOF 5
ENDMDL
MODEL 5
REMARK VINA RESULT:     -13.9      1.505      3.519
REMARK  Name = 
REMARK  5 active torsions:
REMARK  status: ('A' for Active; 'I' for Inactive)
REMARK    1  A    between atoms: O_2  and  C_3
REMARK    2  A    between atoms: C_6  and  C_9
REMARK    3  A    between atoms: N_11  and  C_12
REMARK    4  A    between atoms: N_20  and  S_22
REMARK    5  A    between atoms: S_22  and  C_25
REMARK                            x       y       z     vdW  Elec       q    Type
REMARK                         _______ _______ _______ _____ _____    ______ ____
ROOT
ATOM     12  C   UNL     1      -2.323   1.268  24.375  0.00  0.00    +0.130 A 
ATOM     13  C   UNL     1      -2.692   1.992  24.229  0.00  0.00    +0.023 A 
ATOM     14  C   UNL     1      -2.348   2.692  24.497  0.00  0.00    +0.014 A 
ATOM     15  C   UNL     1      -1.635   2.669  24.910  0.00  0.00    +0.041 A 
ATOM     16  C   UNL     1      -1.027   3.226  25.318  0.00  0.00    +0.056 C 
ATOM     17  C   UNL     1      -0.906   3.904  25.453  0.00  0.00    +0.011 C 
ATOM     18  C   UNL     1      -0.545   3.188  25.595  0.00  0.00    +0.041 C 
ATOM     19  C   UNL     1       0.037   2.434  25.861  0.00  0.00    +0.098 C 
ATOM     20  N   UNL     1      -0.403   1.799  25.544  0.00  0.00    -0.155 NA
ATOM     21  C   UNL     1      -0.455   2.508  25.582  0.00  0.00    +0.102 C 
ATOM     32  C   UNL     1      -1.174   2.598  25.172  0.00  0.00    +0.110 C 
ATOM     33  N   UNL     1      -1.265   1.945  25.056  0.00  0.00    -0.298 N 
ATOM     34  C   UNL     1      -1.610   1.245  24.788  0.00  0.00    +0.276 A 
ATOM     35  O   UNL     1      -1.241   0.522  24.934  0.00  0.00    -0.266 OA
ENDROOT
BRANCH  12  11
ATOM      9  C   UNL     1      -3.489   0.495  24.086  0.00  0.00    +0.269 C 
ATOM     10  O   UNL     1      -3.834  -0.205  23.817  0.00  0.00    -0.268 OA
ATOM     11  N   UNL     1      -2.668   0.569  24.107  0.00  0.00    -0.171 NA
BRANCH   9   6
ATOM      3  C   UNL     1      -4.920   2.373  24.827  0.00  0.00    +0.139 A 
ATOM      4  C   UNL     1      -4.622   2.360  24.057  0.00  0.00    +0.037 A 
ATOM      5  C   UNL     1      -4.145   1.734  23.810  0.00  0.00    +0.008 A 
ATOM      6  C   UNL     1      -3.966   1.122  24.333  0.00  0.00    +0.056 A 
ATOM      7  C   UNL     1      -4.264   1.135  25.102  0.00  0.00    +0.008 A 
ATOM      8  C   UNL     1      -4.741   1.761  25.349  0.00  0.00    +0.037 A 
BRANCH   3   2
ATOM      1  C   UNL     1      -5.785   2.961  25.800  0.00  0.00    +0.252 C 
ATOM      2  O   UNL     1      -5.397   2.999  25.074  0.00  0.00    -0.471 OA
ENDBRANCH   3   2
ENDBRANCH   9   6
ENDBRANCH  12  11
BRANCH  20  22
ATOM     22  S   UNL     1      -0.604   1.022  25.352  0.00  0.00    +0.063 S 
ATOM     23  O   UNL     1      -0.997   0.945  26.074  0.00  0.00    -0.153 OA
ATOM     24  O   UNL     1      -0.211   1.098  24.631  0.00  0.00    -0.153 OA
BRANCH  22  25
ATOM     25  C   UNL     1      -0.805   0.244  25.161  0.00  0.00    +0.122 A 
ATOM     26  C   UNL     1      -0.594  -0.067  24.427  0.00  0.00    +0.021 A 
ATOM     27  C   UNL     1      -0.795  -0.844  24.235  0.00  0.00    +0.013 A 
ATOM     28  C   UNL     1      -1.206  -1.309  24.778  0.00  0.00    +0.058 A 
ATOM     29 CL   UNL     1      -1.407  -2.086  24.587  0.00  0.00    -0.082 Cl
ATOM     30  C   UNL     1      -1.417  -0.998  25.512  0.00  0.00    +0.013 A 
ATOM     31  C   UNL     1      -1.216  -0.221  25.704  0.00  0.00    +0.021 A 
ENDBRANCH  22  25
ENDBRANCH  20  22
TORSDOF 5
ENDMDL
