MODEL 1
REMARK VINA RESULT:     -10.4      0.000      0.000
REMARK  Name = 
REMARK  6 active torsions:
REMARK  status: ('A' for Active; 'I' for Inactive)
REMARK    1  A    between atoms: O_2  and  C_3
REMARK    2  A    between atoms: C_3  and  C_5
REMARK    3  A    between atoms: N_8  and  C_11
REMARK    4  A    between atoms: C_17  and  N_18
REMARK    5  A    between atoms: N_21  and  C_22
REMARK    6  A    between atoms: C_22  and  C_23
REMARK                            x       y       z     vdW  Elec       q    Type
REMARK                         _______ _______ _______ _____ _____    ______ ____
ROOT
ATOM     11  C   UNL     1      -3.842   1.442  24.583  0.00  0.00    +0.147 C 
ATOM     12  C   UNL     1      -4.665   1.098  24.967  0.00  0.00    +0.253 C 
ATOM     13  O   UNL     1      -4.893   0.248  25.033  0.00  0.00    -0.327 OA
ATOM     14  C   UNL     1      -4.480   0.820  24.862  0.00  0.00    +0.176 C 
ATOM     15  C   UNL     1      -4.421   1.596  24.873  0.00  0.00    +0.170 C 
ATOM     16  O   UNL     1      -5.028   1.808  25.180  0.00  0.00    -0.327 OA
ATOM     17  C   UNL     1      -3.638   1.938  24.510  0.00  0.00    +0.158 C 
ATOM     25  C   UNL     1      -3.276   1.224  24.297  0.00  0.00    +0.194 C 
ATOM     26  O   UNL     1      -2.712   0.702  23.995  0.00  0.00    -0.220 OA
ENDROOT
BRANCH  11   8
ATOM      5  C   UNL     1      -3.857  -1.030  24.463  0.00  0.00    +0.102 C 
ATOM      6  C   UNL     1      -4.038  -0.584  23.794  0.00  0.00    +0.028 C 
ATOM      7  C   UNL     1      -4.033   0.240  23.834  0.00  0.00    +0.073 C 
ATOM      8  N   UNL     1      -3.847   0.618  24.543  0.00  0.00    -0.268 NA
ATOM      9  C   UNL     1      -3.666   0.171  25.213  0.00  0.00    +0.073 C 
ATOM     10  C   UNL     1      -3.671  -0.653  25.173  0.00  0.00    +0.028 C 
BRANCH   5   3
ATOM      3  C   UNL     1      -3.862  -1.854  24.422  0.00  0.00    +0.317 C 
ATOM      4  O   UNL     1      -4.317  -2.237  23.851  0.00  0.00    -0.250 OA
BRANCH   3   2
ATOM      1  C   UNL     1      -3.316  -3.107  24.840  0.00  0.00    +0.256 C 
ATOM      2  O   UNL     1      -3.411  -2.296  24.954  0.00  0.00    -0.444 OA
ENDBRANCH   3   2
ENDBRANCH   5   3
ENDBRANCH  11   8
BRANCH  17  18
ATOM     18  N   UNL     1      -3.380   2.718  24.424  0.00  0.00    -0.184 NA
ATOM     19  C   UNL     1      -2.744   2.994  24.871  0.00  0.00    +0.340 C 
ATOM     20  O   UNL     1      -2.364   2.489  25.403  0.00  0.00    -0.249 OA
ATOM     21  N   UNL     1      -2.487   3.772  24.786  0.00  0.00    -0.182 NA
BRANCH  21  22
ATOM     22  C   UNL     1      -1.850   4.047  25.233  0.00  0.00    +0.143 C 
BRANCH  22  23
ATOM     23  C   UNL     1      -1.672   4.853  25.246  0.00  0.00    -0.003 C 
ATOM     24  C   UNL     1      -0.945   5.120  24.964  0.00  0.00    -0.003 C 
ENDBRANCH  22  23
ENDBRANCH  21  22
ENDBRANCH  17  18
TORSDOF 6
ENDMDL
MODEL 2
REMARK VINA RESULT:      -9.9      1.104      4.638
REMARK  Name = 
REMARK  6 active torsions:
REMARK  status: ('A' for Active; 'I' for Inactive)
REMARK    1  A    between atoms: O_2  and  C_3
REMARK    2  A    between atoms: C_3  and  C_5
REMARK    3  A    between atoms: N_8  and  C_11
REMARK    4  A    between atoms: C_17  and  N_18
REMARK    5  A    between atoms: N_21  and  C_22
REMARK    6  A    between atoms: C_22  and  C_23
REMARK                            x       y       z     vdW  Elec       q    Type
REMARK                         _______ _______ _______ _____ _____    ______ ____
ROOT
ATOM     11  C   UNL     1      -3.933   1.912  24.786  0.00  0.00    +0.147 C 
ATOM     12  C   UNL     1      -4.356   2.722  24.457  0.00  0.00    +0.253 C 
ATOM     13  O   UNL     1      -4.000   3.529  24.449  0.00  0.00    -0.327 OA
ATOM     14  C   UNL     1      -4.038   2.815  24.570  0.00  0.00    +0.176 C 
ATOM     15  C   UNL     1      -4.478   2.176  24.511  0.00  0.00    +0.170 C 
ATOM     16  O   UNL     1      -5.082   2.413  24.217  0.00  0.00    -0.327 OA
ATOM     17  C   UNL     1      -4.086   1.394  24.822  0.00  0.00    +0.158 C 
ATOM     25  C   UNL     1      -3.357   1.707  25.063  0.00  0.00    +0.194 C 
ATOM     26  O   UNL     1      -2.593   1.738  25.372  0.00  0.00    -0.220 OA
ENDROOT
BRANCH  11   8
ATOM      5  C   UNL     1      -2.395   3.833  25.053  0.00  0.00    +0.102 C 
ATOM      6  C   UNL     1      -2.909   3.629  25.664  0.00  0.00    +0.028 C 
ATOM      7  C   UNL     1      -3.422   2.989  25.575  0.00  0.00    +0.073 C 
ATOM      8  N   UNL     1      -3.420   2.552  24.875  0.00  0.00    -0.268 NA
ATOM      9  C   UNL     1      -2.905   2.757  24.263  0.00  0.00    +0.073 C 
ATOM     10  C   UNL     1      -2.392   3.397  24.352  0.00  0.00    +0.028 C 
BRANCH   5   3
ATOM      3  C   UNL     1      -1.882   4.473  25.142  0.00  0.00    +0.317 C 
ATOM      4  O   UNL     1      -2.093   5.108  25.625  0.00  0.00    -0.250 OA
BRANCH   3   2
ATOM      1  C   UNL     1      -0.639   5.114  24.846  0.00  0.00    +0.256 C 
ATOM      2  O   UNL     1      -1.157   4.479  24.748  0.00  0.00    -0.444 OA
ENDBRANCH   3   2
ENDBRANCH   5   3
ENDBRANCH  11   8
BRANCH  17  18
ATOM     18  N   UNL     1      -4.375   0.621  24.851  0.00  0.00    -0.184 NA
ATOM     19  C   UNL     1      -4.027   0.033  24.389  0.00  0.00    +0.340 C 
ATOM     20  O   UNL     1      -3.388   0.218  23.898  0.00  0.00    -0.249 OA
ATOM     21  N   UNL     1      -4.315  -0.739  24.417  0.00  0.00    -0.182 NA
BRANCH  21  22
ATOM     22  C   UNL     1      -3.967  -1.327  23.956  0.00  0.00    +0.143 C 
BRANCH  22  23
ATOM     23  C   UNL     1      -4.288  -2.087  23.943  0.00  0.00    -0.003 C 
ATOM     24  C   UNL     1      -3.808  -2.740  24.093  0.00  0.00    -0.003 C 
ENDBRANCH  22  23
ENDBRANCH  21  22
ENDBRANCH  17  18
TORSDOF 6
ENDMDL
MODEL 3
REMARK VINA RESULT:      -9.2      2.148      5.268
REMARK  Name = 
REMARK  6 active torsions:
REMARK  status: ('A' for Active; 'I' for Inactive)
REMARK    1  A    between atoms: O_2  and  C_3
REMARK    2  A    between atoms: C_3  and  C_5
REMARK    3  A    between atoms: N_8  and  C_11
REMARK    4  A    between atoms: C_17  and  N_18
REMARK    5  A    between atoms: N_21  and  C_22
REMARK    6  A    between atoms: C_22  and  C_23
REMARK                            x       y       z     vdW  Elec       q    Type
REMARK                         _______ _______ _______ _____ _____    ______ ____
ROOT
ATOM     11  C   UNL     1      -0.888   0.968  24.865  0.00  0.00    +0.147 C 
ATOM     12  C   UNL     1      -0.157   1.333  24.341  0.00  0.00    +0.253 C 
ATOM     13  O   UNL     1       0.027   2.189  24.230  0.00  0.00    -0.327 OA
ATOM     14  C   UNL     1      -0.330   1.606  24.475  0.00  0.00    +0.176 C 
ATOM     15  C   UNL     1      -0.364   0.829  24.479  0.00  0.00    +0.170 C 
ATOM     16  O   UNL     1       0.186   0.632  24.073  0.00  0.00    -0.327 OA
ATOM     17  C   UNL     1      -1.059   0.466  24.977  0.00  0.00    +0.158 C 
ATOM     25  C   UNL     1      -1.402   1.171  25.246  0.00  0.00    +0.194 C 
ATOM     26  O   UNL     1      -1.921   1.679  25.638  0.00  0.00    -0.220 OA
ENDROOT
BRANCH  11   8
ATOM      5  C   UNL     1      -0.936   3.440  24.965  0.00  0.00    +0.102 C 
ATOM      6  C   UNL     1      -0.565   3.011  25.563  0.00  0.00    +0.028 C 
ATOM      7  C   UNL     1      -0.549   2.187  25.530  0.00  0.00    +0.073 C 
ATOM      8  N   UNL     1      -0.904   1.792  24.898  0.00  0.00    -0.268 NA
ATOM      9  C   UNL     1      -1.275   2.222  24.300  0.00  0.00    +0.073 C 
ATOM     10  C   UNL     1      -1.291   3.046  24.333  0.00  0.00    +0.028 C 
BRANCH   5   3
ATOM      3  C   UNL     1      -0.951   4.265  24.998  0.00  0.00    +0.317 C 
ATOM      4  O   UNL     1      -0.309   4.702  24.720  0.00  0.00    -0.250 OA
BRANCH   3   2
ATOM      1  C   UNL     1      -1.699   5.465  25.205  0.00  0.00    +0.256 C 
ATOM      2  O   UNL     1      -1.609   4.652  25.311  0.00  0.00    -0.444 OA
ENDBRANCH   3   2
ENDBRANCH   5   3
ENDBRANCH  11   8
BRANCH  17  18
ATOM     18  N   UNL     1      -1.272  -0.321  25.112  0.00  0.00    -0.184 NA
ATOM     19  C   UNL     1      -1.965  -0.623  24.781  0.00  0.00    +0.340 C 
ATOM     20  O   UNL     1      -2.445  -0.139  24.316  0.00  0.00    -0.249 OA
ATOM     21  N   UNL     1      -2.176  -1.408  24.915  0.00  0.00    -0.182 NA
BRANCH  21  22
ATOM     22  C   UNL     1      -2.869  -1.711  24.584  0.00  0.00    +0.143 C 
BRANCH  22  23
ATOM     23  C   UNL     1      -3.140  -2.458  24.804  0.00  0.00    -0.003 C 
ATOM     24  C   UNL     1      -3.721  -2.835  24.357  0.00  0.00    -0.003 C 
ENDBRANCH  22  23
ENDBRANCH  21  22
ENDBRANCH  17  18
TORSDOF 6
ENDMDL
MODEL 4
REMARK VINA RESULT:      -9.1      1.626      2.184
REMARK  Name = 
REMARK  6 active torsions:
REMARK  status: ('A' for Active; 'I' for Inactive)
REMARK    1  A    between atoms: O_2  and  C_3
REMARK    2  A    between atoms: C_3  and  C_5
REMARK    3  A    between atoms: N_8  and  C_11
REMARK    4  A    between atoms: C_17  and  N_18
REMARK    5  A    between atoms: N_21  and  C_22
REMARK    6  A    between atoms: C_22  and  C_23
REMARK                            x       y       z     vdW  Elec       q    Type
REMARK                         _______ _______ _______ _____ _____    ______ ____
ROOT
ATOM     11  C   UNL     1      -1.497   0.592  25.034  0.00  0.00    +0.147 C 
ATOM     12  C   UNL     1      -1.291  -0.072  25.712  0.00  0.00    +0.253 C 
ATOM     13  O   UNL     1      -1.693  -0.850  25.818  0.00  0.00    -0.327 OA
ATOM     14  C   UNL     1      -1.554  -0.203  25.521  0.00  0.00    +0.176 C 
ATOM     15  C   UNL     1      -1.112   0.437  25.554  0.00  0.00    +0.170 C 
ATOM     16  O   UNL     1      -0.677   0.316  26.105  0.00  0.00    -0.327 OA
ATOM     17  C   UNL     1      -1.299   1.080  24.910  0.00  0.00    +0.158 C 
ATOM     25  C   UNL     1      -1.915   0.689  24.518  0.00  0.00    +0.194 C 
ATOM     26  O   UNL     1      -2.517   0.546  23.971  0.00  0.00    -0.220 OA
ENDROOT
BRANCH  11   8
ATOM      5  C   UNL     1      -2.992  -1.365  24.778  0.00  0.00    +0.102 C 
ATOM      6  C   UNL     1      -3.229  -0.722  25.237  0.00  0.00    +0.028 C 
ATOM      7  C   UNL     1      -2.731  -0.070  25.322  0.00  0.00    +0.073 C 
ATOM      8  N   UNL     1      -1.995  -0.060  24.949  0.00  0.00    -0.268 NA
ATOM      9  C   UNL     1      -1.758  -0.704  24.490  0.00  0.00    +0.073 C 
ATOM     10  C   UNL     1      -2.256  -1.356  24.405  0.00  0.00    +0.028 C 
BRANCH   5   3
ATOM      3  C   UNL     1      -3.491  -2.017  24.693  0.00  0.00    +0.317 C 
ATOM      4  O   UNL     1      -3.585  -2.549  25.317  0.00  0.00    -0.250 OA
BRANCH   3   2
ATOM      1  C   UNL     1      -4.330  -2.828  23.869  0.00  0.00    +0.256 C 
ATOM      2  O   UNL     1      -3.895  -2.136  23.984  0.00  0.00    -0.444 OA
ENDBRANCH   3   2
ENDBRANCH   5   3
ENDBRANCH  11   8
BRANCH  17  18
ATOM     18  N   UNL     1      -0.955   1.818  24.771  0.00  0.00    -0.184 NA
ATOM     19  C   UNL     1      -1.343   2.506  25.011  0.00  0.00    +0.340 C 
ATOM     20  O   UNL     1      -2.075   2.455  25.390  0.00  0.00    -0.249 OA
ATOM     21  N   UNL     1      -0.999   3.242  24.872  0.00  0.00    -0.182 NA
BRANCH  21  22
ATOM     22  C   UNL     1      -1.387   3.930  25.112  0.00  0.00    +0.143 C 
BRANCH  22  23
ATOM     23  C   UNL     1      -1.006   4.660  25.058  0.00  0.00    -0.003 C 
ATOM     24  C   UNL     1      -1.446   5.356  25.066  0.00  0.00    -0.003 C 
ENDBRANCH  22  23
ENDBRANCH  21  22
ENDBRANCH  17  18
TORSDOF 6
ENDMDL
