MODEL 1
REMARK VINA RESULT:     -12.3      0.000      0.000
REMARK  Name = 
REMARK  6 active torsions:
REMARK  status: ('A' for Active; 'I' for Inactive)
REMARK    1  A    between atoms: N_2  and  C_4
REMARK    2  A    between atoms: C_7  and  C_10
REMARK    3  A    between atoms: N_14  and  C_15
REMARK    4  A    between atoms: C_19  and  O_23
REMARK    5  A    between atoms: O_23  and  C_24
REMARK    6  A    between atoms: N_26  and  C_27
REMARK                            x       y       z     vdW  Elec       q    Type
REMARK                         _______ _______ _______ _____ _____    ______ ____
ROOT
ATOM     15  C   UNL     1      -0.990   3.118  25.426  0.00  0.00    +0.167 C 
ATOM     16  C   UNL     1      -1.131   2.824  26.184  0.00  0.00    +0.169 C 
ATOM     17  O   UNL     1      -1.015   2.008  26.165  0.00  0.00    -0.348 OA
ATOM     18  C   UNL     1      -0.802   1.797  25.397  0.00  0.00    +0.187 C 
ATOM     19  C   UNL     1      -0.599   1.163  24.910  0.00  0.00    +0.229 C 
ATOM     20  C   UNL     1      -0.458   1.457  24.153  0.00  0.00    +0.188 C 
ATOM     21  O   UNL     1      -0.574   2.273  24.171  0.00  0.00    -0.348 OA
ATOM     22  C   UNL     1      -0.787   2.484  24.940  0.00  0.00    +0.171 C 
ENDROOT
BRANCH  15  14
ATOM     10  C   UNL     1      -1.741   4.336  25.088  0.00  0.00    +0.184 A 
ATOM     11  N   UNL     1      -1.537   5.102  24.857  0.00  0.00    -0.108 NA
ATOM     12  N   UNL     1      -0.714   5.148  24.822  0.00  0.00    -0.023 NA
ATOM     13  N   UNL     1      -0.409   4.410  25.031  0.00  0.00    -0.043 NA
ATOM     14  N   UNL     1      -1.044   3.909  25.195  0.00  0.00    -0.210 N 
BRANCH  10   7
ATOM      4  C   UNL     1      -4.039   3.475  25.401  0.00  0.00    +0.048 A 
ATOM      5  C   UNL     1      -3.697   3.474  24.650  0.00  0.00    +0.015 A 
ATOM      6  C   UNL     1      -2.931   3.761  24.545  0.00  0.00    +0.004 A 
ATOM      7  C   UNL     1      -2.507   4.049  25.192  0.00  0.00    +0.037 A 
ATOM      8  C   UNL     1      -2.848   4.050  25.943  0.00  0.00    +0.004 A 
ATOM      9  C   UNL     1      -3.615   3.763  26.047  0.00  0.00    +0.015 A 
BRANCH   4   2
ATOM      1  C   UNL     1      -5.423   3.709  25.670  0.00  0.00    +0.112 C 
ATOM      2  N   UNL     1      -4.806   3.187  25.506  0.00  0.00    -0.304 N 
ATOM      3  C   UNL     1      -4.954   2.378  25.447  0.00  0.00    +0.112 C 
ENDBRANCH   4   2
ENDBRANCH  10   7
ENDBRANCH  15  14
BRANCH  19  23
ATOM     23  O   UNL     1      -0.545   0.373  25.141  0.00  0.00    -0.432 OA
BRANCH  23  24
ATOM     24  C   UNL     1      -1.106  -0.173  24.879  0.00  0.00    +0.421 C 
ATOM     25  O   UNL     1      -1.341  -0.175  24.088  0.00  0.00    -0.225 OA
ATOM     26  N   UNL     1      -1.432  -0.716  25.407  0.00  0.00    -0.170 NA
BRANCH  26  27
ATOM     27  C   UNL     1      -1.993  -1.262  25.145  0.00  0.00    +0.099 C 
ATOM     28  C   UNL     1      -1.752  -1.942  24.746  0.00  0.00    +0.022 C 
ATOM     29  C   UNL     1      -2.312  -2.487  24.484  0.00  0.00    +0.002 C 
ATOM     30  C   UNL     1      -3.115  -2.352  24.621  0.00  0.00    +0.000 C 
ATOM     31  C   UNL     1      -3.356  -1.671  25.020  0.00  0.00    +0.002 C 
ATOM     32  C   UNL     1      -2.795  -1.126  25.282  0.00  0.00    +0.022 C 
ENDBRANCH  26  27
ENDBRANCH  23  24
ENDBRANCH  19  23
TORSDOF 6
ENDMDL
MODEL 2
REMARK VINA RESULT:     -11.8      1.331      4.557
REMARK  Name = 
REMARK  6 active torsions:
REMARK  status: ('A' for Active; 'I' for Inactive)
REMARK    1  A    between atoms: N_2  and  C_4
REMARK    2  A    between atoms: C_7  and  C_10
REMARK    3  A    between atoms: N_14  and  C_15
REMARK    4  A    between atoms: C_19  and  O_23
REMARK    5  A    between atoms: O_23  and  C_24
REMARK    6  A    between atoms: N_26  and  C_27
REMARK                            x       y       z     vdW  Elec       q    Type
REMARK                         _______ _______ _______ _____ _____    ______ ____
ROOT
ATOM     15  C   UNL     1      -1.497  -0.618  25.070  0.00  0.00    +0.167 C 
ATOM     16  C   UNL     1      -1.517  -0.349  25.849  0.00  0.00    +0.169 C 
ATOM     17  O   UNL     1      -1.077   0.347  25.889  0.00  0.00    -0.348 OA
ATOM     18  C   UNL     1      -0.786   0.510  25.135  0.00  0.00    +0.187 C 
ATOM     19  C   UNL     1      -0.335   1.040  24.693  0.00  0.00    +0.229 C 
ATOM     20  C   UNL     1      -0.315   0.772  23.914  0.00  0.00    +0.188 C 
ATOM     21  O   UNL     1      -0.755   0.075  23.873  0.00  0.00    -0.348 OA
ATOM     22  C   UNL     1      -1.046  -0.087  24.629  0.00  0.00    +0.171 C 
ENDROOT
BRANCH  15  14
ATOM     10  C   UNL     1      -2.668  -1.379  24.610  0.00  0.00    +0.184 A 
ATOM     11  N   UNL     1      -2.794  -2.148  24.337  0.00  0.00    -0.108 NA
ATOM     12  N   UNL     1      -2.068  -2.542  24.340  0.00  0.00    -0.023 NA
ATOM     13  N   UNL     1      -1.494  -2.016  24.615  0.00  0.00    -0.043 NA
ATOM     14  N   UNL     1      -1.865  -1.298  24.782  0.00  0.00    -0.210 N 
BRANCH  10   7
ATOM      4  C   UNL     1      -4.395   0.373  24.868  0.00  0.00    +0.048 A 
ATOM      5  C   UNL     1      -4.039   0.251  24.134  0.00  0.00    +0.015 A 
ATOM      6  C   UNL     1      -3.463  -0.334  24.048  0.00  0.00    +0.004 A 
ATOM      7  C   UNL     1      -3.244  -0.795  24.696  0.00  0.00    +0.037 A 
ATOM      8  C   UNL     1      -3.600  -0.673  25.429  0.00  0.00    +0.004 A 
ATOM      9  C   UNL     1      -4.176  -0.089  25.515  0.00  0.00    +0.015 A 
BRANCH   4   2
ATOM      1  C   UNL     1      -5.763   0.745  25.048  0.00  0.00    +0.112 C 
ATOM      2  N   UNL     1      -4.972   0.957  24.954  0.00  0.00    -0.304 N 
ATOM      3  C   UNL     1      -4.756   1.754  24.946  0.00  0.00    +0.112 C 
ENDBRANCH   4   2
ENDBRANCH  10   7
ENDBRANCH  15  14
BRANCH  19  23
ATOM     23  O   UNL     1       0.033   1.720  24.981  0.00  0.00    -0.432 OA
BRANCH  23  24
ATOM     24  C   UNL     1      -0.300   2.462  24.839  0.00  0.00    +0.421 C 
ATOM     25  O   UNL     1      -0.452   2.703  24.065  0.00  0.00    -0.225 OA
ATOM     26  N   UNL     1      -0.481   2.961  25.469  0.00  0.00    -0.170 NA
BRANCH  26  27
ATOM     27  C   UNL     1      -0.814   3.702  25.327  0.00  0.00    +0.099 C 
ATOM     28  C   UNL     1      -0.362   4.298  24.981  0.00  0.00    +0.022 C 
ATOM     29  C   UNL     1      -0.695   5.039  24.838  0.00  0.00    +0.002 C 
ATOM     30  C   UNL     1      -1.482   5.184  25.042  0.00  0.00    +0.000 C 
ATOM     31  C   UNL     1      -1.935   4.588  25.388  0.00  0.00    +0.002 C 
ATOM     32  C   UNL     1      -1.601   3.847  25.530  0.00  0.00    +0.022 C 
ENDBRANCH  26  27
ENDBRANCH  23  24
ENDBRANCH  19  23
TORSDOF 6
ENDMDL
MODEL 3
REMARK VINA RESULT:     -11.4      1.529      3.254
REMARK  Name = 
REMARK  6 active torsions:
REMARK  status: ('A' for Active; 'I' for Inactive)
REMARK    1  A    between atoms: N_2  and  C_4
REMARK    2  A    between atoms: C_7  and  C_10
REMARK    3  A    between atoms: N_14  and  C_15
REMARK    4  A    between atoms: C_19  and  O_23
REMARK    5  A    between atoms: O_23  and  C_24
REMARK    6  A    between atoms: N_26  and  C_27
REMARK                            x       y       z     vdW  Elec       q    Type
REMARK                         _______ _______ _______ _____ _____    ______ ____
ROOT
ATOM     15  C   UNL     1      -4.613   2.273  24.722  0.00  0.00    +0.167 C 
ATOM     16  C   UNL     1      -4.237   2.355  23.992  0.00  0.00    +0.169 C 
ATOM     17  O   UNL     1      -3.945   1.616  23.771  0.00  0.00    -0.348 OA
ATOM     18  C   UNL     1      -4.141   1.077  24.363  0.00  0.00    +0.187 C 
ATOM     19  C   UNL     1      -4.082   0.287  24.594  0.00  0.00    +0.229 C 
ATOM     20  C   UNL     1      -4.458   0.205  25.324  0.00  0.00    +0.188 C 
ATOM     21  O   UNL     1      -4.749   0.944  25.544  0.00  0.00    -0.348 OA
ATOM     22  C   UNL     1      -4.553   1.483  24.951  0.00  0.00    +0.171 C 
ENDROOT
BRANCH  15  14
ATOM     10  C   UNL     1      -4.616   3.545  25.459  0.00  0.00    +0.184 A 
ATOM     11  N   UNL     1      -5.191   3.997  25.840  0.00  0.00    -0.108 NA
ATOM     12  N   UNL     1      -5.915   3.607  25.763  0.00  0.00    -0.023 NA
ATOM     13  N   UNL     1      -5.786   2.914  25.335  0.00  0.00    -0.043 NA
ATOM     14  N   UNL     1      -4.983   2.875  25.147  0.00  0.00    -0.210 N 
BRANCH  10   7
ATOM      4  C   UNL     1      -2.211   4.100  25.284  0.00  0.00    +0.048 A 
ATOM      5  C   UNL     1      -2.500   3.730  25.963  0.00  0.00    +0.015 A 
ATOM      6  C   UNL     1      -3.302   3.545  26.021  0.00  0.00    +0.004 A 
ATOM      7  C   UNL     1      -3.814   3.730  25.401  0.00  0.00    +0.037 A 
ATOM      8  C   UNL     1      -3.525   4.099  24.723  0.00  0.00    +0.004 A 
ATOM      9  C   UNL     1      -2.723   4.284  24.664  0.00  0.00    +0.015 A 
BRANCH   4   2
ATOM      1  C   UNL     1      -1.175   5.059  25.067  0.00  0.00    +0.112 C 
ATOM      2  N   UNL     1      -1.408   4.285  25.225  0.00  0.00    -0.304 N 
ATOM      3  C   UNL     1      -0.841   3.694  25.325  0.00  0.00    +0.112 C 
ENDBRANCH   4   2
ENDBRANCH  10   7
ENDBRANCH  15  14
BRANCH  19  23
ATOM     23  O   UNL     1      -3.712  -0.315  24.169  0.00  0.00    -0.432 OA
BRANCH  23  24
ATOM     24  C   UNL     1      -3.120  -0.767  24.523  0.00  0.00    +0.421 C 
ATOM     25  O   UNL     1      -3.286  -1.205  25.203  0.00  0.00    -0.225 OA
ATOM     26  N   UNL     1      -2.362  -0.782  24.199  0.00  0.00    -0.170 NA
BRANCH  26  27
ATOM     27  C   UNL     1      -1.769  -1.234  24.554  0.00  0.00    +0.099 C 
ATOM     28  C   UNL     1      -1.760  -2.053  24.455  0.00  0.00    +0.022 C 
ATOM     29  C   UNL     1      -1.168  -2.504  24.809  0.00  0.00    +0.002 C 
ATOM     30  C   UNL     1      -0.584  -2.137  25.263  0.00  0.00    +0.000 C 
ATOM     31  C   UNL     1      -0.594  -1.318  25.362  0.00  0.00    +0.002 C 
ATOM     32  C   UNL     1      -1.187  -0.867  25.007  0.00  0.00    +0.022 C 
ENDBRANCH  26  27
ENDBRANCH  23  24
ENDBRANCH  19  23
TORSDOF 6
ENDMDL
MODEL 4
REMARK VINA RESULT:     -11.1      1.749      3.179
REMARK  Name = 
REMARK  6 active torsions:
REMARK  status: ('A' for Active; 'I' for Inactive)
REMARK    1  A    between atoms: N_2  and  C_4
REMARK    2  A    between atoms: C_7  and  C_10
REMARK    3  A    between atoms: N_14  and  C_15
REMARK    4  A    between atoms: C_19  and  O_23
REMARK    5  A    between atoms: O_23  and  C_24
REMARK    6  A    between atoms: N_26  and  C_27
REMARK                            x       y       z     vdW  Elec       q    Type
REMARK                         _______ _______ _______ _____ _____    ______ ____
ROOT
ATOM     15  C   UNL     1      -3.700   2.963  24.784  0.00  0.00    +0.167 C 
ATOM     16  C   UNL     1      -3.356   2.863  24.041  0.00  0.00    +0.169 C 
ATOM     17  O   UNL     1      -3.560   2.114  23.765  0.00  0.00    -0.348 OA
ATOM     18  C   UNL     1      -4.030   1.750  24.336  0.00  0.00    +0.187 C 
ATOM     19  C   UNL     1      -4.447   1.062  24.519  0.00  0.00    +0.229 C 
ATOM     20  C   UNL     1      -4.792   1.162  25.262  0.00  0.00    +0.188 C 
ATOM     21  O   UNL     1      -4.587   1.912  25.538  0.00  0.00    -0.348 OA
ATOM     22  C   UNL     1      -4.117   2.275  24.966  0.00  0.00    +0.171 C 
ENDROOT
BRANCH  15  14
ATOM     10  C   UNL     1      -2.949   3.911  25.619  0.00  0.00    +0.184 A 
ATOM     11  N   UNL     1      -3.140   4.594  26.043  0.00  0.00    -0.108 NA
ATOM     12  N   UNL     1      -3.947   4.737  25.947  0.00  0.00    -0.023 NA
ATOM     13  N   UNL     1      -4.255   4.144  25.463  0.00  0.00    -0.043 NA
ATOM     14  N   UNL     1      -3.638   3.634  25.261  0.00  0.00    -0.210 N 
BRANCH  10   7
ATOM      4  C   UNL     1      -0.706   2.882  25.454  0.00  0.00    +0.048 A 
ATOM      5  C   UNL     1      -0.947   3.436  24.892  0.00  0.00    +0.015 A 
ATOM      6  C   UNL     1      -1.695   3.779  24.947  0.00  0.00    +0.004 A 
ATOM      7  C   UNL     1      -2.201   3.568  25.564  0.00  0.00    +0.037 A 
ATOM      8  C   UNL     1      -1.959   3.014  26.125  0.00  0.00    +0.004 A 
ATOM      9  C   UNL     1      -1.211   2.671  26.070  0.00  0.00    +0.015 A 
BRANCH   4   2
ATOM      1  C   UNL     1       0.524   2.488  26.066  0.00  0.00    +0.112 C 
ATOM      2  N   UNL     1       0.043   2.538  25.398  0.00  0.00    -0.304 N 
ATOM      3  C   UNL     1       0.310   2.245  24.674  0.00  0.00    +0.112 C 
ENDBRANCH   4   2
ENDBRANCH  10   7
ENDBRANCH  15  14
BRANCH  19  23
ATOM     23  O   UNL     1      -4.509   0.392  24.042  0.00  0.00    -0.432 OA
BRANCH  23  24
ATOM     24  C   UNL     1      -4.253  -0.340  24.324  0.00  0.00    +0.421 C 
ATOM     25  O   UNL     1      -4.411  -0.560  25.103  0.00  0.00    -0.225 OA
ATOM     26  N   UNL     1      -3.840  -0.852  23.827  0.00  0.00    -0.170 NA
BRANCH  26  27
ATOM     27  C   UNL     1      -3.584  -1.584  24.108  0.00  0.00    +0.099 C 
ATOM     28  C   UNL     1      -2.839  -1.656  24.455  0.00  0.00    +0.022 C 
ATOM     29  C   UNL     1      -2.583  -2.387  24.737  0.00  0.00    +0.002 C 
ATOM     30  C   UNL     1      -3.073  -3.049  24.671  0.00  0.00    +0.000 C 
ATOM     31  C   UNL     1      -3.818  -2.978  24.324  0.00  0.00    +0.002 C 
ATOM     32  C   UNL     1      -4.073  -2.245  24.043  0.00  0.00    +0.022 C 
ENDBRANCH  26  27
ENDBRANCH  23  24
ENDBRANCH  19  23
TORSDOF 6
ENDMDL
MODEL 5
REMARK VINA RESULT:     -10.4      1.532      4.464
REMARK  Name = 
REMARK  6 active torsions:
REMARK  status: ('A' for Active; 'I' for Inactive)
REMARK    1  A    between atoms: N_2  and  C_4
REMARK    2  A    between atoms: C_7  and  C_10
REMARK    3  A    between atoms: N_14  and  C_15
REMARK    4  A    between atoms: C_19  and  O_23
REMARK    5  A    between atoms: O_23  and  C_24
REMARK    6  A    between atoms: N_26  and  C_27
REMARK                            x       y       z     vdW  Elec       q    Type
REMARK                         _______ _______ _______ _____ _____    ______ ____
ROOT
ATOM     15  C   UNL     1      -0.645   1.063  24.509  0.00  0.00    +0.167 C 
ATOM     16  C   UNL     1      -0.679   1.198  25.322  0.00  0.00    +0.169 C 
ATOM     17  O   UNL     1      -1.171   1.847  25.452  0.00  0.00    -0.348 OA
ATOM     18  C   UNL     1      -1.441   2.114  24.720  0.00  0.00    +0.187 C 
ATOM     19  C   UNL     1      -1.911   2.679  24.347  0.00  0.00    +0.229 C 
ATOM     20  C   UNL     1      -1.877   2.545  23.534  0.00  0.00    +0.188 C 
ATOM     21  O   UNL     1      -1.385   1.896  23.404  0.00  0.00    -0.348 OA
ATOM     22  C   UNL     1      -1.115   1.629  24.137  0.00  0.00    +0.171 C 
ENDROOT
BRANCH  15  14
ATOM     10  C   UNL     1      -0.416  -0.333  24.108  0.00  0.00    +0.184 A 
ATOM     11  N   UNL     1       0.166  -0.728  23.677  0.00  0.00    -0.108 NA
ATOM     12  N   UNL     1       0.727  -0.173  23.437  0.00  0.00    -0.023 NA
ATOM     13  N   UNL     1       0.492   0.566  23.719  0.00  0.00    -0.043 NA
ATOM     14  N   UNL     1      -0.215   0.467  24.134  0.00  0.00    -0.210 N 
BRANCH  10   7
ATOM      4  C   UNL     1      -2.414  -1.364  25.140  0.00  0.00    +0.048 A 
ATOM      5  C   UNL     1      -2.433  -1.132  24.349  0.00  0.00    +0.015 A 
ATOM      6  C   UNL     1      -1.767  -0.788  24.005  0.00  0.00    +0.004 A 
ATOM      7  C   UNL     1      -1.083  -0.676  24.453  0.00  0.00    +0.037 A 
ATOM      8  C   UNL     1      -1.065  -0.908  25.243  0.00  0.00    +0.004 A 
ATOM      9  C   UNL     1      -1.731  -1.252  25.588  0.00  0.00    +0.015 A 
BRANCH   4   2
ATOM      1  C   UNL     1      -3.549  -1.271  26.005  0.00  0.00    +0.112 C 
ATOM      2  N   UNL     1      -3.081  -1.708  25.485  0.00  0.00    -0.304 N 
ATOM      3  C   UNL     1      -3.279  -2.490  25.309  0.00  0.00    +0.112 C 
ENDBRANCH   4   2
ENDBRANCH  10   7
ENDBRANCH  15  14
BRANCH  19  23
ATOM     23  O   UNL     1      -2.341   3.276  24.722  0.00  0.00    -0.432 OA
BRANCH  23  24
ATOM     24  C   UNL     1      -3.165   3.245  24.735  0.00  0.00    +0.421 C 
ATOM     25  O   UNL     1      -3.595   3.394  24.047  0.00  0.00    -0.225 OA
ATOM     26  N   UNL     1      -3.560   3.064  25.436  0.00  0.00    -0.170 NA
BRANCH  26  27
ATOM     27  C   UNL     1      -4.384   3.033  25.450  0.00  0.00    +0.099 C 
ATOM     28  C   UNL     1      -4.822   3.721  25.570  0.00  0.00    +0.022 C 
ATOM     29  C   UNL     1      -5.645   3.690  25.584  0.00  0.00    +0.002 C 
ATOM     30  C   UNL     1      -6.033   2.969  25.477  0.00  0.00    +0.000 C 
ATOM     31  C   UNL     1      -5.595   2.280  25.356  0.00  0.00    +0.002 C 
ATOM     32  C   UNL     1      -4.771   2.312  25.343  0.00  0.00    +0.022 C 
ENDBRANCH  26  27
ENDBRANCH  23  24
ENDBRANCH  19  23
TORSDOF 6
ENDMDL
