MODEL 1
REMARK VINA RESULT:      -9.7      0.000      0.000
REMARK  Name = 
REMARK  6 active torsions:
REMARK  status: ('A' for Active; 'I' for Inactive)
REMARK    1  A    between atoms: O_2  and  C_3
REMARK    2  A    between atoms: C_6  and  N_7
REMARK    3  A    between atoms: N_10  and  C_11
REMARK    4  A    between atoms: C_11  and  C_12
REMARK    5  A    between atoms: C_19  and  C_20
REMARK    6  A    between atoms: C_22  and  C_26
REMARK                            x       y       z     vdW  Elec       q    Type
REMARK                         _______ _______ _______ _____ _____    ______ ____
ROOT
ATOM     12  C   UNL     1      -0.557   1.122  23.949  0.00  0.00    +0.079 C 
ATOM     13  C   UNL     1      -1.206   0.704  24.050  0.00  0.00    +0.018 C 
ATOM     14  C   UNL     1      -1.958   1.001  24.086  0.00  0.00    +0.010 C 
ATOM     15  C   UNL     1      -2.567   0.354  24.207  0.00  0.00    +0.018 C 
ATOM     16  C   UNL     1      -1.967   0.599  24.128  0.00  0.00    +0.072 C 
ATOM     17  N   UNL     1      -1.327   1.417  23.987  0.00  0.00    -0.272 NA
ATOM     18  C   UNL     1      -1.659   2.266  23.928  0.00  0.00    +0.078 C 
ATOM     19  C   UNL     1      -2.270   1.819  24.028  0.00  0.00    +0.056 C 
ENDROOT
BRANCH  19  20
ATOM     20  C   UNL     1      -3.059   2.057  24.073  0.00  0.00    +0.058 A 
ATOM     21  C   UNL     1      -3.563   1.943  24.716  0.00  0.00    +0.031 A 
ATOM     22  C   UNL     1      -4.297   2.266  24.524  0.00  0.00    +0.079 A 
ATOM     23  N   UNL     1      -4.248   2.578  23.762  0.00  0.00    -0.174 NA
ATOM     24  N   UNL     1      -3.482   2.449  23.483  0.00  0.00    -0.253 N 
ATOM     25  C   UNL     1      -3.189   2.673  22.745  0.00  0.00    +0.153 C 
BRANCH  22  26
ATOM     26  C   UNL     1      -4.965   2.274  25.008  0.00  0.00    +0.042 C 
ATOM     27  C   UNL     1      -5.615   1.769  24.946  0.00  0.00    +0.006 C 
ATOM     28  C   UNL     1      -6.153   1.972  25.539  0.00  0.00    +0.000 C 
ATOM     29  C   UNL     1      -5.835   2.602  25.966  0.00  0.00    +0.000 C 
ATOM     30  C   UNL     1      -5.102   2.789  25.639  0.00  0.00    +0.006 C 
ENDBRANCH  22  26
ENDBRANCH  19  20
BRANCH  12  11
ATOM     11  C   UNL     1       0.259   1.205  23.868  0.00  0.00    +0.133 C 
BRANCH  11  10
ATOM      7  N   UNL     1       1.923   0.200  22.877  0.00  0.00    -0.161 NA
ATOM      8  C   UNL     1       1.504   0.707  23.374  0.00  0.00    +0.344 C 
ATOM      9  O   UNL     1       1.909   1.222  23.874  0.00  0.00    -0.249 OA
ATOM     10  N   UNL     1       0.679   0.698  23.371  0.00  0.00    -0.185 NA
BRANCH   7   6
ATOM      3  C   UNL     1       4.397   0.224  22.885  0.00  0.00    +0.139 A 
ATOM      4  C   UNL     1       3.980   0.854  22.557  0.00  0.00    +0.038 A 
ATOM      5  C   UNL     1       3.155   0.847  22.554  0.00  0.00    +0.020 A 
ATOM      6  C   UNL     1       2.748   0.208  22.880  0.00  0.00    +0.075 A 
ATOM     31  C   UNL     1       3.166  -0.424  23.208  0.00  0.00    +0.020 A 
ATOM     32  C   UNL     1       3.990  -0.416  23.211  0.00  0.00    +0.038 A 
BRANCH   3   2
ATOM      1  C   UNL     1       5.634   0.154  23.600  0.00  0.00    +0.252 C 
ATOM      2  O   UNL     1       5.223   0.232  22.888  0.00  0.00    -0.471 OA
ENDBRANCH   3   2
ENDBRANCH   7   6
ENDBRANCH  11  10
ENDBRANCH  12  11
TORSDOF 6
ENDMDL
MODEL 2
REMARK VINA RESULT:      -7.8      1.931      7.333
REMARK  Name = 
REMARK  6 active torsions:
REMARK  status: ('A' for Active; 'I' for Inactive)
REMARK    1  A    between atoms: O_2  and  C_3
REMARK    2  A    between atoms: C_6  and  N_7
REMARK    3  A    between atoms: N_10  and  C_11
REMARK    4  A    between atoms: C_11  and  C_12
REMARK    5  A    between atoms: C_19  and  C_20
REMARK    6  A    between atoms: C_22  and  C_26
REMARK                            x       y       z     vdW  Elec       q    Type
REMARK                         _______ _______ _______ _____ _____    ______ ____
ROOT
ATOM     12  C   UNL     1      -0.770   0.704  24.078  0.00  0.00    +0.079 C 
ATOM     13  C   UNL     1      -0.161   1.186  24.046  0.00  0.00    +0.018 C 
ATOM     14  C   UNL     1       0.559   1.016  23.716  0.00  0.00    +0.010 C 
ATOM     15  C   UNL     1       1.128   1.706  23.781  0.00  0.00    +0.018 C 
ATOM     16  C   UNL     1       0.561   1.392  23.864  0.00  0.00    +0.072 C 
ATOM     17  N   UNL     1      -0.034   0.537  23.744  0.00  0.00    -0.272 NA
ATOM     18  C   UNL     1       0.294  -0.207  23.330  0.00  0.00    +0.078 C 
ATOM     19  C   UNL     1       0.868   0.296  23.319  0.00  0.00    +0.056 C 
ENDROOT
BRANCH  19  20
ATOM     20  C   UNL     1       1.622   0.187  23.001  0.00  0.00    +0.058 A 
ATOM     21  C   UNL     1       2.336   0.347  23.381  0.00  0.00    +0.031 A 
ATOM     22  C   UNL     1       2.948   0.158  22.863  0.00  0.00    +0.079 A 
ATOM     23  N   UNL     1       2.613  -0.120  22.162  0.00  0.00    -0.174 NA
ATOM     24  N   UNL     1       1.792  -0.101  22.247  0.00  0.00    -0.253 N 
ATOM     25  C   UNL     1       1.239  -0.331  21.679  0.00  0.00    +0.153 C 
BRANCH  22  26
ATOM     26  C   UNL     1       3.755   0.232  23.016  0.00  0.00    +0.042 C 
ATOM     27  C   UNL     1       4.228   0.880  22.822  0.00  0.00    +0.006 C 
ATOM     28  C   UNL     1       4.997   0.720  23.077  0.00  0.00    +0.000 C 
ATOM     29  C   UNL     1       4.999  -0.026  23.429  0.00  0.00    +0.000 C 
ATOM     30  C   UNL     1       4.232  -0.328  23.392  0.00  0.00    +0.006 C 
ENDBRANCH  22  26
ENDBRANCH  19  20
BRANCH  12  11
ATOM     11  C   UNL     1      -1.545   0.510  24.285  0.00  0.00    +0.133 C 
BRANCH  11  10
ATOM      7  N   UNL     1      -3.500   1.420  23.953  0.00  0.00    -0.161 NA
ATOM      8  C   UNL     1      -2.868   1.048  24.329  0.00  0.00    +0.344 C 
ATOM      9  O   UNL     1      -2.925   0.843  25.126  0.00  0.00    -0.249 OA
ATOM     10  N   UNL     1      -2.178   0.882  23.908  0.00  0.00    -0.185 NA
BRANCH   7   6
ATOM      3  C   UNL     1      -5.570   1.921  25.213  0.00  0.00    +0.139 A 
ATOM      4  C   UNL     1      -5.387   1.142  25.014  0.00  0.00    +0.038 A 
ATOM      5  C   UNL     1      -4.697   0.975  24.593  0.00  0.00    +0.020 A 
ATOM      6  C   UNL     1      -4.190   1.587  24.373  0.00  0.00    +0.075 A 
ATOM     31  C   UNL     1      -4.373   2.367  24.572  0.00  0.00    +0.020 A 
ATOM     32  C   UNL     1      -5.063   2.533  24.992  0.00  0.00    +0.038 A 
BRANCH   3   2
ATOM      1  C   UNL     1      -6.274   2.001  26.454  0.00  0.00    +0.252 C 
ATOM      2  O   UNL     1      -6.260   2.088  25.634  0.00  0.00    -0.471 OA
ENDBRANCH   3   2
ENDBRANCH   7   6
ENDBRANCH  11  10
ENDBRANCH  12  11
TORSDOF 6
ENDMDL
MODEL 3
REMARK VINA RESULT:      -6.3     16.189     17.259
REMARK  Name = 
REMARK  6 active torsions:
REMARK  status: ('A' for Active; 'I' for Inactive)
REMARK    1  A    between atoms: O_2  and  C_3
REMARK    2  A    between atoms: C_6  and  N_7
REMARK    3  A    between atoms: N_10  and  C_11
REMARK    4  A    between atoms: C_11  and  C_12
REMARK    5  A    between atoms: C_19  and  C_20
REMARK    6  A    between atoms: C_22  and  C_26
REMARK                            x       y       z     vdW  Elec       q    Type
REMARK                         _______ _______ _______ _____ _____    ______ ____
ROOT
ATOM     12  C   UNL     1      -6.273  -9.769  12.937  0.00  0.00    +0.079 C 
ATOM     13  C   UNL     1      -5.992  -9.305  12.379  0.00  0.00    +0.018 C 
ATOM     14  C   UNL     1      -6.314  -9.204  11.643  0.00  0.00    +0.010 C 
ATOM     15  C   UNL     1      -5.840  -8.627  11.148  0.00  0.00    +0.018 C 
ATOM     16  C   UNL     1      -5.982  -8.977  11.681  0.00  0.00    +0.072 C 
ATOM     17  N   UNL     1      -6.595  -9.661  12.185  0.00  0.00    -0.272 NA
ATOM     18  C   UNL     1      -7.331 -10.017  11.779  0.00  0.00    +0.078 C 
ATOM     19  C   UNL     1      -7.023  -9.551  11.259  0.00  0.00    +0.056 C 
ENDROOT
BRANCH  19  20
ATOM     20  C   UNL     1      -7.299  -9.403  10.496  0.00  0.00    +0.058 A 
ATOM     21  C   UNL     1      -7.563  -8.676  10.208  0.00  0.00    +0.031 A 
ATOM     22  C   UNL     1      -7.787  -8.780   9.421  0.00  0.00    +0.079 A 
ATOM     23  N   UNL     1      -7.662  -9.571   9.222  0.00  0.00    -0.174 NA
ATOM     24  N   UNL     1      -7.361  -9.956   9.887  0.00  0.00    -0.253 N 
ATOM     25  C   UNL     1      -7.156 -10.754   9.935  0.00  0.00    +0.153 C 
BRANCH  22  26
ATOM     26  C   UNL     1      -8.083  -8.196   8.920  0.00  0.00    +0.042 C 
ATOM     27  C   UNL     1      -7.656  -7.564   8.605  0.00  0.00    +0.006 C 
ATOM     28  C   UNL     1      -8.168  -7.119   8.136  0.00  0.00    +0.000 C 
ATOM     29  C   UNL     1      -8.912  -7.475   8.161  0.00  0.00    +0.000 C 
ATOM     30  C   UNL     1      -8.860  -8.140   8.645  0.00  0.00    +0.006 C 
ENDBRANCH  22  26
ENDBRANCH  19  20
BRANCH  12  11
ATOM     11  C   UNL     1      -6.259 -10.106  13.690  0.00  0.00    +0.133 C 
BRANCH  11  10
ATOM      7  N   UNL     1      -5.830  -9.523  15.749  0.00  0.00    -0.161 NA
ATOM      8  C   UNL     1      -6.070  -9.972  15.100  0.00  0.00    +0.344 C 
ATOM      9  O   UNL     1      -6.360 -10.736  15.212  0.00  0.00    -0.249 OA
ATOM     10  N   UNL     1      -6.020  -9.657  14.339  0.00  0.00    -0.185 NA
BRANCH   7   6
ATOM      3  C   UNL     1      -5.981 -10.466  18.031  0.00  0.00    +0.139 A 
ATOM      4  C   UNL     1      -5.319 -10.621  17.564  0.00  0.00    +0.038 A 
ATOM      5  C   UNL     1      -5.268 -10.306  16.803  0.00  0.00    +0.020 A 
ATOM      6  C   UNL     1      -5.880  -9.837  16.509  0.00  0.00    +0.075 A 
ATOM     31  C   UNL     1      -6.543  -9.683  16.977  0.00  0.00    +0.020 A 
ATOM     32  C   UNL     1      -6.593  -9.997  17.738  0.00  0.00    +0.038 A 
BRANCH   3   2
ATOM      1  C   UNL     1      -6.477 -10.396  19.370  0.00  0.00    +0.252 C 
ATOM      2  O   UNL     1      -6.030 -10.781  18.793  0.00  0.00    -0.471 OA
ENDBRANCH   3   2
ENDBRANCH   7   6
ENDBRANCH  11  10
ENDBRANCH  12  11
TORSDOF 6
ENDMDL
MODEL 4
REMARK VINA RESULT:      -6.1     15.105     16.069
REMARK  Name = 
REMARK  6 active torsions:
REMARK  status: ('A' for Active; 'I' for Inactive)
REMARK    1  A    between atoms: O_2  and  C_3
REMARK    2  A    between atoms: C_6  and  N_7
REMARK    3  A    between atoms: N_10  and  C_11
REMARK    4  A    between atoms: C_11  and  C_12
REMARK    5  A    between atoms: C_19  and  C_20
REMARK    6  A    between atoms: C_22  and  C_26
REMARK                            x       y       z     vdW  Elec       q    Type
REMARK                         _______ _______ _______ _____ _____    ______ ____
ROOT
ATOM     12  C   UNL     1      -6.154 -10.053  14.514  0.00  0.00    +0.079 C 
ATOM     13  C   UNL     1      -6.442  -9.692  15.141  0.00  0.00    +0.018 C 
ATOM     14  C   UNL     1      -6.231  -9.840  15.908  0.00  0.00    +0.010 C 
ATOM     15  C   UNL     1      -6.678  -9.317  16.484  0.00  0.00    +0.018 C 
ATOM     16  C   UNL     1      -6.511  -9.548  15.896  0.00  0.00    +0.072 C 
ATOM     17  N   UNL     1      -5.944 -10.198  15.299  0.00  0.00    -0.272 NA
ATOM     18  C   UNL     1      -5.352 -10.781  15.675  0.00  0.00    +0.078 C 
ATOM     19  C   UNL     1      -5.660 -10.404  16.263  0.00  0.00    +0.056 C 
ENDROOT
BRANCH  19  20
ATOM     20  C   UNL     1      -5.490 -10.505  17.065  0.00  0.00    +0.058 A 
ATOM     21  C   UNL     1      -6.042 -10.529  17.677  0.00  0.00    +0.031 A 
ATOM     22  C   UNL     1      -5.633 -10.638  18.384  0.00  0.00    +0.079 A 
ATOM     23  N   UNL     1      -4.828 -10.681  18.210  0.00  0.00    -0.174 NA
ATOM     24  N   UNL     1      -4.739 -10.599  17.393  0.00  0.00    -0.253 N 
ATOM     25  C   UNL     1      -4.026 -10.608  16.979  0.00  0.00    +0.153 C 
BRANCH  22  26
ATOM     26  C   UNL     1      -5.969 -10.694  19.136  0.00  0.00    +0.042 C 
ATOM     27  C   UNL     1      -6.776 -10.728  19.305  0.00  0.00    +0.006 C 
ATOM     28  C   UNL     1      -6.863 -10.781  20.124  0.00  0.00    +0.000 C 
ATOM     29  C   UNL     1      -6.110 -10.781  20.461  0.00  0.00    +0.000 C 
ATOM     30  C   UNL     1      -5.557 -10.728  19.851  0.00  0.00    +0.006 C 
ENDBRANCH  22  26
ENDBRANCH  19  20
BRANCH  12  11
ATOM     11  C   UNL     1      -6.100 -10.187  13.702  0.00  0.00    +0.133 C 
BRANCH  11  10
ATOM      7  N   UNL     1      -5.758  -9.059  11.865  0.00  0.00    -0.161 NA
ATOM      8  C   UNL     1      -5.869  -9.692  12.381  0.00  0.00    +0.344 C 
ATOM      9  O   UNL     1      -5.862 -10.465  12.093  0.00  0.00    -0.249 OA
ATOM     10  N   UNL     1      -5.988  -9.553  13.186  0.00  0.00    -0.185 NA
BRANCH   7   6
ATOM      3  C   UNL     1      -5.401  -9.475   9.452  0.00  0.00    +0.139 A 
ATOM      4  C   UNL     1      -6.164  -9.491   9.765  0.00  0.00    +0.038 A 
ATOM      5  C   UNL     1      -6.283  -9.353  10.570  0.00  0.00    +0.020 A 
ATOM      6  C   UNL     1      -5.639  -9.197  11.061  0.00  0.00    +0.075 A 
ATOM     31  C   UNL     1      -4.876  -9.181  10.748  0.00  0.00    +0.020 A 
ATOM     32  C   UNL     1      -4.757  -9.319   9.944  0.00  0.00    +0.038 A 
BRANCH   3   2
ATOM      1  C   UNL     1      -5.041  -8.997   8.154  0.00  0.00    +0.252 C 
ATOM      2  O   UNL     1      -5.283  -9.613   8.647  0.00  0.00    -0.471 OA
ENDBRANCH   3   2
ENDBRANCH   7   6
ENDBRANCH  11  10
ENDBRANCH  12  11
TORSDOF 6
ENDMDL
MODEL 5
REMARK VINA RESULT:      -6.1     15.728     17.354
REMARK  Name = 
REMARK  6 active torsions:
REMARK  status: ('A' for Active; 'I' for Inactive)
REMARK    1  A    between atoms: O_2  and  C_3
REMARK    2  A    between atoms: C_6  and  N_7
REMARK    3  A    between atoms: N_10  and  C_11
REMARK    4  A    between atoms: C_11  and  C_12
REMARK    5  A    between atoms: C_19  and  C_20
REMARK    6  A    between atoms: C_22  and  C_26
REMARK                            x       y       z     vdW  Elec       q    Type
REMARK                         _______ _______ _______ _____ _____    ______ ____
ROOT
ATOM     12  C   UNL     1      -6.764 -10.070  14.056  0.00  0.00    +0.079 C 
ATOM     13  C   UNL     1      -6.707  -9.565  13.467  0.00  0.00    +0.018 C 
ATOM     14  C   UNL     1      -6.132  -9.570  12.896  0.00  0.00    +0.010 C 
ATOM     15  C   UNL     1      -6.243  -8.904  12.306  0.00  0.00    +0.018 C 
ATOM     16  C   UNL     1      -6.389  -9.264  12.831  0.00  0.00    +0.072 C 
ATOM     17  N   UNL     1      -6.182 -10.068  13.471  0.00  0.00    -0.272 NA
ATOM     18  C   UNL     1      -5.463 -10.611  13.324  0.00  0.00    +0.078 C 
ATOM     19  C   UNL     1      -5.442 -10.096  12.761  0.00  0.00    +0.056 C 
ENDROOT
BRANCH  19  20
ATOM     20  C   UNL     1      -4.888 -10.044  12.151  0.00  0.00    +0.058 A 
ATOM     21  C   UNL     1      -5.043  -9.824  11.372  0.00  0.00    +0.031 A 
ATOM     22  C   UNL     1      -4.333  -9.847  10.954  0.00  0.00    +0.079 A 
ATOM     23  N   UNL     1      -3.738 -10.082  11.475  0.00  0.00    -0.174 NA
ATOM     24  N   UNL     1      -4.081 -10.204  12.216  0.00  0.00    -0.253 N 
ATOM     25  C   UNL     1      -3.687 -10.444  12.900  0.00  0.00    +0.153 C 
BRANCH  22  26
ATOM     26  C   UNL     1      -4.234  -9.667  10.155  0.00  0.00    +0.042 C 
ATOM     27  C   UNL     1      -3.997  -8.939   9.848  0.00  0.00    +0.006 C 
ATOM     28  C   UNL     1      -3.971  -9.005   9.026  0.00  0.00    +0.000 C 
ATOM     29  C   UNL     1      -4.190  -9.775   8.825  0.00  0.00    +0.000 C 
ATOM     30  C   UNL     1      -4.353 -10.184   9.522  0.00  0.00    +0.006 C 
ENDBRANCH  22  26
ENDBRANCH  19  20
BRANCH  12  11
ATOM     11  C   UNL     1      -7.124 -10.372  14.734  0.00  0.00    +0.133 C 
BRANCH  11  10
ATOM      7  N   UNL     1      -7.811  -9.633  16.669  0.00  0.00    -0.161 NA
ATOM      8  C   UNL     1      -7.737 -10.105  15.997  0.00  0.00    +0.344 C 
ATOM      9  O   UNL     1      -8.201 -10.781  15.915  0.00  0.00    -0.249 OA
ATOM     10  N   UNL     1      -7.198  -9.900  15.407  0.00  0.00    -0.185 NA
BRANCH   7   6
ATOM      3  C   UNL     1      -9.426 -10.247  18.441  0.00  0.00    +0.139 A 
ATOM      4  C   UNL     1      -9.628  -9.680  17.877  0.00  0.00    +0.038 A 
ATOM      5  C   UNL     1      -9.090  -9.475  17.286  0.00  0.00    +0.020 A 
ATOM      6  C   UNL     1      -8.350  -9.837  17.260  0.00  0.00    +0.075 A 
ATOM     31  C   UNL     1      -8.147 -10.405  17.824  0.00  0.00    +0.020 A 
ATOM     32  C   UNL     1      -8.686 -10.609  18.414  0.00  0.00    +0.038 A 
BRANCH   3   2
ATOM      1  C   UNL     1      -9.693 -10.694  19.772  0.00  0.00    +0.252 C 
ATOM      2  O   UNL     1      -9.965 -10.451  19.032  0.00  0.00    -0.471 OA
ENDBRANCH   3   2
ENDBRANCH   7   6
ENDBRANCH  11  10
ENDBRANCH  12  11
TORSDOF 6
ENDMDL
MODEL 6
REMARK VINA RESULT:      -5.9     15.535     17.326
REMARK  Name = 
REMARK  6 active torsions:
REMARK  status: ('A' for Active; 'I' for Inactive)
REMARK    1  A    between atoms: O_2  and  C_3
REMARK    2  A    between atoms: C_6  and  N_7
REMARK    3  A    between atoms: N_10  and  C_11
REMARK    4  A    between atoms: C_11  and  C_12
REMARK    5  A    between atoms: C_19  and  C_20
REMARK    6  A    between atoms: C_22  and  C_26
REMARK                            x       y       z     vdW  Elec       q    Type
REMARK                         _______ _______ _______ _____ _____    ______ ____
ROOT
ATOM     12  C   UNL     1      -6.168 -10.336  13.837  0.00  0.00    +0.079 C 
ATOM     13  C   UNL     1      -5.421 -10.545  13.894  0.00  0.00    +0.018 C 
ATOM     14  C   UNL     1      -4.869 -10.486  13.305  0.00  0.00    +0.010 C 
ATOM     15  C   UNL     1      -4.064 -10.781  13.570  0.00  0.00    +0.018 C 
ATOM     16  C   UNL     1      -4.699 -10.642  13.637  0.00  0.00    +0.072 C 
ATOM     17  N   UNL     1      -5.600 -10.279  13.242  0.00  0.00    -0.272 NA
ATOM     18  C   UNL     1      -5.645  -9.976  12.382  0.00  0.00    +0.078 C 
ATOM     19  C   UNL     1      -4.919 -10.193  12.479  0.00  0.00    +0.056 C 
ENDROOT
BRANCH  19  20
ATOM     20  C   UNL     1      -4.310 -10.159  11.923  0.00  0.00    +0.058 A 
ATOM     21  C   UNL     1      -3.548  -9.874  12.057  0.00  0.00    +0.031 A 
ATOM     22  C   UNL     1      -3.123  -9.944  11.353  0.00  0.00    +0.079 A 
ATOM     23  N   UNL     1      -3.622 -10.272  10.785  0.00  0.00    -0.174 NA
ATOM     24  N   UNL     1      -4.357 -10.405  11.137  0.00  0.00    -0.253 N 
ATOM     25  C   UNL     1      -5.021 -10.728  10.769  0.00  0.00    +0.153 C 
BRANCH  22  26
ATOM     26  C   UNL     1      -2.336  -9.724  11.237  0.00  0.00    +0.042 C 
ATOM     27  C   UNL     1      -1.680 -10.058  11.610  0.00  0.00    +0.006 C 
ATOM     28  C   UNL     1      -1.005  -9.672  11.331  0.00  0.00    +0.000 C 
ATOM     29  C   UNL     1      -1.245  -9.100  10.787  0.00  0.00    +0.000 C 
ATOM     30  C   UNL     1      -2.067  -9.132  10.729  0.00  0.00    +0.006 C 
ENDBRANCH  22  26
ENDBRANCH  19  20
BRANCH  12  11
ATOM     11  C   UNL     1      -6.931 -10.244  14.137  0.00  0.00    +0.133 C 
BRANCH  11  10
ATOM      7  N   UNL     1      -7.850  -9.962  16.096  0.00  0.00    -0.161 NA
ATOM      8  C   UNL     1      -7.717  -9.914  15.283  0.00  0.00    +0.344 C 
ATOM      9  O   UNL     1      -8.238  -9.490  14.805  0.00  0.00    -0.249 OA
ATOM     10  N   UNL     1      -7.064 -10.291  14.950  0.00  0.00    -0.185 NA
BRANCH   7   6
ATOM      3  C   UNL     1      -9.810  -8.831  17.099  0.00  0.00    +0.139 A 
ATOM      4  C   UNL     1      -9.064  -8.484  17.149  0.00  0.00    +0.038 A 
ATOM      5  C   UNL     1      -8.410  -8.861  16.814  0.00  0.00    +0.020 A 
ATOM      6  C   UNL     1      -8.503  -9.585  16.430  0.00  0.00    +0.075 A 
ATOM     31  C   UNL     1      -9.250  -9.932  16.380  0.00  0.00    +0.020 A 
ATOM     32  C   UNL     1      -9.903  -9.555  16.714  0.00  0.00    +0.038 A 
BRANCH   3   2
ATOM      1  C   UNL     1     -10.720  -7.729  17.132  0.00  0.00    +0.252 C 
ATOM      2  O   UNL     1     -10.463  -8.454  17.433  0.00  0.00    -0.471 OA
ENDBRANCH   3   2
ENDBRANCH   7   6
ENDBRANCH  11  10
ENDBRANCH  12  11
TORSDOF 6
ENDMDL
MODEL 7
REMARK VINA RESULT:      -5.7     14.662     16.552
REMARK  Name = 
REMARK  6 active torsions:
REMARK  status: ('A' for Active; 'I' for Inactive)
REMARK    1  A    between atoms: O_2  and  C_3
REMARK    2  A    between atoms: C_6  and  N_7
REMARK    3  A    between atoms: N_10  and  C_11
REMARK    4  A    between atoms: C_11  and  C_12
REMARK    5  A    between atoms: C_19  and  C_20
REMARK    6  A    between atoms: C_22  and  C_26
REMARK                            x       y       z     vdW  Elec       q    Type
REMARK                         _______ _______ _______ _____ _____    ______ ____
ROOT
ATOM     12  C   UNL     1      -3.485 -10.629  14.566  0.00  0.00    +0.079 C 
ATOM     13  C   UNL     1      -2.712 -10.558  14.520  0.00  0.00    +0.018 C 
ATOM     14  C   UNL     1      -2.294 -10.364  13.855  0.00  0.00    +0.010 C 
ATOM     15  C   UNL     1      -1.412 -10.334  14.011  0.00  0.00    +0.018 C 
ATOM     16  C   UNL     1      -2.041 -10.420  14.165  0.00  0.00    +0.072 C 
ATOM     17  N   UNL     1      -3.053 -10.431  13.891  0.00  0.00    -0.272 NA
ATOM     18  C   UNL     1      -3.308 -10.242  13.036  0.00  0.00    +0.078 C 
ATOM     19  C   UNL     1      -2.547 -10.183  13.034  0.00  0.00    +0.056 C 
ENDROOT
BRANCH  19  20
ATOM     20  C   UNL     1      -2.063  -9.990  12.393  0.00  0.00    +0.058 A 
ATOM     21  C   UNL     1      -1.378  -9.532  12.425  0.00  0.00    +0.031 A 
ATOM     22  C   UNL     1      -1.072  -9.480  11.661  0.00  0.00    +0.079 A 
ATOM     23  N   UNL     1      -1.567  -9.905  11.157  0.00  0.00    -0.174 NA
ATOM     24  N   UNL     1      -2.181 -10.221  11.610  0.00  0.00    -0.253 N 
ATOM     25  C   UNL     1      -2.803 -10.685  11.330  0.00  0.00    +0.153 C 
BRANCH  22  26
ATOM     26  C   UNL     1      -0.389  -9.074  11.439  0.00  0.00    +0.042 C 
ATOM     27  C   UNL     1       0.238  -9.384  11.001  0.00  0.00    +0.006 C 
ATOM     28  C   UNL     1       0.802  -8.788  10.907  0.00  0.00    +0.000 C 
ATOM     29  C   UNL     1       0.523  -8.111  11.286  0.00  0.00    +0.000 C 
ATOM     30  C   UNL     1      -0.212  -8.287  11.615  0.00  0.00    +0.006 C 
ENDBRANCH  22  26
ENDBRANCH  19  20
BRANCH  12  11
ATOM     11  C   UNL     1      -4.188 -10.781  14.970  0.00  0.00    +0.133 C 
BRANCH  11  10
ATOM      7  N   UNL     1      -5.280  -9.996  16.689  0.00  0.00    -0.161 NA
ATOM      8  C   UNL     1      -5.117 -10.388  15.982  0.00  0.00    +0.344 C 
ATOM      9  O   UNL     1      -5.721 -10.780  15.579  0.00  0.00    -0.249 OA
ATOM     10  N   UNL     1      -4.350 -10.389  15.677  0.00  0.00    -0.185 NA
BRANCH   7   6
ATOM      3  C   UNL     1      -7.579  -9.994  17.603  0.00  0.00    +0.139 A 
ATOM      4  C   UNL     1      -7.361  -9.438  17.035  0.00  0.00    +0.038 A 
ATOM      5  C   UNL     1      -6.595  -9.438  16.730  0.00  0.00    +0.020 A 
ATOM      6  C   UNL     1      -6.046  -9.995  16.993  0.00  0.00    +0.075 A 
ATOM     31  C   UNL     1      -6.265 -10.552  17.562  0.00  0.00    +0.020 A 
ATOM     32  C   UNL     1      -7.031 -10.551  17.867  0.00  0.00    +0.038 A 
BRANCH   3   2
ATOM      1  C   UNL     1      -8.861  -9.374  17.725  0.00  0.00    +0.252 C 
ATOM      2  O   UNL     1      -8.346  -9.993  17.908  0.00  0.00    -0.471 OA
ENDBRANCH   3   2
ENDBRANCH   7   6
ENDBRANCH  11  10
ENDBRANCH  12  11
TORSDOF 6
ENDMDL
