MODEL 1
REMARK VINA RESULT:     -11.0      0.000      0.000
REMARK  Name = 
REMARK  7 active torsions:
REMARK  status: ('A' for Active; 'I' for Inactive)
REMARK    1  A    between atoms: C_2  and  C_3
REMARK    2  A    between atoms: C_3  and  N_4
REMARK    3  A    between atoms: C_10  and  C_11
REMARK    4  A    between atoms: C_11  and  C_12
REMARK    5  A    between atoms: C_15  and  C_16
REMARK    6  A    between atoms: C_16  and  C_17
REMARK    7  A    between atoms: C_24  and  O_25
REMARK                            x       y       z     vdW  Elec       q    Type
REMARK                         _______ _______ _______ _____ _____    ______ ____
ROOT
ATOM      4  N   UNL     1      -2.239   3.613  24.888  0.00  0.00    -0.188 NA
ATOM      5  C   UNL     1      -2.307   2.805  24.731  0.00  0.00    +0.323 C 
ATOM      6  O   UNL     1      -1.650   2.380  24.470  0.00  0.00    -0.251 OA
ATOM      7  N   UNL     1      -3.030   2.424  24.834  0.00  0.00    -0.263 N 
ATOM      8  C   UNL     1      -3.687   2.849  25.096  0.00  0.00    +0.095 C 
ATOM      9  C   UNL     1      -4.411   2.468  25.199  0.00  0.00    +0.022 C 
ATOM     10  C   UNL     1      -4.479   1.661  25.042  0.00  0.00    +0.015 C 
ATOM     15  C   UNL     1      -3.822   1.235  24.780  0.00  0.00    +0.026 C 
ATOM     29  C   UNL     1      -3.098   1.618  24.677  0.00  0.00    +0.095 C 
ENDROOT
BRANCH   4   3
ATOM      3  C   UNL     1      -1.516   3.994  24.785  0.00  0.00    +0.117 C 
BRANCH   3   2
ATOM      1  C   UNL     1      -0.841   5.253  24.815  0.00  0.00    +0.002 C 
ATOM      2  C   UNL     1      -1.377   4.722  25.147  0.00  0.00    +0.023 C 
ENDBRANCH   3   2
ENDBRANCH   4   3
BRANCH  10  11
ATOM     11  C   UNL     1      -5.203   1.279  25.146  0.00  0.00    +0.114 C 
BRANCH  11  12
ATOM     12  C   UNL     1      -5.879   1.718  25.318  0.00  0.00    +0.365 C 
ATOM     13  O   UNL     1      -6.059   1.907  26.102  0.00  0.00    -0.246 OA
ATOM     14  O   UNL     1      -6.376   1.968  24.710  0.00  0.00    -0.246 OA
ENDBRANCH  11  12
ENDBRANCH  10  11
BRANCH  15  16
ATOM     16  C   UNL     1      -3.890   0.428  24.623  0.00  0.00    +0.047 C 
BRANCH  16  17
ATOM     17  C   UNL     1      -3.393  -0.109  25.004  0.00  0.00    +0.053 C 
ATOM     18  N   UNL     1      -2.864   0.155  25.581  0.00  0.00    -0.274 NA
ATOM     19  C   UNL     1      -2.367  -0.383  25.962  0.00  0.00    +0.130 C 
ATOM     20  C   UNL     1      -2.399  -1.184  25.767  0.00  0.00    +0.053 C 
ATOM     21  C   UNL     1      -2.927  -1.447  25.191  0.00  0.00    -0.019 A 
ATOM     22  C   UNL     1      -3.424  -0.910  24.810  0.00  0.00    +0.012 A 
ATOM     23  C   UNL     1      -3.953  -1.173  24.234  0.00  0.00    +0.038 A 
ATOM     24  C   UNL     1      -3.984  -1.975  24.038  0.00  0.00    +0.139 A 
ATOM     27  C   UNL     1      -3.487  -2.512  24.420  0.00  0.00    +0.037 A 
ATOM     28  C   UNL     1      -2.958  -2.248  24.996  0.00  0.00    -0.001 A 
BRANCH  24  25
ATOM     25  O   UNL     1      -4.513  -2.238  23.462  0.00  0.00    -0.471 OA
ATOM     26  C   UNL     1      -4.706  -3.039  23.414  0.00  0.00    +0.252 C 
ENDBRANCH  24  25
ENDBRANCH  16  17
ENDBRANCH  15  16
TORSDOF 7
ENDMDL
MODEL 2
REMARK VINA RESULT:     -10.5      1.287      4.531
REMARK  Name = 
REMARK  7 active torsions:
REMARK  status: ('A' for Active; 'I' for Inactive)
REMARK    1  A    between atoms: C_2  and  C_3
REMARK    2  A    between atoms: C_3  and  N_4
REMARK    3  A    between atoms: C_10  and  C_11
REMARK    4  A    between atoms: C_11  and  C_12
REMARK    5  A    between atoms: C_15  and  C_16
REMARK    6  A    between atoms: C_16  and  C_17
REMARK    7  A    between atoms: C_24  and  O_25
REMARK                            x       y       z     vdW  Elec       q    Type
REMARK                         _______ _______ _______ _____ _____    ______ ____
ROOT
ATOM      4  N   UNL     1      -3.809  -1.418  24.689  0.00  0.00    -0.188 NA
ATOM      5  C   UNL     1      -3.362  -0.724  24.701  0.00  0.00    +0.323 C 
ATOM      6  O   UNL     1      -2.543  -0.760  24.613  0.00  0.00    -0.251 OA
ATOM      7  N   UNL     1      -3.735   0.005  24.800  0.00  0.00    -0.263 N 
ATOM      8  C   UNL     1      -4.554   0.041  24.887  0.00  0.00    +0.095 C 
ATOM      9  C   UNL     1      -4.928   0.770  24.987  0.00  0.00    +0.022 C 
ATOM     10  C   UNL     1      -4.480   1.464  24.999  0.00  0.00    +0.015 C 
ATOM     15  C   UNL     1      -3.661   1.428  24.911  0.00  0.00    +0.026 C 
ATOM     29  C   UNL     1      -3.288   0.698  24.812  0.00  0.00    +0.095 C 
ENDROOT
BRANCH   4   3
ATOM      3  C   UNL     1      -3.437  -2.146  24.589  0.00  0.00    +0.117 C 
BRANCH   3   2
ATOM      1  C   UNL     1      -3.533  -3.549  24.333  0.00  0.00    +0.002 C 
ATOM      2  C   UNL     1      -3.864  -2.794  24.309  0.00  0.00    +0.023 C 
ENDBRANCH   3   2
ENDBRANCH   4   3
BRANCH  10  11
ATOM     11  C   UNL     1      -4.853   2.193  25.098  0.00  0.00    +0.114 C 
BRANCH  11  12
ATOM     12  C   UNL     1      -5.632   2.225  25.366  0.00  0.00    +0.365 C 
ATOM     13  O   UNL     1      -5.788   2.336  26.169  0.00  0.00    -0.246 OA
ATOM     14  O   UNL     1      -6.256   2.146  24.832  0.00  0.00    -0.246 OA
ENDBRANCH  11  12
ENDBRANCH  10  11
BRANCH  15  16
ATOM     16  C   UNL     1      -3.214   2.122  24.923  0.00  0.00    +0.047 C 
BRANCH  16  17
ATOM     17  C   UNL     1      -2.665   2.269  24.325  0.00  0.00    +0.053 C 
ATOM     18  N   UNL     1      -2.882   2.176  23.534  0.00  0.00    -0.274 NA
ATOM     19  C   UNL     1      -2.333   2.323  22.936  0.00  0.00    +0.130 C 
ATOM     20  C   UNL     1      -1.566   2.563  23.129  0.00  0.00    +0.053 C 
ATOM     21  C   UNL     1      -1.351   2.656  23.919  0.00  0.00    -0.019 A 
ATOM     22  C   UNL     1      -1.900   2.509  24.517  0.00  0.00    +0.012 A 
ATOM     23  C   UNL     1      -1.684   2.601  25.308  0.00  0.00    +0.038 A 
ATOM     24  C   UNL     1      -0.918   2.841  25.501  0.00  0.00    +0.139 A 
ATOM     27  C   UNL     1      -0.369   2.988  24.903  0.00  0.00    +0.037 A 
ATOM     28  C   UNL     1      -0.585   2.895  24.111  0.00  0.00    -0.001 A 
BRANCH  24  25
ATOM     25  O   UNL     1      -0.702   2.934  26.292  0.00  0.00    -0.471 OA
ATOM     26  C   UNL     1      -0.018   2.573  26.578  0.00  0.00    +0.252 C 
ENDBRANCH  24  25
ENDBRANCH  16  17
ENDBRANCH  15  16
TORSDOF 7
ENDMDL
MODEL 3
REMARK VINA RESULT:     -10.1      2.289      4.463
REMARK  Name = 
REMARK  7 active torsions:
REMARK  status: ('A' for Active; 'I' for Inactive)
REMARK    1  A    between atoms: C_2  and  C_3
REMARK    2  A    between atoms: C_3  and  N_4
REMARK    3  A    between atoms: C_10  and  C_11
REMARK    4  A    between atoms: C_11  and  C_12
REMARK    5  A    between atoms: C_15  and  C_16
REMARK    6  A    between atoms: C_16  and  C_17
REMARK    7  A    between atoms: C_24  and  O_25
REMARK                            x       y       z     vdW  Elec       q    Type
REMARK                         _______ _______ _______ _____ _____    ______ ____
ROOT
ATOM      4  N   UNL     1       0.099  -0.023  23.707  0.00  0.00    -0.188 NA
ATOM      5  C   UNL     1      -0.488   0.532  23.872  0.00  0.00    +0.323 C 
ATOM      6  O   UNL     1      -0.358   1.331  23.710  0.00  0.00    -0.251 OA
ATOM      7  N   UNL     1      -1.205   0.290  24.200  0.00  0.00    -0.263 N 
ATOM      8  C   UNL     1      -1.335  -0.508  24.362  0.00  0.00    +0.095 C 
ATOM      9  C   UNL     1      -2.052  -0.751  24.690  0.00  0.00    +0.022 C 
ATOM     10  C   UNL     1      -2.639  -0.194  24.855  0.00  0.00    +0.015 C 
ATOM     15  C   UNL     1      -2.509   0.604  24.693  0.00  0.00    +0.026 C 
ATOM     29  C   UNL     1      -1.791   0.846  24.365  0.00  0.00    +0.095 C 
ENDROOT
BRANCH   4   3
ATOM      3  C   UNL     1       0.816   0.219  23.379  0.00  0.00    +0.117 C 
BRANCH   3   2
ATOM      1  C   UNL     1       2.006  -0.085  22.648  0.00  0.00    +0.002 C 
ATOM      2  C   UNL     1       1.261  -0.306  22.923  0.00  0.00    +0.023 C 
ENDBRANCH   3   2
ENDBRANCH   4   3
BRANCH  10  11
ATOM     11  C   UNL     1      -3.357  -0.437  25.183  0.00  0.00    +0.114 C 
BRANCH  11  12
ATOM     12  C   UNL     1      -3.438  -1.203  25.476  0.00  0.00    +0.365 C 
ATOM     13  O   UNL     1      -3.698  -1.810  24.980  0.00  0.00    -0.246 OA
ATOM     14  O   UNL     1      -3.260  -1.364  26.265  0.00  0.00    -0.246 OA
ENDBRANCH  11  12
ENDBRANCH  10  11
BRANCH  15  16
ATOM     16  C   UNL     1      -3.096   1.159  24.858  0.00  0.00    +0.047 C 
BRANCH  16  17
ATOM     17  C   UNL     1      -3.326   1.701  24.280  0.00  0.00    +0.053 C 
ATOM     18  N   UNL     1      -3.373   1.466  23.489  0.00  0.00    -0.274 NA
ATOM     19  C   UNL     1      -3.602   2.008  22.911  0.00  0.00    +0.130 C 
ATOM     20  C   UNL     1      -3.784   2.785  23.122  0.00  0.00    +0.053 C 
ATOM     21  C   UNL     1      -3.737   3.019  23.912  0.00  0.00    -0.019 A 
ATOM     22  C   UNL     1      -3.508   2.478  24.490  0.00  0.00    +0.012 A 
ATOM     23  C   UNL     1      -3.461   2.712  25.279  0.00  0.00    +0.038 A 
ATOM     24  C   UNL     1      -3.643   3.489  25.491  0.00  0.00    +0.139 A 
ATOM     27  C   UNL     1      -3.872   4.030  24.912  0.00  0.00    +0.037 A 
ATOM     28  C   UNL     1      -3.920   3.796  24.122  0.00  0.00    -0.001 A 
BRANCH  24  25
ATOM     25  O   UNL     1      -3.596   3.723  26.280  0.00  0.00    -0.471 OA
ATOM     26  C   UNL     1      -3.055   4.303  26.507  0.00  0.00    +0.252 C 
ENDBRANCH  24  25
ENDBRANCH  16  17
ENDBRANCH  15  16
TORSDOF 7
ENDMDL
MODEL 4
REMARK VINA RESULT:     -10.1      2.051      3.321
REMARK  Name = 
REMARK  7 active torsions:
REMARK  status: ('A' for Active; 'I' for Inactive)
REMARK    1  A    between atoms: C_2  and  C_3
REMARK    2  A    between atoms: C_3  and  N_4
REMARK    3  A    between atoms: C_10  and  C_11
REMARK    4  A    between atoms: C_11  and  C_12
REMARK    5  A    between atoms: C_15  and  C_16
REMARK    6  A    between atoms: C_16  and  C_17
REMARK    7  A    between atoms: C_24  and  O_25
REMARK                            x       y       z     vdW  Elec       q    Type
REMARK                         _______ _______ _______ _____ _____    ______ ____
ROOT
ATOM      4  N   UNL     1      -0.932   3.261  24.725  0.00  0.00    -0.188 NA
ATOM      5  C   UNL     1      -1.316   2.531  24.763  0.00  0.00    +0.323 C 
ATOM      6  O   UNL     1      -2.069   2.479  25.095  0.00  0.00    -0.251 OA
ATOM      7  N   UNL     1      -0.947   1.855  24.470  0.00  0.00    -0.263 N 
ATOM      8  C   UNL     1      -0.193   1.907  24.138  0.00  0.00    +0.095 C 
ATOM      9  C   UNL     1       0.176   1.231  23.844  0.00  0.00    +0.022 C 
ATOM     10  C   UNL     1      -0.208   0.501  23.883  0.00  0.00    +0.015 C 
ATOM     15  C   UNL     1      -0.962   0.449  24.214  0.00  0.00    +0.026 C 
ATOM     29  C   UNL     1      -1.331   1.126  24.508  0.00  0.00    +0.095 C 
ENDROOT
BRANCH   4   3
ATOM      3  C   UNL     1      -1.301   3.937  25.019  0.00  0.00    +0.117 C 
BRANCH   3   2
ATOM      1  C   UNL     1      -1.332   5.366  25.040  0.00  0.00    +0.002 C 
ATOM      2  C   UNL     1      -0.905   4.661  25.010  0.00  0.00    +0.023 C 
ENDBRANCH   3   2
ENDBRANCH   4   3
BRANCH  10  11
ATOM     11  C   UNL     1       0.162  -0.176  23.589  0.00  0.00    +0.114 C 
BRANCH  11  12
ATOM     12  C   UNL     1       0.805  -0.106  23.078  0.00  0.00    +0.365 C 
ATOM     13  O   UNL     1       1.571  -0.061  23.382  0.00  0.00    -0.246 OA
ATOM     14  O   UNL     1       0.683  -0.079  22.263  0.00  0.00    -0.246 OA
ENDBRANCH  11  12
ENDBRANCH  10  11
BRANCH  15  16
ATOM     16  C   UNL     1      -1.345  -0.281  24.252  0.00  0.00    +0.047 C 
BRANCH  16  17
ATOM     17  C   UNL     1      -1.620  -0.564  24.977  0.00  0.00    +0.053 C 
ATOM     18  N   UNL     1      -1.162  -0.471  25.658  0.00  0.00    -0.274 NA
ATOM     19  C   UNL     1      -1.437  -0.754  26.382  0.00  0.00    +0.130 C 
ATOM     20  C   UNL     1      -2.170  -1.132  26.426  0.00  0.00    +0.053 C 
ATOM     21  C   UNL     1      -2.626  -1.226  25.746  0.00  0.00    -0.019 A 
ATOM     22  C   UNL     1      -2.352  -0.942  25.022  0.00  0.00    +0.012 A 
ATOM     23  C   UNL     1      -2.809  -1.036  24.341  0.00  0.00    +0.038 A 
ATOM     24  C   UNL     1      -3.541  -1.414  24.386  0.00  0.00    +0.139 A 
ATOM     27  C   UNL     1      -3.816  -1.698  25.110  0.00  0.00    +0.037 A 
ATOM     28  C   UNL     1      -3.358  -1.604  25.791  0.00  0.00    -0.001 A 
BRANCH  24  25
ATOM     25  O   UNL     1      -3.998  -1.508  23.705  0.00  0.00    -0.471 OA
ATOM     26  C   UNL     1      -4.406  -2.213  23.575  0.00  0.00    +0.252 C 
ENDBRANCH  24  25
ENDBRANCH  16  17
ENDBRANCH  15  16
TORSDOF 7
ENDMDL
MODEL 5
REMARK VINA RESULT:     -10.0      2.859      3.899
REMARK  Name = 
REMARK  7 active torsions:
REMARK  status: ('A' for Active; 'I' for Inactive)
REMARK    1  A    between atoms: C_2  and  C_3
REMARK    2  A    between atoms: C_3  and  N_4
REMARK    3  A    between atoms: C_10  and  C_11
REMARK    4  A    between atoms: C_11  and  C_12
REMARK    5  A    between atoms: C_15  and  C_16
REMARK    6  A    between atoms: C_16  and  C_17
REMARK    7  A    between atoms: C_24  and  O_25
REMARK                            x       y       z     vdW  Elec       q    Type
REMARK                         _______ _______ _______ _____ _____    ______ ____
ROOT
ATOM      4  N   UNL     1       1.275   0.503  23.203  0.00  0.00    -0.188 NA
ATOM      5  C   UNL     1       0.517   0.291  23.450  0.00  0.00    +0.323 C 
ATOM      6  O   UNL     1       0.153  -0.378  23.134  0.00  0.00    -0.251 OA
ATOM      7  N   UNL     1       0.124   0.746  24.014  0.00  0.00    -0.263 N 
ATOM      8  C   UNL     1       0.488   1.415  24.330  0.00  0.00    +0.095 C 
ATOM      9  C   UNL     1       0.095   1.871  24.894  0.00  0.00    +0.022 C 
ATOM     10  C   UNL     1      -0.663   1.658  25.141  0.00  0.00    +0.015 C 
ATOM     15  C   UNL     1      -1.027   0.989  24.825  0.00  0.00    +0.026 C 
ATOM     29  C   UNL     1      -0.633   0.533  24.261  0.00  0.00    +0.095 C 
ENDROOT
BRANCH   4   3
ATOM      3  C   UNL     1       1.669   0.048  22.639  0.00  0.00    +0.117 C 
BRANCH   3   2
ATOM      1  C   UNL     1       2.872   0.071  21.870  0.00  0.00    +0.002 C 
ATOM      2  C   UNL     1       2.493   0.059  22.601  0.00  0.00    +0.023 C 
ENDBRANCH   3   2
ENDBRANCH   4   3
BRANCH  10  11
ATOM     11  C   UNL     1      -1.057   2.114  25.706  0.00  0.00    +0.114 C 
BRANCH  11  12
ATOM     12  C   UNL     1      -0.662   2.728  26.088  0.00  0.00    +0.365 C 
ATOM     13  O   UNL     1      -0.203   2.571  26.757  0.00  0.00    -0.246 OA
ATOM     14  O   UNL     1      -0.724   3.500  25.804  0.00  0.00    -0.246 OA
ENDBRANCH  11  12
ENDBRANCH  10  11
BRANCH  15  16
ATOM     16  C   UNL     1      -1.785   0.776  25.072  0.00  0.00    +0.047 C 
BRANCH  16  17
ATOM     17  C   UNL     1      -2.401   0.736  24.525  0.00  0.00    +0.053 C 
ATOM     18  N   UNL     1      -2.472   1.315  23.941  0.00  0.00    -0.274 NA
ATOM     19  C   UNL     1      -3.088   1.276  23.393  0.00  0.00    +0.130 C 
ATOM     20  C   UNL     1      -3.634   0.657  23.430  0.00  0.00    +0.053 C 
ATOM     21  C   UNL     1      -3.563   0.079  24.015  0.00  0.00    -0.019 A 
ATOM     22  C   UNL     1      -2.947   0.119  24.562  0.00  0.00    +0.012 A 
ATOM     23  C   UNL     1      -2.876  -0.459  25.146  0.00  0.00    +0.038 A 
ATOM     24  C   UNL     1      -3.422  -1.077  25.183  0.00  0.00    +0.139 A 
ATOM     27  C   UNL     1      -4.038  -1.117  24.636  0.00  0.00    +0.037 A 
ATOM     28  C   UNL     1      -4.109  -0.538  24.051  0.00  0.00    -0.001 A 
BRANCH  24  25
ATOM     25  O   UNL     1      -3.351  -1.655  25.767  0.00  0.00    -0.471 OA
ATOM     26  C   UNL     1      -3.340  -2.453  25.560  0.00  0.00    +0.252 C 
ENDBRANCH  24  25
ENDBRANCH  16  17
ENDBRANCH  15  16
TORSDOF 7
ENDMDL
MODEL 6
REMARK VINA RESULT:      -9.8      1.907      5.320
REMARK  Name = 
REMARK  7 active torsions:
REMARK  status: ('A' for Active; 'I' for Inactive)
REMARK    1  A    between atoms: C_2  and  C_3
REMARK    2  A    between atoms: C_3  and  N_4
REMARK    3  A    between atoms: C_10  and  C_11
REMARK    4  A    between atoms: C_11  and  C_12
REMARK    5  A    between atoms: C_15  and  C_16
REMARK    6  A    between atoms: C_16  and  C_17
REMARK    7  A    between atoms: C_24  and  O_25
REMARK                            x       y       z     vdW  Elec       q    Type
REMARK                         _______ _______ _______ _____ _____    ______ ____
ROOT
ATOM      4  N   UNL     1      -2.450  -1.314  24.757  0.00  0.00    -0.188 NA
ATOM      5  C   UNL     1      -2.635  -0.510  24.784  0.00  0.00    +0.323 C 
ATOM      6  O   UNL     1      -3.400  -0.270  24.976  0.00  0.00    -0.251 OA
ATOM      7  N   UNL     1      -2.056   0.053  24.619  0.00  0.00    -0.263 N 
ATOM      8  C   UNL     1      -1.290  -0.187  24.426  0.00  0.00    +0.095 C 
ATOM      9  C   UNL     1      -0.710   0.375  24.261  0.00  0.00    +0.022 C 
ATOM     10  C   UNL     1      -0.896   1.179  24.288  0.00  0.00    +0.015 C 
ATOM     15  C   UNL     1      -1.662   1.420  24.480  0.00  0.00    +0.026 C 
ATOM     29  C   UNL     1      -2.241   0.856  24.645  0.00  0.00    +0.095 C 
ENDROOT
BRANCH   4   3
ATOM      3  C   UNL     1      -3.029  -1.877  24.923  0.00  0.00    +0.117 C 
BRANCH   3   2
ATOM      1  C   UNL     1      -3.530  -3.174  24.594  0.00  0.00    +0.002 C 
ATOM      2  C   UNL     1      -2.895  -2.672  24.746  0.00  0.00    +0.023 C 
ENDBRANCH   3   2
ENDBRANCH   4   3
BRANCH  10  11
ATOM     11  C   UNL     1      -0.316   1.743  24.122  0.00  0.00    +0.114 C 
BRANCH  11  12
ATOM     12  C   UNL     1       0.479   1.566  24.248  0.00  0.00    +0.365 C 
ATOM     13  O   UNL     1       0.841   1.776  24.959  0.00  0.00    -0.246 OA
ATOM     14  O   UNL     1       0.913   1.178  23.663  0.00  0.00    -0.246 OA
ENDBRANCH  11  12
ENDBRANCH  10  11
BRANCH  15  16
ATOM     16  C   UNL     1      -1.847   2.223  24.506  0.00  0.00    +0.047 C 
BRANCH  16  17
ATOM     17  C   UNL     1      -2.530   2.501  24.136  0.00  0.00    +0.053 C 
ATOM     18  N   UNL     1      -2.734   2.225  23.385  0.00  0.00    -0.274 NA
ATOM     19  C   UNL     1      -3.416   2.503  23.014  0.00  0.00    +0.130 C 
ATOM     20  C   UNL     1      -3.896   3.057  23.394  0.00  0.00    +0.053 C 
ATOM     21  C   UNL     1      -3.692   3.332  24.145  0.00  0.00    -0.019 A 
ATOM     22  C   UNL     1      -3.010   3.055  24.515  0.00  0.00    +0.012 A 
ATOM     23  C   UNL     1      -2.806   3.330  25.266  0.00  0.00    +0.038 A 
ATOM     24  C   UNL     1      -3.286   3.884  25.646  0.00  0.00    +0.139 A 
ATOM     27  C   UNL     1      -3.968   4.162  25.275  0.00  0.00    +0.037 A 
ATOM     28  C   UNL     1      -4.172   3.886  24.524  0.00  0.00    -0.001 A 
BRANCH  24  25
ATOM     25  O   UNL     1      -3.082   4.160  26.396  0.00  0.00    -0.471 OA
ATOM     26  C   UNL     1      -3.638   4.148  27.005  0.00  0.00    +0.252 C 
ENDBRANCH  24  25
ENDBRANCH  16  17
ENDBRANCH  15  16
TORSDOF 7
ENDMDL
MODEL 7
REMARK VINA RESULT:      -9.6      1.460      2.674
REMARK  Name = 
REMARK  7 active torsions:
REMARK  status: ('A' for Active; 'I' for Inactive)
REMARK    1  A    between atoms: C_2  and  C_3
REMARK    2  A    between atoms: C_3  and  N_4
REMARK    3  A    between atoms: C_10  and  C_11
REMARK    4  A    between atoms: C_11  and  C_12
REMARK    5  A    between atoms: C_15  and  C_16
REMARK    6  A    between atoms: C_16  and  C_17
REMARK    7  A    between atoms: C_24  and  O_25
REMARK                            x       y       z     vdW  Elec       q    Type
REMARK                         _______ _______ _______ _____ _____    ______ ____
ROOT
ATOM      4  N   UNL     1      -4.986   3.190  25.083  0.00  0.00    -0.188 NA
ATOM      5  C   UNL     1      -4.795   2.389  25.038  0.00  0.00    +0.323 C 
ATOM      6  O   UNL     1      -5.171   1.847  25.533  0.00  0.00    -0.251 OA
ATOM      7  N   UNL     1      -4.229   2.130  24.498  0.00  0.00    -0.263 N 
ATOM      8  C   UNL     1      -3.853   2.672  24.002  0.00  0.00    +0.095 C 
ATOM      9  C   UNL     1      -3.286   2.413  23.461  0.00  0.00    +0.022 C 
ATOM     10  C   UNL     1      -3.095   1.611  23.417  0.00  0.00    +0.015 C 
ATOM     15  C   UNL     1      -3.471   1.069  23.912  0.00  0.00    +0.026 C 
ATOM     29  C   UNL     1      -4.038   1.329  24.453  0.00  0.00    +0.095 C 
ENDROOT
BRANCH   4   3
ATOM      3  C   UNL     1      -5.552   3.450  25.623  0.00  0.00    +0.117 C 
BRANCH   3   2
ATOM      1  C   UNL     1      -6.273   4.684  25.643  0.00  0.00    +0.002 C 
ATOM      2  C   UNL     1      -5.596   4.249  25.824  0.00  0.00    +0.023 C 
ENDBRANCH   3   2
ENDBRANCH   4   3
BRANCH  10  11
ATOM     11  C   UNL     1      -2.528   1.351  22.876  0.00  0.00    +0.114 C 
BRANCH  11  12
ATOM     12  C   UNL     1      -2.159   1.891  22.374  0.00  0.00    +0.365 C 
ATOM     13  O   UNL     1      -2.488   2.059  21.635  0.00  0.00    -0.246 OA
ATOM     14  O   UNL     1      -1.463   2.264  22.609  0.00  0.00    -0.246 OA
ENDBRANCH  11  12
ENDBRANCH  10  11
BRANCH  15  16
ATOM     16  C   UNL     1      -3.280   0.267  23.867  0.00  0.00    +0.047 C 
BRANCH  16  17
ATOM     17  C   UNL     1      -3.000  -0.128  24.535  0.00  0.00    +0.053 C 
ATOM     18  N   UNL     1      -2.516   0.266  25.076  0.00  0.00    -0.274 NA
ATOM     19  C   UNL     1      -2.236  -0.129  25.744  0.00  0.00    +0.130 C 
ATOM     20  C   UNL     1      -2.441  -0.919  25.872  0.00  0.00    +0.053 C 
ATOM     21  C   UNL     1      -2.925  -1.312  25.332  0.00  0.00    -0.019 A 
ATOM     22  C   UNL     1      -3.205  -0.917  24.664  0.00  0.00    +0.012 A 
ATOM     23  C   UNL     1      -3.689  -1.310  24.124  0.00  0.00    +0.038 A 
ATOM     24  C   UNL     1      -3.893  -2.099  24.253  0.00  0.00    +0.139 A 
ATOM     27  C   UNL     1      -3.614  -2.494  24.921  0.00  0.00    +0.037 A 
ATOM     28  C   UNL     1      -3.130  -2.100  25.461  0.00  0.00    -0.001 A 
BRANCH  24  25
ATOM     25  O   UNL     1      -4.377  -2.492  23.713  0.00  0.00    -0.471 OA
ATOM     26  C   UNL     1      -4.269  -3.297  23.570  0.00  0.00    +0.252 C 
ENDBRANCH  24  25
ENDBRANCH  16  17
ENDBRANCH  15  16
TORSDOF 7
ENDMDL
MODEL 8
REMARK VINA RESULT:      -9.4      2.262      4.060
REMARK  Name = 
REMARK  7 active torsions:
REMARK  status: ('A' for Active; 'I' for Inactive)
REMARK    1  A    between atoms: C_2  and  C_3
REMARK    2  A    between atoms: C_3  and  N_4
REMARK    3  A    between atoms: C_10  and  C_11
REMARK    4  A    between atoms: C_11  and  C_12
REMARK    5  A    between atoms: C_15  and  C_16
REMARK    6  A    between atoms: C_16  and  C_17
REMARK    7  A    between atoms: C_24  and  O_25
REMARK                            x       y       z     vdW  Elec       q    Type
REMARK                         _______ _______ _______ _____ _____    ______ ____
ROOT
ATOM      4  N   UNL     1      -4.926   1.381  24.858  0.00  0.00    -0.188 NA
ATOM      5  C   UNL     1      -4.113   1.339  24.723  0.00  0.00    +0.323 C 
ATOM      6  O   UNL     1      -3.698   2.015  24.499  0.00  0.00    -0.251 OA
ATOM      7  N   UNL     1      -3.716   0.622  24.812  0.00  0.00    -0.263 N 
ATOM      8  C   UNL     1      -4.132  -0.054  25.036  0.00  0.00    +0.095 C 
ATOM      9  C   UNL     1      -3.735  -0.772  25.126  0.00  0.00    +0.022 C 
ATOM     10  C   UNL     1      -2.922  -0.813  24.990  0.00  0.00    +0.015 C 
ATOM     15  C   UNL     1      -2.506  -0.137  24.766  0.00  0.00    +0.026 C 
ATOM     29  C   UNL     1      -2.904   0.581  24.677  0.00  0.00    +0.095 C 
ENDROOT
BRANCH   4   3
ATOM      3  C   UNL     1      -5.323   2.098  24.769  0.00  0.00    +0.117 C 
BRANCH   3   2
ATOM      1  C   UNL     1      -6.225   2.866  25.568  0.00  0.00    +0.002 C 
ATOM      2  C   UNL     1      -6.070   2.202  25.106  0.00  0.00    +0.023 C 
ENDBRANCH   3   2
ENDBRANCH   4   3
BRANCH  10  11
ATOM     11  C   UNL     1      -2.524  -1.531  25.080  0.00  0.00    +0.114 C 
BRANCH  11  12
ATOM     12  C   UNL     1      -2.933  -2.242  24.996  0.00  0.00    +0.365 C 
ATOM     13  O   UNL     1      -2.971  -2.613  24.260  0.00  0.00    -0.246 OA
ATOM     14  O   UNL     1      -3.305  -2.583  25.649  0.00  0.00    -0.246 OA
ENDBRANCH  11  12
ENDBRANCH  10  11
BRANCH  15  16
ATOM     16  C   UNL     1      -1.693  -0.178  24.631  0.00  0.00    +0.047 C 
BRANCH  16  17
ATOM     17  C   UNL     1      -1.200   0.427  24.896  0.00  0.00    +0.053 C 
ATOM     18  N   UNL     1      -1.391   0.845  25.582  0.00  0.00    -0.274 NA
ATOM     19  C   UNL     1      -0.897   1.451  25.847  0.00  0.00    +0.130 C 
ATOM     20  C   UNL     1      -0.213   1.640  25.426  0.00  0.00    +0.053 C 
ATOM     21  C   UNL     1      -0.023   1.223  24.741  0.00  0.00    -0.019 A 
ATOM     22  C   UNL     1      -0.516   0.617  24.476  0.00  0.00    +0.012 A 
ATOM     23  C   UNL     1      -0.326   0.200  23.790  0.00  0.00    +0.038 A 
ATOM     24  C   UNL     1       0.358   0.389  23.369  0.00  0.00    +0.139 A 
ATOM     27  C   UNL     1       0.852   0.995  23.634  0.00  0.00    +0.037 A 
ATOM     28  C   UNL     1       0.661   1.412  24.320  0.00  0.00    -0.001 A 
BRANCH  24  25
ATOM     25  O   UNL     1       0.548  -0.028  22.683  0.00  0.00    -0.471 OA
ATOM     26  C   UNL     1       1.338  -0.139  22.473  0.00  0.00    +0.252 C 
ENDBRANCH  24  25
ENDBRANCH  16  17
ENDBRANCH  15  16
TORSDOF 7
ENDMDL
MODEL 9
REMARK VINA RESULT:      -9.3      2.124      3.909
REMARK  Name = 
REMARK  7 active torsions:
REMARK  status: ('A' for Active; 'I' for Inactive)
REMARK    1  A    between atoms: C_2  and  C_3
REMARK    2  A    between atoms: C_3  and  N_4
REMARK    3  A    between atoms: C_10  and  C_11
REMARK    4  A    between atoms: C_11  and  C_12
REMARK    5  A    between atoms: C_15  and  C_16
REMARK    6  A    between atoms: C_16  and  C_17
REMARK    7  A    between atoms: C_24  and  O_25
REMARK                            x       y       z     vdW  Elec       q    Type
REMARK                         _______ _______ _______ _____ _____    ______ ____
ROOT
ATOM      4  N   UNL     1      -4.577   2.212  24.834  0.00  0.00    -0.188 NA
ATOM      5  C   UNL     1      -3.889   1.772  24.717  0.00  0.00    +0.323 C 
ATOM      6  O   UNL     1      -3.940   0.983  24.481  0.00  0.00    -0.251 OA
ATOM      7  N   UNL     1      -3.151   2.120  24.834  0.00  0.00    -0.263 N 
ATOM      8  C   UNL     1      -3.100   2.909  25.070  0.00  0.00    +0.095 C 
ATOM      9  C   UNL     1      -2.362   3.258  25.188  0.00  0.00    +0.022 C 
ATOM     10  C   UNL     1      -1.674   2.816  25.070  0.00  0.00    +0.015 C 
ATOM     15  C   UNL     1      -1.725   2.027  24.835  0.00  0.00    +0.026 C 
ATOM     29  C   UNL     1      -2.464   1.679  24.717  0.00  0.00    +0.095 C 
ENDROOT
BRANCH   4   3
ATOM      3  C   UNL     1      -5.315   1.864  24.716  0.00  0.00    +0.117 C 
BRANCH   3   2
ATOM      1  C   UNL     1      -6.696   1.768  25.072  0.00  0.00    +0.002 C 
ATOM      2  C   UNL     1      -5.986   2.187  25.073  0.00  0.00    +0.023 C 
ENDBRANCH   3   2
ENDBRANCH   4   3
BRANCH  10  11
ATOM     11  C   UNL     1      -0.935   3.165  25.188  0.00  0.00    +0.114 C 
BRANCH  11  12
ATOM     12  C   UNL     1      -0.828   3.967  25.032  0.00  0.00    +0.365 C 
ATOM     13  O   UNL     1      -0.520   4.209  24.305  0.00  0.00    -0.246 OA
ATOM     14  O   UNL     1      -1.028   4.529  25.602  0.00  0.00    -0.246 OA
ENDBRANCH  11  12
ENDBRANCH  10  11
BRANCH  15  16
ATOM     16  C   UNL     1      -1.037   1.587  24.718  0.00  0.00    +0.047 C 
BRANCH  16  17
ATOM     17  C   UNL     1      -0.995   0.808  24.988  0.00  0.00    +0.053 C 
ATOM     18  N   UNL     1      -1.381   0.592  25.685  0.00  0.00    -0.274 NA
ATOM     19  C   UNL     1      -1.339  -0.186  25.955  0.00  0.00    +0.130 C 
ATOM     20  C   UNL     1      -0.912  -0.749  25.528  0.00  0.00    +0.053 C 
ATOM     21  C   UNL     1      -0.527  -0.533  24.832  0.00  0.00    -0.019 A 
ATOM     22  C   UNL     1      -0.568   0.246  24.562  0.00  0.00    +0.012 A 
ATOM     23  C   UNL     1      -0.183   0.463  23.865  0.00  0.00    +0.038 A 
ATOM     24  C   UNL     1       0.244  -0.100  23.439  0.00  0.00    +0.139 A 
ATOM     27  C   UNL     1       0.286  -0.879  23.709  0.00  0.00    +0.037 A 
ATOM     28  C   UNL     1      -0.100  -1.095  24.406  0.00  0.00    -0.001 A 
BRANCH  24  25
ATOM     25  O   UNL     1       0.630   0.117  22.742  0.00  0.00    -0.471 OA
ATOM     26  C   UNL     1       1.437  -0.029  22.654  0.00  0.00    +0.252 C 
ENDBRANCH  24  25
ENDBRANCH  16  17
ENDBRANCH  15  16
TORSDOF 7
ENDMDL
MODEL 10
REMARK VINA RESULT:      -9.2      2.313      5.456
REMARK  Name = 
REMARK  7 active torsions:
REMARK  status: ('A' for Active; 'I' for Inactive)
REMARK    1  A    between atoms: C_2  and  C_3
REMARK    2  A    between atoms: C_3  and  N_4
REMARK    3  A    between atoms: C_10  and  C_11
REMARK    4  A    between atoms: C_11  and  C_12
REMARK    5  A    between atoms: C_15  and  C_16
REMARK    6  A    between atoms: C_16  and  C_17
REMARK    7  A    between atoms: C_24  and  O_25
REMARK                            x       y       z     vdW  Elec       q    Type
REMARK                         _______ _______ _______ _____ _____    ______ ____
ROOT
ATOM      4  N   UNL     1      -2.411  -1.540  24.864  0.00  0.00    -0.188 NA
ATOM      5  C   UNL     1      -2.305  -0.722  24.870  0.00  0.00    +0.323 C 
ATOM      6  O   UNL     1      -2.878  -0.234  25.208  0.00  0.00    -0.251 OA
ATOM      7  N   UNL     1      -1.626  -0.391  24.540  0.00  0.00    -0.263 N 
ATOM      8  C   UNL     1      -1.052  -0.879  24.202  0.00  0.00    +0.095 C 
ATOM      9  C   UNL     1      -0.373  -0.549  23.871  0.00  0.00    +0.022 C 
ATOM     10  C   UNL     1      -0.267   0.270  23.878  0.00  0.00    +0.015 C 
ATOM     15  C   UNL     1      -0.840   0.758  24.216  0.00  0.00    +0.026 C 
ATOM     29  C   UNL     1      -1.520   0.426  24.547  0.00  0.00    +0.095 C 
ENDROOT
BRANCH   4   3
ATOM      3  C   UNL     1      -3.090  -1.871  25.194  0.00  0.00    +0.117 C 
BRANCH   3   2
ATOM      1  C   UNL     1      -3.787  -2.951  24.570  0.00  0.00    +0.002 C 
ATOM      2  C   UNL     1      -3.235  -2.680  25.119  0.00  0.00    +0.023 C 
ENDBRANCH   3   2
ENDBRANCH   4   3
BRANCH  10  11
ATOM     11  C   UNL     1       0.413   0.601  23.546  0.00  0.00    +0.114 C 
BRANCH  11  12
ATOM     12  C   UNL     1       0.914   0.138  23.084  0.00  0.00    +0.365 C 
ATOM     13  O   UNL     1       0.747   0.021  22.284  0.00  0.00    -0.246 OA
ATOM     14  O   UNL     1       1.582  -0.210  23.420  0.00  0.00    -0.246 OA
ENDBRANCH  11  12
ENDBRANCH  10  11
BRANCH  15  16
ATOM     16  C   UNL     1      -0.734   1.576  24.222  0.00  0.00    +0.047 C 
BRANCH  16  17
ATOM     17  C   UNL     1      -0.696   1.981  24.940  0.00  0.00    +0.053 C 
ATOM     18  N   UNL     1      -0.160   1.743  25.521  0.00  0.00    -0.274 NA
ATOM     19  C   UNL     1      -0.123   2.147  26.239  0.00  0.00    +0.130 C 
ATOM     20  C   UNL     1      -0.622   2.790  26.377  0.00  0.00    +0.053 C 
ATOM     21  C   UNL     1      -1.158   3.028  25.797  0.00  0.00    -0.019 A 
ATOM     22  C   UNL     1      -1.195   2.623  25.079  0.00  0.00    +0.012 A 
ATOM     23  C   UNL     1      -1.731   2.860  24.498  0.00  0.00    +0.038 A 
ATOM     24  C   UNL     1      -2.230   3.503  24.636  0.00  0.00    +0.139 A 
ATOM     27  C   UNL     1      -2.193   3.908  25.354  0.00  0.00    +0.037 A 
ATOM     28  C   UNL     1      -1.656   3.670  25.935  0.00  0.00    -0.001 A 
BRANCH  24  25
ATOM     25  O   UNL     1      -2.765   3.741  24.055  0.00  0.00    -0.471 OA
ATOM     26  C   UNL     1      -3.571   3.785  24.229  0.00  0.00    +0.252 C 
ENDBRANCH  24  25
ENDBRANCH  16  17
ENDBRANCH  15  16
TORSDOF 7
ENDMDL
