MODEL 1
REMARK VINA RESULT:      -8.6      0.000      0.000
REMARK  Name = 
REMARK  8 active torsions:
REMARK  status: ('A' for Active; 'I' for Inactive)
REMARK    1  A    between atoms: O_2  and  C_3
REMARK    2  A    between atoms: C_6  and  C_9
REMARK    3  A    between atoms: N_14  and  C_15
REMARK    4  A    between atoms: C_19  and  N_23
REMARK    5  A    between atoms: C_24  and  C_26
REMARK    6  A    between atoms: C_26  and  C_27
REMARK    7  A    between atoms: C_27  and  C_30
REMARK    8  A    between atoms: C_30  and  C_31
REMARK                            x       y       z     vdW  Elec       q    Type
REMARK                         _______ _______ _______ _____ _____    ______ ____
ROOT
ATOM     15  C   UNL     1      -0.260   1.020  23.962  0.00  0.00    +0.154 C 
ATOM     16  C   UNL     1      -0.740   0.350  23.921  0.00  0.00    +0.166 C 
ATOM     17  O   UNL     1      -1.524   0.601  23.884  0.00  0.00    -0.350 OA
ATOM     18  C   UNL     1      -1.531   1.425  23.901  0.00  0.00    +0.166 C 
ATOM     19  C   UNL     1      -2.018   2.090  23.889  0.00  0.00    +0.154 C 
ATOM     20  C   UNL     1      -1.539   2.760  23.930  0.00  0.00    +0.166 C 
ATOM     21  O   UNL     1      -0.754   2.509  23.968  0.00  0.00    -0.350 OA
ATOM     22  C   UNL     1      -0.749   1.684  23.950  0.00  0.00    +0.166 C 
ENDROOT
BRANCH  15  14
ATOM      9  C   UNL     1       2.280   0.214  22.929  0.00  0.00    +0.086 A 
ATOM     10  C   UNL     1       1.903  -0.198  22.323  0.00  0.00    +0.040 A 
ATOM     11  C   UNL     1       1.079  -0.203  22.277  0.00  0.00    +0.103 A 
ATOM     12  N   UNL     1       0.632   0.205  22.839  0.00  0.00    -0.211 NA
ATOM     13  C   UNL     1       1.010   0.617  23.446  0.00  0.00    +0.237 A 
ATOM     14  N   UNL     1       0.564   1.024  24.007  0.00  0.00    -0.200 NA
ATOM     34  N   UNL     1       1.834   0.621  23.491  0.00  0.00    -0.212 NA
BRANCH   9   6
ATOM      3  C   UNL     1       4.752   0.226  23.065  0.00  0.00    +0.139 A 
ATOM      4  C   UNL     1       4.350   0.890  22.783  0.00  0.00    +0.037 A 
ATOM      5  C   UNL     1       3.527   0.886  22.738  0.00  0.00    +0.005 A 
ATOM      6  C   UNL     1       3.103   0.218  22.974  0.00  0.00    +0.018 A 
ATOM      7  C   UNL     1       3.504  -0.445  23.256  0.00  0.00    +0.005 A 
ATOM      8  C   UNL     1       4.329  -0.441  23.301  0.00  0.00    +0.037 A 
BRANCH   3   2
ATOM      1  C   UNL     1       5.949   0.121  23.837  0.00  0.00    +0.252 C 
ATOM      2  O   UNL     1       5.575   0.231  23.110  0.00  0.00    -0.471 OA
ENDBRANCH   3   2
ENDBRANCH   9   6
ENDBRANCH  15  14
BRANCH  19  23
ATOM     23  N   UNL     1      -2.843   2.086  23.844  0.00  0.00    -0.202 NA
ATOM     24  C   UNL     1      -3.286   2.574  24.339  0.00  0.00    +0.241 C 
ATOM     25  O   UNL     1      -2.905   3.067  24.880  0.00  0.00    -0.273 OA
BRANCH  24  26
ATOM     26  C   UNL     1      -4.110   2.569  24.294  0.00  0.00    +0.087 C 
BRANCH  26  27
ATOM     27  C   UNL     1      -4.561   2.627  24.982  0.00  0.00    +0.019 C 
ATOM     28  C   UNL     1      -4.635   1.806  25.003  0.00  0.00    +0.001 C 
ATOM     29  C   UNL     1      -4.487   3.450  24.963  0.00  0.00    +0.001 C 
BRANCH  27  30
ATOM     30  C   UNL     1      -5.012   2.685  25.670  0.00  0.00    +0.115 C 
BRANCH  30  31
ATOM     31  C   UNL     1      -5.827   2.804  25.621  0.00  0.00    +0.365 C 
ATOM     32  O   UNL     1      -6.147   3.546  25.794  0.00  0.00    -0.246 OA
ATOM     33  O   UNL     1      -6.322   2.183  25.398  0.00  0.00    -0.246 OA
ENDBRANCH  30  31
ENDBRANCH  27  30
ENDBRANCH  26  27
ENDBRANCH  24  26
ENDBRANCH  19  23
TORSDOF 8
ENDMDL
MODEL 2
REMARK VINA RESULT:      -8.3      1.238      7.563
REMARK  Name = 
REMARK  8 active torsions:
REMARK  status: ('A' for Active; 'I' for Inactive)
REMARK    1  A    between atoms: O_2  and  C_3
REMARK    2  A    between atoms: C_6  and  C_9
REMARK    3  A    between atoms: N_14  and  C_15
REMARK    4  A    between atoms: C_19  and  N_23
REMARK    5  A    between atoms: C_24  and  C_26
REMARK    6  A    between atoms: C_26  and  C_27
REMARK    7  A    between atoms: C_27  and  C_30
REMARK    8  A    between atoms: C_30  and  C_31
REMARK                            x       y       z     vdW  Elec       q    Type
REMARK                         _______ _______ _______ _____ _____    ______ ____
ROOT
ATOM     15  C   UNL     1      -0.573   0.470  24.213  0.00  0.00    +0.154 C 
ATOM     16  C   UNL     1      -0.459  -0.347  24.233  0.00  0.00    +0.166 C 
ATOM     17  O   UNL     1       0.282  -0.508  23.908  0.00  0.00    -0.350 OA
ATOM     18  C   UNL     1       0.625   0.208  23.687  0.00  0.00    +0.166 C 
ATOM     19  C   UNL     1       1.295   0.552  23.350  0.00  0.00    +0.154 C 
ATOM     20  C   UNL     1       1.181   1.369  23.329  0.00  0.00    +0.166 C 
ATOM     21  O   UNL     1       0.440   1.530  23.655  0.00  0.00    -0.350 OA
ATOM     22  C   UNL     1       0.097   0.813  23.876  0.00  0.00    +0.166 C 
ENDROOT
BRANCH  15  14
ATOM      9  C   UNL     1      -3.416   0.736  24.354  0.00  0.00    +0.086 A 
ATOM     10  C   UNL     1      -3.502   0.064  23.884  0.00  0.00    +0.040 A 
ATOM     11  C   UNL     1      -2.834  -0.339  23.614  0.00  0.00    +0.103 A 
ATOM     12  N   UNL     1      -2.080  -0.070  23.813  0.00  0.00    -0.211 NA
ATOM     13  C   UNL     1      -1.995   0.603  24.284  0.00  0.00    +0.237 A 
ATOM     14  N   UNL     1      -1.241   0.873  24.483  0.00  0.00    -0.200 NA
ATOM     34  N   UNL     1      -2.662   1.006  24.553  0.00  0.00    -0.212 NA
BRANCH   9   6
ATOM      3  C   UNL     1      -5.419   1.943  25.164  0.00  0.00    +0.139 A 
ATOM      4  C   UNL     1      -4.910   2.304  24.623  0.00  0.00    +0.037 A 
ATOM      5  C   UNL     1      -4.243   1.901  24.353  0.00  0.00    +0.005 A 
ATOM      6  C   UNL     1      -4.083   1.138  24.623  0.00  0.00    +0.018 A 
ATOM      7  C   UNL     1      -4.591   0.778  25.164  0.00  0.00    +0.005 A 
ATOM      8  C   UNL     1      -5.259   1.180  25.434  0.00  0.00    +0.037 A 
BRANCH   3   2
ATOM      1  C   UNL     1      -6.005   3.087  25.787  0.00  0.00    +0.252 C 
ATOM      2  O   UNL     1      -6.086   2.346  25.434  0.00  0.00    -0.471 OA
ENDBRANCH   3   2
ENDBRANCH   9   6
ENDBRANCH  15  14
BRANCH  19  23
ATOM     23  N   UNL     1       1.963   0.150  23.079  0.00  0.00    -0.202 NA
ATOM     24  C   UNL     1       2.689   0.538  23.034  0.00  0.00    +0.241 C 
ATOM     25  O   UNL     1       2.748   1.330  23.259  0.00  0.00    -0.273 OA
BRANCH  24  26
ATOM     26  C   UNL     1       3.356   0.135  22.764  0.00  0.00    +0.087 C 
BRANCH  26  27
ATOM     27  C   UNL     1       4.102   0.330  23.057  0.00  0.00    +0.019 C 
ATOM     28  C   UNL     1       4.061  -0.304  23.583  0.00  0.00    +0.001 C 
ATOM     29  C   UNL     1       4.145   0.965  22.531  0.00  0.00    +0.001 C 
BRANCH  27  30
ATOM     30  C   UNL     1       4.848   0.524  23.351  0.00  0.00    +0.115 C 
BRANCH  30  31
ATOM     31  C   UNL     1       5.423  -0.062  23.439  0.00  0.00    +0.365 C 
ATOM     32  O   UNL     1       5.506  -0.452  24.162  0.00  0.00    -0.246 OA
ATOM     33  O   UNL     1       5.913  -0.257  22.805  0.00  0.00    -0.246 OA
ENDBRANCH  30  31
ENDBRANCH  27  30
ENDBRANCH  26  27
ENDBRANCH  24  26
ENDBRANCH  19  23
TORSDOF 8
ENDMDL
MODEL 3
REMARK VINA RESULT:      -6.3     14.665     17.109
REMARK  Name = 
REMARK  8 active torsions:
REMARK  status: ('A' for Active; 'I' for Inactive)
REMARK    1  A    between atoms: O_2  and  C_3
REMARK    2  A    between atoms: C_6  and  C_9
REMARK    3  A    between atoms: N_14  and  C_15
REMARK    4  A    between atoms: C_19  and  N_23
REMARK    5  A    between atoms: C_24  and  C_26
REMARK    6  A    between atoms: C_26  and  C_27
REMARK    7  A    between atoms: C_27  and  C_30
REMARK    8  A    between atoms: C_30  and  C_31
REMARK                            x       y       z     vdW  Elec       q    Type
REMARK                         _______ _______ _______ _____ _____    ______ ____
ROOT
ATOM     15  C   UNL     1      -5.274 -10.565  14.341  0.00  0.00    +0.154 C 
ATOM     16  C   UNL     1      -4.584 -10.712  14.767  0.00  0.00    +0.166 C 
ATOM     17  O   UNL     1      -3.957 -10.743  14.232  0.00  0.00    -0.350 OA
ATOM     18  C   UNL     1      -4.260 -10.615  13.476  0.00  0.00    +0.166 C 
ATOM     19  C   UNL     1      -4.060 -10.554  12.678  0.00  0.00    +0.154 C 
ATOM     20  C   UNL     1      -4.751 -10.407  12.252  0.00  0.00    +0.166 C 
ATOM     21  O   UNL     1      -5.378 -10.376  12.787  0.00  0.00    -0.350 OA
ATOM     22  C   UNL     1      -5.074 -10.504  13.544  0.00  0.00    +0.166 C 
ENDROOT
BRANCH  15  14
ATOM      9  C   UNL     1      -7.006  -9.684  16.438  0.00  0.00    +0.086 A 
ATOM     10  C   UNL     1      -6.355  -9.391  16.853  0.00  0.00    +0.040 A 
ATOM     11  C   UNL     1      -5.597  -9.466  16.536  0.00  0.00    +0.103 A 
ATOM     12  N   UNL     1      -5.489  -9.832  15.804  0.00  0.00    -0.211 NA
ATOM     13  C   UNL     1      -6.141 -10.124  15.390  0.00  0.00    +0.237 A 
ATOM     14  N   UNL     1      -6.033 -10.490  14.658  0.00  0.00    -0.200 NA
ATOM     34  N   UNL     1      -6.898 -10.050  15.707  0.00  0.00    -0.212 NA
BRANCH   9   6
ATOM      3  C   UNL     1      -9.280  -9.461  17.390  0.00  0.00    +0.139 A 
ATOM      4  C   UNL     1      -9.051  -8.990  16.752  0.00  0.00    +0.037 A 
ATOM      5  C   UNL     1      -8.294  -9.064  16.435  0.00  0.00    +0.005 A 
ATOM      6  C   UNL     1      -7.763  -9.609  16.755  0.00  0.00    +0.018 A 
ATOM      7  C   UNL     1      -7.991 -10.080  17.393  0.00  0.00    +0.005 A 
ATOM      8  C   UNL     1      -8.750 -10.006  17.710  0.00  0.00    +0.037 A 
BRANCH   3   2
ATOM      1  C   UNL     1     -10.399  -8.646  17.741  0.00  0.00    +0.252 C 
ATOM      2  O   UNL     1     -10.037  -9.387  17.707  0.00  0.00    -0.471 OA
ENDBRANCH   3   2
ENDBRANCH   9   6
ENDBRANCH  15  14
BRANCH  19  23
ATOM     23  N   UNL     1      -3.302 -10.628  12.361  0.00  0.00    -0.202 NA
ATOM     24  C   UNL     1      -3.068 -10.146  11.733  0.00  0.00    +0.241 C 
ATOM     25  O   UNL     1      -3.592  -9.590  11.423  0.00  0.00    -0.273 OA
BRANCH  24  26
ATOM     26  C   UNL     1      -2.310 -10.220  11.417  0.00  0.00    +0.087 C 
BRANCH  26  27
ATOM     27  C   UNL     1      -1.858  -9.547  11.266  0.00  0.00    +0.019 C 
ATOM     28  C   UNL     1      -1.409  -9.696  11.941  0.00  0.00    +0.001 C 
ATOM     29  C   UNL     1      -2.307  -9.397  10.589  0.00  0.00    +0.001 C 
BRANCH  27  30
ATOM     30  C   UNL     1      -1.406  -8.873  11.115  0.00  0.00    +0.115 C 
BRANCH  30  31
ATOM     31  C   UNL     1      -0.586  -8.899  11.199  0.00  0.00    +0.365 C 
ATOM     32  O   UNL     1      -0.123  -9.256  10.615  0.00  0.00    -0.246 OA
ATOM     33  O   UNL     1      -0.229  -8.570  11.865  0.00  0.00    -0.246 OA
ENDBRANCH  30  31
ENDBRANCH  27  30
ENDBRANCH  26  27
ENDBRANCH  24  26
ENDBRANCH  19  23
TORSDOF 8
ENDMDL
MODEL 4
REMARK VINA RESULT:      -6.0     15.244     17.381
REMARK  Name = 
REMARK  8 active torsions:
REMARK  status: ('A' for Active; 'I' for Inactive)
REMARK    1  A    between atoms: O_2  and  C_3
REMARK    2  A    between atoms: C_6  and  C_9
REMARK    3  A    between atoms: N_14  and  C_15
REMARK    4  A    between atoms: C_19  and  N_23
REMARK    5  A    between atoms: C_24  and  C_26
REMARK    6  A    between atoms: C_26  and  C_27
REMARK    7  A    between atoms: C_27  and  C_30
REMARK    8  A    between atoms: C_30  and  C_31
REMARK                            x       y       z     vdW  Elec       q    Type
REMARK                         _______ _______ _______ _____ _____    ______ ____
ROOT
ATOM     15  C   UNL     1      -6.628 -10.370  14.851  0.00  0.00    +0.154 C 
ATOM     16  C   UNL     1      -5.831 -10.422  15.058  0.00  0.00    +0.166 C 
ATOM     17  O   UNL     1      -5.383 -10.248  14.388  0.00  0.00    -0.350 OA
ATOM     18  C   UNL     1      -5.902 -10.089  13.767  0.00  0.00    +0.166 C 
ATOM     19  C   UNL     1      -5.947  -9.883  12.970  0.00  0.00    +0.154 C 
ATOM     20  C   UNL     1      -6.744  -9.831  12.763  0.00  0.00    +0.166 C 
ATOM     21  O   UNL     1      -7.192 -10.005  13.433  0.00  0.00    -0.350 OA
ATOM     22  C   UNL     1      -6.672 -10.164  14.054  0.00  0.00    +0.166 C 
ENDROOT
BRANCH  15  14
ATOM      9  C   UNL     1      -7.893 -10.024  17.391  0.00  0.00    +0.086 A 
ATOM     10  C   UNL     1      -7.244  -9.588  17.655  0.00  0.00    +0.040 A 
ATOM     11  C   UNL     1      -6.603  -9.456  17.151  0.00  0.00    +0.103 A 
ATOM     12  N   UNL     1      -6.611  -9.761  16.384  0.00  0.00    -0.211 NA
ATOM     13  C   UNL     1      -7.261 -10.197  16.121  0.00  0.00    +0.237 A 
ATOM     14  N   UNL     1      -7.269 -10.502  15.354  0.00  0.00    -0.200 NA
ATOM     34  N   UNL     1      -7.901 -10.328  16.624  0.00  0.00    -0.212 NA
BRANCH   9   6
ATOM      3  C   UNL     1      -9.815 -10.416  18.900  0.00  0.00    +0.139 A 
ATOM      4  C   UNL     1      -9.090 -10.781  19.051  0.00  0.00    +0.037 A 
ATOM      5  C   UNL     1      -8.450 -10.650  18.548  0.00  0.00    +0.005 A 
ATOM      6  C   UNL     1      -8.533 -10.155  17.894  0.00  0.00    +0.018 A 
ATOM      7  C   UNL     1      -9.258  -9.790  17.742  0.00  0.00    +0.005 A 
ATOM      8  C   UNL     1      -9.898  -9.921  18.246  0.00  0.00    +0.037 A 
BRANCH   3   2
ATOM      1  C   UNL     1     -10.334 -10.609  20.217  0.00  0.00    +0.252 C 
ATOM      2  O   UNL     1     -10.455 -10.547  19.403  0.00  0.00    -0.471 OA
ENDBRANCH   3   2
ENDBRANCH   9   6
ENDBRANCH  15  14
BRANCH  19  23
ATOM     23  N   UNL     1      -5.306  -9.752  12.466  0.00  0.00    -0.202 NA
ATOM     24  C   UNL     1      -5.436  -9.517  11.686  0.00  0.00    +0.241 C 
ATOM     25  O   UNL     1      -6.206  -9.414  11.408  0.00  0.00    -0.273 OA
BRANCH  24  26
ATOM     26  C   UNL     1      -4.795  -9.386  11.183  0.00  0.00    +0.087 C 
BRANCH  26  27
ATOM     27  C   UNL     1      -4.924  -9.142  10.405  0.00  0.00    +0.019 C 
ATOM     28  C   UNL     1      -4.915  -9.929  10.157  0.00  0.00    +0.001 C 
ATOM     29  C   UNL     1      -4.933  -8.355  10.653  0.00  0.00    +0.001 C 
BRANCH  27  30
ATOM     30  C   UNL     1      -5.053  -8.899   9.628  0.00  0.00    +0.115 C 
BRANCH  30  31
ATOM     31  C   UNL     1      -4.457  -8.985   9.064  0.00  0.00    +0.365 C 
ATOM     32  O   UNL     1      -3.713  -8.652   9.197  0.00  0.00    -0.246 OA
ATOM     33  O   UNL     1      -4.605  -9.403   8.368  0.00  0.00    -0.246 OA
ENDBRANCH  30  31
ENDBRANCH  27  30
ENDBRANCH  26  27
ENDBRANCH  24  26
ENDBRANCH  19  23
TORSDOF 8
ENDMDL
