MODEL 1
REMARK VINA RESULT:      -9.7      0.000      0.000
REMARK  Name = 
REMARK  9 active torsions:
REMARK  status: ('A' for Active; 'I' for Inactive)
REMARK    1  A    between atoms: C_2  and  O_3
REMARK    2  A    between atoms: O_3  and  C_4
REMARK    3  A    between atoms: C_4  and  C_6
REMARK    4  A    between atoms: C_6  and  C_7
REMARK    5  A    between atoms: C_9  and  C_10
REMARK    6  A    between atoms: C_13  and  C_14
REMARK    7  A    between atoms: C_14  and  N_15
REMARK    8  A    between atoms: C_16  and  C_18
REMARK    9  A    between atoms: C_21  and  C_24
REMARK                            x       y       z     vdW  Elec       q    Type
REMARK                         _______ _______ _______ _____ _____    ______ ____
ROOT
ATOM      7  C   UNL     1      -4.536   2.183  24.732  0.00  0.00    +0.029 C 
ATOM      8  C   UNL     1      -3.888   2.105  24.228  0.00  0.00    +0.005 C 
ATOM      9  C   UNL     1      -3.603   1.356  24.036  0.00  0.00    +0.006 C 
ATOM     13  C   UNL     1      -3.966   0.684  24.348  0.00  0.00    +0.043 C 
ATOM     26  C   UNL     1      -4.614   0.761  24.852  0.00  0.00    -0.033 C 
ATOM     27  C   UNL     1      -4.899   1.511  25.044  0.00  0.00    -0.048 C 
ATOM     28  C   UNL     1      -5.548   1.589  25.549  0.00  0.00    +0.026 C 
ENDROOT
BRANCH   9  10
ATOM     10  C   UNL     1      -2.954   1.277  23.532  0.00  0.00    +0.000 C 
ATOM     11  C   UNL     1      -2.188   1.334  23.832  0.00  0.00    +0.000 C 
ATOM     12  C   UNL     1      -3.073   1.142  22.727  0.00  0.00    +0.000 C 
ENDBRANCH   9  10
BRANCH   7   6
ATOM      6  C   UNL     1      -4.822   2.933  24.925  0.00  0.00    +0.114 C 
BRANCH   6   4
ATOM      4  C   UNL     1      -4.300   3.565  25.006  0.00  0.00    +0.317 C 
ATOM      5  O   UNL     1      -4.178   4.083  24.375  0.00  0.00    -0.250 OA
BRANCH   4   3
ATOM      3  O   UNL     1      -3.899   3.682  25.718  0.00  0.00    -0.448 OA
BRANCH   3   2
ATOM      1  C   UNL     1      -2.894   4.398  26.439  0.00  0.00    +0.051 C 
ATOM      2  C   UNL     1      -3.456   4.367  25.836  0.00  0.00    +0.209 C 
ENDBRANCH   3   2
ENDBRANCH   4   3
ENDBRANCH   6   4
ENDBRANCH   7   6
BRANCH  13  14
ATOM     14  C   UNL     1      -3.680  -0.067  24.156  0.00  0.00    +0.120 C 
BRANCH  14  15
ATOM     15  N   UNL     1      -4.207  -0.684  24.012  0.00  0.00    -0.201 NA
ATOM     16  C   UNL     1      -3.977  -1.465  24.150  0.00  0.00    +0.265 C 
ATOM     17  O   UNL     1      -4.504  -2.083  24.006  0.00  0.00    -0.268 OA
BRANCH  16  18
ATOM     18  C   UNL     1      -3.218  -1.627  24.431  0.00  0.00    +0.055 A 
ATOM     19  C   UNL     1      -3.057  -1.570  25.239  0.00  0.00    +0.005 A 
ATOM     20  C   UNL     1      -2.299  -1.732  25.520  0.00  0.00    +0.010 A 
ATOM     21  C   UNL     1      -1.701  -1.950  24.994  0.00  0.00    +0.068 A 
ATOM     22  C   UNL     1      -1.863  -2.006  24.187  0.00  0.00    +0.010 A 
ATOM     23  C   UNL     1      -2.622  -1.845  23.905  0.00  0.00    +0.005 A 
BRANCH  21  24
ATOM     24  C   UNL     1      -0.943  -2.112  25.275  0.00  0.00    +0.100 C 
ATOM     25  N   UNL     1      -0.184  -2.272  25.557  0.00  0.00    -0.191 NA
ENDBRANCH  21  24
ENDBRANCH  16  18
ENDBRANCH  14  15
ENDBRANCH  13  14
TORSDOF 9
ENDMDL
MODEL 2
REMARK VINA RESULT:      -9.7      1.917      2.725
REMARK  Name = 
REMARK  9 active torsions:
REMARK  status: ('A' for Active; 'I' for Inactive)
REMARK    1  A    between atoms: C_2  and  O_3
REMARK    2  A    between atoms: O_3  and  C_4
REMARK    3  A    between atoms: C_4  and  C_6
REMARK    4  A    between atoms: C_6  and  C_7
REMARK    5  A    between atoms: C_9  and  C_10
REMARK    6  A    between atoms: C_13  and  C_14
REMARK    7  A    between atoms: C_14  and  N_15
REMARK    8  A    between atoms: C_16  and  C_18
REMARK    9  A    between atoms: C_21  and  C_24
REMARK                            x       y       z     vdW  Elec       q    Type
REMARK                         _______ _______ _______ _____ _____    ______ ____
ROOT
ATOM      7  C   UNL     1      -1.176   2.403  24.691  0.00  0.00    +0.029 C 
ATOM      8  C   UNL     1      -1.615   2.401  23.993  0.00  0.00    +0.005 C 
ATOM      9  C   UNL     1      -2.273   1.909  23.921  0.00  0.00    +0.006 C 
ATOM     13  C   UNL     1      -2.492   1.418  24.547  0.00  0.00    +0.043 C 
ATOM     26  C   UNL     1      -2.053   1.420  25.246  0.00  0.00    -0.033 C 
ATOM     27  C   UNL     1      -1.395   1.912  25.317  0.00  0.00    -0.048 C 
ATOM     28  C   UNL     1      -0.956   1.914  26.016  0.00  0.00    +0.026 C 
ENDROOT
BRANCH   9  10
ATOM     10  C   UNL     1      -2.713   1.907  23.223  0.00  0.00    +0.000 C 
ATOM     11  C   UNL     1      -2.509   1.396  22.607  0.00  0.00    +0.000 C 
ATOM     12  C   UNL     1      -3.357   2.415  23.140  0.00  0.00    +0.000 C 
ENDBRANCH   9  10
BRANCH   7   6
ATOM      6  C   UNL     1      -0.518   2.895  24.764  0.00  0.00    +0.114 C 
BRANCH   6   4
ATOM      4  C   UNL     1      -0.546   3.667  24.476  0.00  0.00    +0.317 C 
ATOM      5  O   UNL     1      -0.200   3.849  23.750  0.00  0.00    -0.250 OA
BRANCH   4   3
ATOM      3  O   UNL     1      -0.919   4.258  24.914  0.00  0.00    -0.448 OA
BRANCH   3   2
ATOM      1  C   UNL     1      -1.269   5.639  25.029  0.00  0.00    +0.051 C 
ATOM      2  C   UNL     1      -0.754   5.051  24.763  0.00  0.00    +0.209 C 
ENDBRANCH   3   2
ENDBRANCH   4   3
ENDBRANCH   6   4
ENDBRANCH   7   6
BRANCH  13  14
ATOM     14  C   UNL     1      -3.150   0.925  24.475  0.00  0.00    +0.120 C 
BRANCH  14  15
ATOM     15  N   UNL     1      -3.832   1.081  24.913  0.00  0.00    -0.201 NA
ATOM     16  C   UNL     1      -4.323   0.460  25.147  0.00  0.00    +0.265 C 
ATOM     17  O   UNL     1      -5.005   0.615  25.585  0.00  0.00    -0.268 OA
BRANCH  16  18
ATOM     18  C   UNL     1      -4.131  -0.316  24.943  0.00  0.00    +0.055 A 
ATOM     19  C   UNL     1      -4.396  -0.633  24.229  0.00  0.00    +0.005 A 
ATOM     20  C   UNL     1      -4.204  -1.409  24.024  0.00  0.00    +0.010 A 
ATOM     21  C   UNL     1      -3.747  -1.868  24.535  0.00  0.00    +0.068 A 
ATOM     22  C   UNL     1      -3.482  -1.552  25.250  0.00  0.00    +0.010 A 
ATOM     23  C   UNL     1      -3.674  -0.775  25.454  0.00  0.00    +0.005 A 
BRANCH  21  24
ATOM     24  C   UNL     1      -3.555  -2.644  24.331  0.00  0.00    +0.100 C 
ATOM     25  N   UNL     1      -3.363  -3.420  24.128  0.00  0.00    -0.191 NA
ENDBRANCH  21  24
ENDBRANCH  16  18
ENDBRANCH  14  15
ENDBRANCH  13  14
TORSDOF 9
ENDMDL
MODEL 3
REMARK VINA RESULT:      -9.7      2.404      4.946
REMARK  Name = 
REMARK  9 active torsions:
REMARK  status: ('A' for Active; 'I' for Inactive)
REMARK    1  A    between atoms: C_2  and  O_3
REMARK    2  A    between atoms: O_3  and  C_4
REMARK    3  A    between atoms: C_4  and  C_6
REMARK    4  A    between atoms: C_6  and  C_7
REMARK    5  A    between atoms: C_9  and  C_10
REMARK    6  A    between atoms: C_13  and  C_14
REMARK    7  A    between atoms: C_14  and  N_15
REMARK    8  A    between atoms: C_16  and  C_18
REMARK    9  A    between atoms: C_21  and  C_24
REMARK                            x       y       z     vdW  Elec       q    Type
REMARK                         _______ _______ _______ _____ _____    ______ ____
ROOT
ATOM      7  C   UNL     1      -3.044  -0.257  24.918  0.00  0.00    +0.029 C 
ATOM      8  C   UNL     1      -3.194   0.274  24.305  0.00  0.00    +0.005 C 
ATOM      9  C   UNL     1      -2.661   0.883  24.147  0.00  0.00    +0.006 C 
ATOM     13  C   UNL     1      -1.978   0.961  24.603  0.00  0.00    +0.043 C 
ATOM     26  C   UNL     1      -1.827   0.431  25.216  0.00  0.00    -0.033 C 
ATOM     27  C   UNL     1      -2.361  -0.178  25.374  0.00  0.00    -0.048 C 
ATOM     28  C   UNL     1      -2.211  -0.709  25.988  0.00  0.00    +0.026 C 
ENDROOT
BRANCH   9  10
ATOM     10  C   UNL     1      -2.810   1.414  23.534  0.00  0.00    +0.000 C 
ATOM     11  C   UNL     1      -2.431   1.323  22.806  0.00  0.00    +0.000 C 
ATOM     12  C   UNL     1      -3.340   2.036  23.647  0.00  0.00    +0.000 C 
ENDBRANCH   9  10
BRANCH   7   6
ATOM      6  C   UNL     1      -3.578  -0.866  25.077  0.00  0.00    +0.114 C 
BRANCH   6   4
ATOM      4  C   UNL     1      -4.003  -1.213  24.462  0.00  0.00    +0.317 C 
ATOM      5  O   UNL     1      -4.722  -0.887  24.223  0.00  0.00    -0.250 OA
BRANCH   4   3
ATOM      3  O   UNL     1      -3.710  -1.887  24.086  0.00  0.00    -0.448 OA
BRANCH   3   2
ATOM      1  C   UNL     1      -3.969  -3.267  23.821  0.00  0.00    +0.051 C 
ATOM      2  C   UNL     1      -4.226  -2.483  23.847  0.00  0.00    +0.209 C 
ENDBRANCH   3   2
ENDBRANCH   4   3
ENDBRANCH   6   4
ENDBRANCH   7   6
BRANCH  13  14
ATOM     14  C   UNL     1      -1.444   1.570  24.444  0.00  0.00    +0.120 C 
BRANCH  14  15
ATOM     15  N   UNL     1      -0.632   1.431  24.494  0.00  0.00    -0.201 NA
ATOM     16  C   UNL     1      -0.115   2.055  24.656  0.00  0.00    +0.265 C 
ATOM     17  O   UNL     1       0.696   1.915  24.705  0.00  0.00    -0.268 OA
BRANCH  16  18
ATOM     18  C   UNL     1      -0.411   2.816  24.767  0.00  0.00    +0.055 A 
ATOM     19  C   UNL     1      -0.708   3.041  25.503  0.00  0.00    +0.005 A 
ATOM     20  C   UNL     1      -1.004   3.802  25.615  0.00  0.00    +0.010 A 
ATOM     21  C   UNL     1      -1.003   4.341  24.989  0.00  0.00    +0.068 A 
ATOM     22  C   UNL     1      -0.706   4.117  24.252  0.00  0.00    +0.010 A 
ATOM     23  C   UNL     1      -0.410   3.354  24.141  0.00  0.00    +0.005 A 
BRANCH  21  24
ATOM     24  C   UNL     1      -1.299   5.103  25.100  0.00  0.00    +0.100 C 
ATOM     25  N   UNL     1      -1.595   5.865  25.213  0.00  0.00    -0.191 NA
ENDBRANCH  21  24
ENDBRANCH  16  18
ENDBRANCH  14  15
ENDBRANCH  13  14
TORSDOF 9
ENDMDL
MODEL 4
REMARK VINA RESULT:      -9.4      1.888      4.370
REMARK  Name = 
REMARK  9 active torsions:
REMARK  status: ('A' for Active; 'I' for Inactive)
REMARK    1  A    between atoms: C_2  and  O_3
REMARK    2  A    between atoms: O_3  and  C_4
REMARK    3  A    between atoms: C_4  and  C_6
REMARK    4  A    between atoms: C_6  and  C_7
REMARK    5  A    between atoms: C_9  and  C_10
REMARK    6  A    between atoms: C_13  and  C_14
REMARK    7  A    between atoms: C_14  and  N_15
REMARK    8  A    between atoms: C_16  and  C_18
REMARK    9  A    between atoms: C_21  and  C_24
REMARK                            x       y       z     vdW  Elec       q    Type
REMARK                         _______ _______ _______ _____ _____    ______ ____
ROOT
ATOM      7  C   UNL     1      -4.173   0.165  24.288  0.00  0.00    +0.029 C 
ATOM      8  C   UNL     1      -3.536   0.276  23.777  0.00  0.00    +0.005 C 
ATOM      9  C   UNL     1      -3.084   0.964  23.824  0.00  0.00    +0.006 C 
ATOM     13  C   UNL     1      -3.269   1.542  24.383  0.00  0.00    +0.043 C 
ATOM     26  C   UNL     1      -3.907   1.432  24.895  0.00  0.00    -0.033 C 
ATOM     27  C   UNL     1      -4.359   0.743  24.847  0.00  0.00    -0.048 C 
ATOM     28  C   UNL     1      -4.997   0.633  25.359  0.00  0.00    +0.026 C 
ENDROOT
BRANCH   9  10
ATOM     10  C   UNL     1      -2.446   1.075  23.313  0.00  0.00    +0.000 C 
ATOM     11  C   UNL     1      -1.712   0.741  23.488  0.00  0.00    +0.000 C 
ATOM     12  C   UNL     1      -2.542   1.521  22.625  0.00  0.00    +0.000 C 
ENDBRANCH   9  10
BRANCH   7   6
ATOM      6  C   UNL     1      -4.626  -0.523  24.242  0.00  0.00    +0.114 C 
BRANCH   6   4
ATOM      4  C   UNL     1      -4.267  -1.242  24.057  0.00  0.00    +0.317 C 
ATOM      5  O   UNL     1      -4.247  -1.503  23.274  0.00  0.00    -0.250 OA
BRANCH   4   3
ATOM      3  O   UNL     1      -3.927  -1.700  24.653  0.00  0.00    -0.448 OA
BRANCH   3   2
ATOM      1  C   UNL     1      -3.340  -2.931  25.079  0.00  0.00    +0.051 C 
ATOM      2  C   UNL     1      -3.762  -2.496  24.519  0.00  0.00    +0.209 C 
ENDBRANCH   3   2
ENDBRANCH   4   3
ENDBRANCH   6   4
ENDBRANCH   7   6
BRANCH  13  14
ATOM     14  C   UNL     1      -2.817   2.231  24.430  0.00  0.00    +0.120 C 
BRANCH  14  15
ATOM     15  N   UNL     1      -3.186   2.961  24.538  0.00  0.00    -0.201 NA
ATOM     16  C   UNL     1      -2.808   3.556  24.967  0.00  0.00    +0.265 C 
ATOM     17  O   UNL     1      -3.178   4.285  25.075  0.00  0.00    -0.268 OA
BRANCH  16  18
ATOM     18  C   UNL     1      -2.061   3.420  25.288  0.00  0.00    +0.055 A 
ATOM     19  C   UNL     1      -1.987   3.056  26.025  0.00  0.00    +0.005 A 
ATOM     20  C   UNL     1      -1.240   2.920  26.346  0.00  0.00    +0.010 A 
ATOM     21  C   UNL     1      -0.565   3.149  25.929  0.00  0.00    +0.068 A 
ATOM     22  C   UNL     1      -0.638   3.513  25.193  0.00  0.00    +0.010 A 
ATOM     23  C   UNL     1      -1.386   3.649  24.872  0.00  0.00    +0.005 A 
BRANCH  21  24
ATOM     24  C   UNL     1       0.183   3.013  26.251  0.00  0.00    +0.100 C 
ATOM     25  N   UNL     1       0.930   2.876  26.572  0.00  0.00    -0.191 NA
ENDBRANCH  21  24
ENDBRANCH  16  18
ENDBRANCH  14  15
ENDBRANCH  13  14
TORSDOF 9
ENDMDL
MODEL 5
REMARK VINA RESULT:      -9.4      1.767      4.733
REMARK  Name = 
REMARK  9 active torsions:
REMARK  status: ('A' for Active; 'I' for Inactive)
REMARK    1  A    between atoms: C_2  and  O_3
REMARK    2  A    between atoms: O_3  and  C_4
REMARK    3  A    between atoms: C_4  and  C_6
REMARK    4  A    between atoms: C_6  and  C_7
REMARK    5  A    between atoms: C_9  and  C_10
REMARK    6  A    between atoms: C_13  and  C_14
REMARK    7  A    between atoms: C_14  and  N_15
REMARK    8  A    between atoms: C_16  and  C_18
REMARK    9  A    between atoms: C_21  and  C_24
REMARK                            x       y       z     vdW  Elec       q    Type
REMARK                         _______ _______ _______ _____ _____    ______ ____
ROOT
ATOM      7  C   UNL     1      -3.170  -0.773  24.847  0.00  0.00    +0.029 C 
ATOM      8  C   UNL     1      -2.864  -0.329  24.223  0.00  0.00    +0.005 C 
ATOM      9  C   UNL     1      -3.053   0.471  24.155  0.00  0.00    +0.006 C 
ATOM     13  C   UNL     1      -3.548   0.827  24.711  0.00  0.00    +0.043 C 
ATOM     26  C   UNL     1      -3.854   0.383  25.335  0.00  0.00    -0.033 C 
ATOM     27  C   UNL     1      -3.665  -0.417  25.403  0.00  0.00    -0.048 C 
ATOM     28  C   UNL     1      -3.971  -0.861  26.028  0.00  0.00    +0.026 C 
ENDROOT
BRANCH   9  10
ATOM     10  C   UNL     1      -2.747   0.916  23.531  0.00  0.00    +0.000 C 
ATOM     11  C   UNL     1      -1.985   1.228  23.580  0.00  0.00    +0.000 C 
ATOM     12  C   UNL     1      -3.204   1.049  22.857  0.00  0.00    +0.000 C 
ENDBRANCH   9  10
BRANCH   7   6
ATOM      6  C   UNL     1      -2.982  -1.573  24.916  0.00  0.00    +0.114 C 
BRANCH   6   4
ATOM      4  C   UNL     1      -2.261  -1.854  24.631  0.00  0.00    +0.317 C 
ATOM      5  O   UNL     1      -2.226  -2.233  23.899  0.00  0.00    -0.250 OA
BRANCH   4   3
ATOM      3  O   UNL     1      -1.574  -1.756  25.078  0.00  0.00    -0.448 OA
BRANCH   3   2
ATOM      1  C   UNL     1      -0.222  -2.124  25.360  0.00  0.00    +0.051 C 
ATOM      2  C   UNL     1      -0.936  -2.267  24.972  0.00  0.00    +0.209 C 
ENDBRANCH   3   2
ENDBRANCH   4   3
ENDBRANCH   6   4
ENDBRANCH   7   6
BRANCH  13  14
ATOM     14  C   UNL     1      -3.737   1.628  24.643  0.00  0.00    +0.120 C 
BRANCH  14  15
ATOM     15  N   UNL     1      -4.499   1.888  24.819  0.00  0.00    -0.201 NA
ATOM     16  C   UNL     1      -4.627   2.673  25.042  0.00  0.00    +0.265 C 
ATOM     17  O   UNL     1      -5.389   2.934  25.218  0.00  0.00    -0.268 OA
BRANCH  16  18
ATOM     18  C   UNL     1      -3.990   3.196  25.089  0.00  0.00    +0.055 A 
ATOM     19  C   UNL     1      -3.546   3.245  25.782  0.00  0.00    +0.005 A 
ATOM     20  C   UNL     1      -2.909   3.768  25.828  0.00  0.00    +0.010 A 
ATOM     21  C   UNL     1      -2.718   4.243  25.180  0.00  0.00    +0.068 A 
ATOM     22  C   UNL     1      -3.163   4.194  24.487  0.00  0.00    +0.010 A 
ATOM     23  C   UNL     1      -3.800   3.670  24.441  0.00  0.00    +0.005 A 
BRANCH  21  24
ATOM     24  C   UNL     1      -2.082   4.766  25.227  0.00  0.00    +0.100 C 
ATOM     25  N   UNL     1      -1.446   5.290  25.272  0.00  0.00    -0.191 NA
ENDBRANCH  21  24
ENDBRANCH  16  18
ENDBRANCH  14  15
ENDBRANCH  13  14
TORSDOF 9
ENDMDL
MODEL 6
REMARK VINA RESULT:      -9.2      1.853      2.767
REMARK  Name = 
REMARK  9 active torsions:
REMARK  status: ('A' for Active; 'I' for Inactive)
REMARK    1  A    between atoms: C_2  and  O_3
REMARK    2  A    between atoms: O_3  and  C_4
REMARK    3  A    between atoms: C_4  and  C_6
REMARK    4  A    between atoms: C_6  and  C_7
REMARK    5  A    between atoms: C_9  and  C_10
REMARK    6  A    between atoms: C_13  and  C_14
REMARK    7  A    between atoms: C_14  and  N_15
REMARK    8  A    between atoms: C_16  and  C_18
REMARK    9  A    between atoms: C_21  and  C_24
REMARK                            x       y       z     vdW  Elec       q    Type
REMARK                         _______ _______ _______ _____ _____    ______ ____
ROOT
ATOM      7  C   UNL     1      -3.263   3.331  25.012  0.00  0.00    +0.029 C 
ATOM      8  C   UNL     1      -3.400   2.856  24.353  0.00  0.00    +0.005 C 
ATOM      9  C   UNL     1      -2.815   2.339  24.088  0.00  0.00    +0.006 C 
ATOM     13  C   UNL     1      -2.092   2.296  24.484  0.00  0.00    +0.043 C 
ATOM     26  C   UNL     1      -1.955   2.772  25.144  0.00  0.00    -0.033 C 
ATOM     27  C   UNL     1      -2.541   3.289  25.408  0.00  0.00    -0.048 C 
ATOM     28  C   UNL     1      -2.404   3.765  26.069  0.00  0.00    +0.026 C 
ENDROOT
BRANCH   9  10
ATOM     10  C   UNL     1      -2.951   1.863  23.428  0.00  0.00    +0.000 C 
ATOM     11  C   UNL     1      -3.355   1.148  23.510  0.00  0.00    +0.000 C 
ATOM     12  C   UNL     1      -2.683   2.102  22.685  0.00  0.00    +0.000 C 
ENDBRANCH   9  10
BRANCH   7   6
ATOM      6  C   UNL     1      -3.849   3.849  25.277  0.00  0.00    +0.114 C 
BRANCH   6   4
ATOM      4  C   UNL     1      -4.644   3.639  25.217  0.00  0.00    +0.317 C 
ATOM      5  O   UNL     1      -5.101   3.927  24.594  0.00  0.00    -0.250 OA
BRANCH   4   3
ATOM      3  O   UNL     1      -4.983   3.140  25.781  0.00  0.00    -0.448 OA
BRANCH   3   2
ATOM      1  C   UNL     1      -6.125   2.385  26.191  0.00  0.00    +0.051 C 
ATOM      2  C   UNL     1      -5.801   3.036  25.801  0.00  0.00    +0.209 C 
ENDBRANCH   3   2
ENDBRANCH   4   3
ENDBRANCH   6   4
ENDBRANCH   7   6
BRANCH  13  14
ATOM     14  C   UNL     1      -1.506   1.779  24.220  0.00  0.00    +0.120 C 
BRANCH  14  15
ATOM     15  N   UNL     1      -0.719   2.024  24.195  0.00  0.00    -0.201 NA
ATOM     16  C   UNL     1      -0.112   1.476  24.307  0.00  0.00    +0.265 C 
ATOM     17  O   UNL     1       0.675   1.722  24.283  0.00  0.00    -0.268 OA
BRANCH  16  18
ATOM     18  C   UNL     1      -0.293   0.683  24.444  0.00  0.00    +0.055 A 
ATOM     19  C   UNL     1      -0.527   0.436  25.195  0.00  0.00    +0.005 A 
ATOM     20  C   UNL     1      -0.708  -0.357  25.332  0.00  0.00    +0.010 A 
ATOM     21  C   UNL     1      -0.655  -0.904  24.715  0.00  0.00    +0.068 A 
ATOM     22  C   UNL     1      -0.421  -0.657  23.963  0.00  0.00    +0.010 A 
ATOM     23  C   UNL     1      -0.240   0.137  23.827  0.00  0.00    +0.005 A 
BRANCH  21  24
ATOM     24  C   UNL     1      -0.836  -1.697  24.851  0.00  0.00    +0.100 C 
ATOM     25  N   UNL     1      -1.018  -2.490  24.988  0.00  0.00    -0.191 NA
ENDBRANCH  21  24
ENDBRANCH  16  18
ENDBRANCH  14  15
ENDBRANCH  13  14
TORSDOF 9
ENDMDL
MODEL 7
REMARK VINA RESULT:      -9.0      2.012      2.902
REMARK  Name = 
REMARK  9 active torsions:
REMARK  status: ('A' for Active; 'I' for Inactive)
REMARK    1  A    between atoms: C_2  and  O_3
REMARK    2  A    between atoms: O_3  and  C_4
REMARK    3  A    between atoms: C_4  and  C_6
REMARK    4  A    between atoms: C_6  and  C_7
REMARK    5  A    between atoms: C_9  and  C_10
REMARK    6  A    between atoms: C_13  and  C_14
REMARK    7  A    between atoms: C_14  and  N_15
REMARK    8  A    between atoms: C_16  and  C_18
REMARK    9  A    between atoms: C_21  and  C_24
REMARK                            x       y       z     vdW  Elec       q    Type
REMARK                         _______ _______ _______ _____ _____    ______ ____
ROOT
ATOM      7  C   UNL     1      -1.319   2.708  25.619  0.00  0.00    +0.029 C 
ATOM      8  C   UNL     1      -1.852   2.511  25.022  0.00  0.00    +0.005 C 
ATOM      9  C   UNL     1      -1.819   1.766  24.669  0.00  0.00    +0.006 C 
ATOM     13  C   UNL     1      -1.252   1.219  24.913  0.00  0.00    +0.043 C 
ATOM     26  C   UNL     1      -0.719   1.415  25.511  0.00  0.00    -0.033 C 
ATOM     27  C   UNL     1      -0.752   2.160  25.863  0.00  0.00    -0.048 C 
ATOM     28  C   UNL     1      -0.218   2.358  26.461  0.00  0.00    +0.026 C 
ENDROOT
BRANCH   9  10
ATOM     10  C   UNL     1      -2.352   1.568  24.071  0.00  0.00    +0.000 C 
ATOM     11  C   UNL     1      -3.106   1.294  24.263  0.00  0.00    +0.000 C 
ATOM     12  C   UNL     1      -2.131   1.646  23.280  0.00  0.00    +0.000 C 
ENDBRANCH   9  10
BRANCH   7   6
ATOM      6  C   UNL     1      -1.351   3.453  25.972  0.00  0.00    +0.114 C 
BRANCH   6   4
ATOM      4  C   UNL     1      -1.769   4.064  25.610  0.00  0.00    +0.317 C 
ATOM      5  O   UNL     1      -2.570   4.170  25.773  0.00  0.00    -0.250 OA
BRANCH   4   3
ATOM      3  O   UNL     1      -1.385   4.571  25.083  0.00  0.00    -0.448 OA
BRANCH   3   2
ATOM      1  C   UNL     1      -1.045   5.906  24.702  0.00  0.00    +0.051 C 
ATOM      2  C   UNL     1      -1.540   5.381  25.103  0.00  0.00    +0.209 C 
ENDBRANCH   3   2
ENDBRANCH   4   3
ENDBRANCH   6   4
ENDBRANCH   7   6
BRANCH  13  14
ATOM     14  C   UNL     1      -1.219   0.473  24.560  0.00  0.00    +0.120 C 
BRANCH  14  15
ATOM     15  N   UNL     1      -0.490   0.141  24.366  0.00  0.00    -0.201 NA
ATOM     16  C   UNL     1      -0.407  -0.680  24.329  0.00  0.00    +0.265 C 
ATOM     17  O   UNL     1       0.323  -1.013  24.135  0.00  0.00    -0.268 OA
BRANCH  16  18
ATOM     18  C   UNL     1      -1.054  -1.167  24.486  0.00  0.00    +0.055 A 
ATOM     19  C   UNL     1      -1.502  -1.472  23.864  0.00  0.00    +0.005 A 
ATOM     20  C   UNL     1      -2.149  -1.958  24.021  0.00  0.00    +0.010 A 
ATOM     21  C   UNL     1      -2.348  -2.141  24.801  0.00  0.00    +0.068 A 
ATOM     22  C   UNL     1      -1.900  -1.836  25.423  0.00  0.00    +0.010 A 
ATOM     23  C   UNL     1      -1.252  -1.349  25.266  0.00  0.00    +0.005 A 
BRANCH  21  24
ATOM     24  C   UNL     1      -2.995  -2.627  24.959  0.00  0.00    +0.100 C 
ATOM     25  N   UNL     1      -3.643  -3.113  25.117  0.00  0.00    -0.191 NA
ENDBRANCH  21  24
ENDBRANCH  16  18
ENDBRANCH  14  15
ENDBRANCH  13  14
TORSDOF 9
ENDMDL
MODEL 8
REMARK VINA RESULT:      -9.0      2.298      4.933
REMARK  Name = 
REMARK  9 active torsions:
REMARK  status: ('A' for Active; 'I' for Inactive)
REMARK    1  A    between atoms: C_2  and  O_3
REMARK    2  A    between atoms: O_3  and  C_4
REMARK    3  A    between atoms: C_4  and  C_6
REMARK    4  A    between atoms: C_6  and  C_7
REMARK    5  A    between atoms: C_9  and  C_10
REMARK    6  A    between atoms: C_13  and  C_14
REMARK    7  A    between atoms: C_14  and  N_15
REMARK    8  A    between atoms: C_16  and  C_18
REMARK    9  A    between atoms: C_21  and  C_24
REMARK                            x       y       z     vdW  Elec       q    Type
REMARK                         _______ _______ _______ _____ _____    ______ ____
ROOT
ATOM      7  C   UNL     1      -0.954   0.944  24.545  0.00  0.00    +0.029 C 
ATOM      8  C   UNL     1      -1.588   0.486  24.284  0.00  0.00    +0.005 C 
ATOM      9  C   UNL     1      -2.336   0.824  24.208  0.00  0.00    +0.006 C 
ATOM     13  C   UNL     1      -2.450   1.620  24.393  0.00  0.00    +0.043 C 
ATOM     26  C   UNL     1      -1.816   2.078  24.654  0.00  0.00    -0.033 C 
ATOM     27  C   UNL     1      -1.068   1.740  24.730  0.00  0.00    -0.048 C 
ATOM     28  C   UNL     1      -0.432   2.198  24.991  0.00  0.00    +0.026 C 
ENDROOT
BRANCH   9  10
ATOM     10  C   UNL     1      -2.972   0.366  23.948  0.00  0.00    +0.000 C 
ATOM     11  C   UNL     1      -3.383  -0.112  24.480  0.00  0.00    +0.000 C 
ATOM     12  C   UNL     1      -3.196   0.387  23.154  0.00  0.00    +0.000 C 
ENDBRANCH   9  10
BRANCH   7   6
ATOM      6  C   UNL     1      -0.204   0.606  24.621  0.00  0.00    +0.114 C 
BRANCH   6   4
ATOM      4  C   UNL     1       0.033   0.008  24.105  0.00  0.00    +0.317 C 
ATOM      5  O   UNL     1      -0.112  -0.781  24.295  0.00  0.00    -0.250 OA
BRANCH   4   3
ATOM      3  O   UNL     1       0.416   0.199  23.400  0.00  0.00    -0.448 OA
BRANCH   3   2
ATOM      1  C   UNL     1       1.460  -0.060  22.459  0.00  0.00    +0.051 C 
ATOM      2  C   UNL     1       0.996  -0.303  23.096  0.00  0.00    +0.209 C 
ENDBRANCH   3   2
ENDBRANCH   4   3
ENDBRANCH   6   4
ENDBRANCH   7   6
BRANCH  13  14
ATOM     14  C   UNL     1      -3.200   1.958  24.318  0.00  0.00    +0.120 C 
BRANCH  14  15
ATOM     15  N   UNL     1      -3.290   2.678  23.925  0.00  0.00    -0.201 NA
ATOM     16  C   UNL     1      -3.934   3.164  24.096  0.00  0.00    +0.265 C 
ATOM     17  O   UNL     1      -4.024   3.884  23.703  0.00  0.00    -0.268 OA
BRANCH  16  18
ATOM     18  C   UNL     1      -4.489   2.930  24.660  0.00  0.00    +0.055 A 
ATOM     19  C   UNL     1      -5.138   2.474  24.436  0.00  0.00    +0.005 A 
ATOM     20  C   UNL     1      -5.693   2.239  25.000  0.00  0.00    +0.010 A 
ATOM     21  C   UNL     1      -5.596   2.461  25.790  0.00  0.00    +0.068 A 
ATOM     22  C   UNL     1      -4.946   2.917  26.014  0.00  0.00    +0.010 A 
ATOM     23  C   UNL     1      -4.392   3.152  25.449  0.00  0.00    +0.005 A 
BRANCH  21  24
ATOM     24  C   UNL     1      -6.150   2.226  26.354  0.00  0.00    +0.100 C 
ATOM     25  N   UNL     1      -6.705   1.991  26.918  0.00  0.00    -0.191 NA
ENDBRANCH  21  24
ENDBRANCH  16  18
ENDBRANCH  14  15
ENDBRANCH  13  14
TORSDOF 9
ENDMDL
MODEL 9
REMARK VINA RESULT:      -9.0      1.944      5.254
REMARK  Name = 
REMARK  9 active torsions:
REMARK  status: ('A' for Active; 'I' for Inactive)
REMARK    1  A    between atoms: C_2  and  O_3
REMARK    2  A    between atoms: O_3  and  C_4
REMARK    3  A    between atoms: C_4  and  C_6
REMARK    4  A    between atoms: C_6  and  C_7
REMARK    5  A    between atoms: C_9  and  C_10
REMARK    6  A    between atoms: C_13  and  C_14
REMARK    7  A    between atoms: C_14  and  N_15
REMARK    8  A    between atoms: C_16  and  C_18
REMARK    9  A    between atoms: C_21  and  C_24
REMARK                            x       y       z     vdW  Elec       q    Type
REMARK                         _______ _______ _______ _____ _____    ______ ____
ROOT
ATOM      7  C   UNL     1      -1.563  -0.301  24.925  0.00  0.00    +0.029 C 
ATOM      8  C   UNL     1      -2.033  -0.067  24.290  0.00  0.00    +0.005 C 
ATOM      9  C   UNL     1      -2.257   0.723  24.212  0.00  0.00    +0.006 C 
ATOM     13  C   UNL     1      -2.012   1.278  24.771  0.00  0.00    +0.043 C 
ATOM     26  C   UNL     1      -1.542   1.044  25.407  0.00  0.00    -0.033 C 
ATOM     27  C   UNL     1      -1.318   0.254  25.484  0.00  0.00    -0.048 C 
ATOM     28  C   UNL     1      -0.847   0.019  26.121  0.00  0.00    +0.026 C 
ENDROOT
BRANCH   9  10
ATOM     10  C   UNL     1      -2.727   0.958  23.576  0.00  0.00    +0.000 C 
ATOM     11  C   UNL     1      -3.546   0.855  23.606  0.00  0.00    +0.000 C 
ATOM     12  C   UNL     1      -2.379   1.298  22.910  0.00  0.00    +0.000 C 
ENDBRANCH   9  10
BRANCH   7   6
ATOM      6  C   UNL     1      -1.338  -1.091  25.004  0.00  0.00    +0.114 C 
BRANCH   6   4
ATOM      4  C   UNL     1      -1.720  -1.675  24.564  0.00  0.00    +0.317 C 
ATOM      5  O   UNL     1      -1.405  -1.918  23.841  0.00  0.00    -0.250 OA
BRANCH   4   3
ATOM      3  O   UNL     1      -2.417  -2.016  24.846  0.00  0.00    -0.448 OA
BRANCH   3   2
ATOM      1  C   UNL     1      -3.425  -3.016  24.694  0.00  0.00    +0.051 C 
ATOM      2  C   UNL     1      -2.649  -2.760  24.579  0.00  0.00    +0.209 C 
ENDBRANCH   3   2
ENDBRANCH   4   3
ENDBRANCH   6   4
ENDBRANCH   7   6
BRANCH  13  14
ATOM     14  C   UNL     1      -2.236   2.069  24.693  0.00  0.00    +0.120 C 
BRANCH  14  15
ATOM     15  N   UNL     1      -1.682   2.669  24.810  0.00  0.00    -0.201 NA
ATOM     16  C   UNL     1      -1.929   3.418  25.054  0.00  0.00    +0.265 C 
ATOM     17  O   UNL     1      -1.375   4.018  25.171  0.00  0.00    -0.268 OA
BRANCH  16  18
ATOM     18  C   UNL     1      -2.731   3.566  25.181  0.00  0.00    +0.055 A 
ATOM     19  C   UNL     1      -3.199   3.855  24.567  0.00  0.00    +0.005 A 
ATOM     20  C   UNL     1      -4.001   4.003  24.693  0.00  0.00    +0.010 A 
ATOM     21  C   UNL     1      -4.334   3.861  25.436  0.00  0.00    +0.068 A 
ATOM     22  C   UNL     1      -3.865   3.572  26.050  0.00  0.00    +0.010 A 
ATOM     23  C   UNL     1      -3.063   3.424  25.922  0.00  0.00    +0.005 A 
BRANCH  21  24
ATOM     24  C   UNL     1      -5.135   4.009  25.562  0.00  0.00    +0.100 C 
ATOM     25  N   UNL     1      -5.937   4.157  25.688  0.00  0.00    -0.191 NA
ENDBRANCH  21  24
ENDBRANCH  16  18
ENDBRANCH  14  15
ENDBRANCH  13  14
TORSDOF 9
ENDMDL
