MODEL 1
REMARK VINA RESULT:     -12.3      0.000      0.000
REMARK  Name = 
REMARK  7 active torsions:
REMARK  status: ('A' for Active; 'I' for Inactive)
REMARK    1  A    between atoms: O_2  and  C_3
REMARK    2  A    between atoms: C_6  and  C_9
REMARK    3  A    between atoms: C_11  and  C_12
REMARK    4  A    between atoms: C_12  and  C_13
REMARK    5  A    between atoms: C_18  and  C_19
REMARK    6  A    between atoms: C_19  and  C_20
REMARK    7  A    between atoms: N_22  and  C_23
REMARK                            x       y       z     vdW  Elec       q    Type
REMARK                         _______ _______ _______ _____ _____    ______ ____
ROOT
ATOM     13  C   UNL     1      -3.519   3.191  25.189  0.00  0.00    +0.024 C 
ATOM     14  C   UNL     1      -4.276   3.277  25.504  0.00  0.00    +0.089 C 
ATOM     15  N   UNL     1      -4.406   3.797  26.131  0.00  0.00    -0.218 NA
ATOM     16  C   UNL     1      -3.778   4.232  26.442  0.00  0.00    +0.089 C 
ATOM     17  C   UNL     1      -3.021   4.147  26.128  0.00  0.00    +0.019 C 
ATOM     18  C   UNL     1      -2.890   3.627  25.500  0.00  0.00    +0.012 C 
ENDROOT
BRANCH  13  12
ATOM     12  C   UNL     1      -3.389   2.671  24.562  0.00  0.00    +0.051 C 
BRANCH  12  11
ATOM      9  C   UNL     1      -4.046   0.640  24.575  0.00  0.00    +0.177 A 
ATOM     10  C   UNL     1      -3.449   1.205  24.650  0.00  0.00    +0.058 A 
ATOM     11  C   UNL     1      -3.787   1.949  24.536  0.00  0.00    +0.101 A 
ATOM     29  N   UNL     1      -4.592   1.844  24.392  0.00  0.00    -0.081 NA
ATOM     30  O   UNL     1      -4.752   1.035  24.416  0.00  0.00    -0.354 OA
BRANCH   9   6
ATOM      3  C   UNL     1      -3.765  -1.809  24.792  0.00  0.00    +0.139 A 
ATOM      4  C   UNL     1      -3.594  -1.316  25.432  0.00  0.00    +0.037 A 
ATOM      5  C   UNL     1      -3.688  -0.500  25.359  0.00  0.00    +0.006 A 
ATOM      6  C   UNL     1      -3.952  -0.176  24.648  0.00  0.00    +0.037 A 
ATOM      7  C   UNL     1      -4.123  -0.669  24.009  0.00  0.00    +0.006 A 
ATOM      8  C   UNL     1      -4.029  -1.486  24.081  0.00  0.00    +0.037 A 
BRANCH   3   2
ATOM      1  C   UNL     1      -2.996  -2.992  24.565  0.00  0.00    +0.252 C 
ATOM      2  O   UNL     1      -3.671  -2.626  24.864  0.00  0.00    -0.471 OA
ENDBRANCH   3   2
ENDBRANCH   9   6
ENDBRANCH  12  11
ENDBRANCH  13  12
BRANCH  18  19
ATOM     19  C   UNL     1      -2.134   3.542  25.186  0.00  0.00    +0.087 C 
BRANCH  19  20
ATOM     20  C   UNL     1      -1.637   4.198  25.122  0.00  0.00    +0.241 C 
ATOM     21  O   UNL     1      -1.958   4.958  25.101  0.00  0.00    -0.273 OA
ATOM     22  N   UNL     1      -0.820   4.095  25.080  0.00  0.00    -0.207 NA
BRANCH  22  23
ATOM     23  C   UNL     1      -0.498   3.335  25.102  0.00  0.00    +0.095 C 
ATOM     24  C   UNL     1      -0.335   2.937  24.398  0.00  0.00    +0.022 C 
ATOM     25  C   UNL     1      -0.014   2.177  24.420  0.00  0.00    +0.002 C 
ATOM     26  C   UNL     1       0.145   1.816  25.144  0.00  0.00    +0.000 C 
ATOM     27  C   UNL     1      -0.018   2.215  25.848  0.00  0.00    +0.002 C 
ATOM     28  C   UNL     1      -0.340   2.975  25.827  0.00  0.00    +0.022 C 
ENDBRANCH  22  23
ENDBRANCH  19  20
ENDBRANCH  18  19
TORSDOF 7
ENDMDL
MODEL 2
REMARK VINA RESULT:     -11.5      1.479      3.060
REMARK  Name = 
REMARK  7 active torsions:
REMARK  status: ('A' for Active; 'I' for Inactive)
REMARK    1  A    between atoms: O_2  and  C_3
REMARK    2  A    between atoms: C_6  and  C_9
REMARK    3  A    between atoms: C_11  and  C_12
REMARK    4  A    between atoms: C_12  and  C_13
REMARK    5  A    between atoms: C_18  and  C_19
REMARK    6  A    between atoms: C_19  and  C_20
REMARK    7  A    between atoms: N_22  and  C_23
REMARK                            x       y       z     vdW  Elec       q    Type
REMARK                         _______ _______ _______ _____ _____    ______ ____
ROOT
ATOM     13  C   UNL     1      -0.869   2.031  25.142  0.00  0.00    +0.024 C 
ATOM     14  C   UNL     1      -0.141   1.725  24.906  0.00  0.00    +0.089 C 
ATOM     15  N   UNL     1       0.332   2.144  24.376  0.00  0.00    -0.218 NA
ATOM     16  C   UNL     1       0.074   2.870  24.080  0.00  0.00    +0.089 C 
ATOM     17  C   UNL     1      -0.654   3.177  24.315  0.00  0.00    +0.019 C 
ATOM     18  C   UNL     1      -1.127   2.757  24.846  0.00  0.00    +0.012 C 
ENDROOT
BRANCH  13  12
ATOM     12  C   UNL     1      -1.341   1.611  25.672  0.00  0.00    +0.051 C 
BRANCH  12  11
ATOM      9  C   UNL     1      -1.811  -0.449  25.370  0.00  0.00    +0.177 A 
ATOM     10  C   UNL     1      -1.999   0.351  25.297  0.00  0.00    +0.058 A 
ATOM     11  C   UNL     1      -1.382   0.789  25.627  0.00  0.00    +0.101 A 
ATOM     29  N   UNL     1      -0.813   0.259  25.905  0.00  0.00    -0.081 NA
ATOM     30  O   UNL     1      -1.079  -0.506  25.746  0.00  0.00    -0.354 OA
BRANCH   9   6
ATOM      3  C   UNL     1      -3.201  -2.344  24.599  0.00  0.00    +0.139 A 
ATOM      4  C   UNL     1      -3.553  -1.705  24.985  0.00  0.00    +0.037 A 
ATOM      5  C   UNL     1      -3.090  -1.073  25.242  0.00  0.00    +0.006 A 
ATOM      6  C   UNL     1      -2.274  -1.080  25.113  0.00  0.00    +0.037 A 
ATOM      7  C   UNL     1      -1.924  -1.720  24.728  0.00  0.00    +0.006 A 
ATOM      8  C   UNL     1      -2.387  -2.352  24.471  0.00  0.00    +0.037 A 
BRANCH   3   2
ATOM      1  C   UNL     1      -4.279  -2.847  23.807  0.00  0.00    +0.252 C 
ATOM      2  O   UNL     1      -3.666  -2.977  24.341  0.00  0.00    -0.471 OA
ENDBRANCH   3   2
ENDBRANCH   9   6
ENDBRANCH  12  11
ENDBRANCH  13  12
BRANCH  18  19
ATOM     19  C   UNL     1      -1.855   3.064  25.081  0.00  0.00    +0.087 C 
BRANCH  19  20
ATOM     20  C   UNL     1      -1.940   3.875  25.208  0.00  0.00    +0.241 C 
ATOM     21  O   UNL     1      -1.277   4.338  25.372  0.00  0.00    -0.273 OA
ATOM     22  N   UNL     1      -2.687   4.222  25.173  0.00  0.00    -0.207 NA
BRANCH  22  23
ATOM     23  C   UNL     1      -3.350   3.759  25.009  0.00  0.00    +0.095 C 
ATOM     24  C   UNL     1      -3.811   3.467  25.628  0.00  0.00    +0.022 C 
ATOM     25  C   UNL     1      -4.475   3.004  25.465  0.00  0.00    +0.002 C 
ATOM     26  C   UNL     1      -4.677   2.832  24.684  0.00  0.00    +0.000 C 
ATOM     27  C   UNL     1      -4.215   3.124  24.065  0.00  0.00    +0.002 C 
ATOM     28  C   UNL     1      -3.551   3.588  24.228  0.00  0.00    +0.022 C 
ENDBRANCH  22  23
ENDBRANCH  19  20
ENDBRANCH  18  19
TORSDOF 7
ENDMDL
MODEL 3
REMARK VINA RESULT:     -10.9      2.052      5.088
REMARK  Name = 
REMARK  7 active torsions:
REMARK  status: ('A' for Active; 'I' for Inactive)
REMARK    1  A    between atoms: O_2  and  C_3
REMARK    2  A    between atoms: C_6  and  C_9
REMARK    3  A    between atoms: C_11  and  C_12
REMARK    4  A    between atoms: C_12  and  C_13
REMARK    5  A    between atoms: C_18  and  C_19
REMARK    6  A    between atoms: C_19  and  C_20
REMARK    7  A    between atoms: N_22  and  C_23
REMARK                            x       y       z     vdW  Elec       q    Type
REMARK                         _______ _______ _______ _____ _____    ______ ____
ROOT
ATOM     13  C   UNL     1      -0.482   0.514  24.635  0.00  0.00    +0.024 C 
ATOM     14  C   UNL     1       0.052   0.989  24.225  0.00  0.00    +0.089 C 
ATOM     15  N   UNL     1       0.478   0.680  23.590  0.00  0.00    -0.218 NA
ATOM     16  C   UNL     1       0.369  -0.106  23.364  0.00  0.00    +0.089 C 
ATOM     17  C   UNL     1      -0.165  -0.582  23.774  0.00  0.00    +0.019 C 
ATOM     18  C   UNL     1      -0.591  -0.273  24.410  0.00  0.00    +0.012 C 
ENDROOT
BRANCH  13  12
ATOM     12  C   UNL     1      -0.907   0.823  25.270  0.00  0.00    +0.051 C 
BRANCH  12  11
ATOM      9  C   UNL     1      -2.192   2.524  25.146  0.00  0.00    +0.177 A 
ATOM     10  C   UNL     1      -2.079   1.711  25.235  0.00  0.00    +0.058 A 
ATOM     11  C   UNL     1      -1.267   1.562  25.204  0.00  0.00    +0.101 A 
ATOM     29  N   UNL     1      -0.880   2.283  25.096  0.00  0.00    -0.081 NA
ATOM     30  O   UNL     1      -1.452   2.877  25.060  0.00  0.00    -0.354 OA
BRANCH   9   6
ATOM      3  C   UNL     1      -4.372   3.694  25.138  0.00  0.00    +0.139 A 
ATOM      4  C   UNL     1      -3.802   3.889  25.702  0.00  0.00    +0.037 A 
ATOM      5  C   UNL     1      -3.075   3.498  25.705  0.00  0.00    +0.006 A 
ATOM      6  C   UNL     1      -2.918   2.914  25.143  0.00  0.00    +0.037 A 
ATOM      7  C   UNL     1      -3.489   2.720  24.580  0.00  0.00    +0.006 A 
ATOM      8  C   UNL     1      -4.216   3.110  24.577  0.00  0.00    +0.037 A 
BRANCH   3   2
ATOM      1  C   UNL     1      -5.730   3.785  25.573  0.00  0.00    +0.252 C 
ATOM      2  O   UNL     1      -5.100   4.085  25.135  0.00  0.00    -0.471 OA
ENDBRANCH   3   2
ENDBRANCH   9   6
ENDBRANCH  12  11
ENDBRANCH  13  12
BRANCH  18  19
ATOM     19  C   UNL     1      -1.125  -0.749  24.819  0.00  0.00    +0.087 C 
BRANCH  19  20
ATOM     20  C   UNL     1      -0.920  -1.524  25.017  0.00  0.00    +0.241 C 
ATOM     21  O   UNL     1      -0.126  -1.729  25.111  0.00  0.00    -0.273 OA
ATOM     22  N   UNL     1      -1.508  -2.092  25.121  0.00  0.00    -0.207 NA
BRANCH  22  23
ATOM     23  C   UNL     1      -2.302  -1.887  25.027  0.00  0.00    +0.095 C 
ATOM     24  C   UNL     1      -2.737  -1.618  25.674  0.00  0.00    +0.022 C 
ATOM     25  C   UNL     1      -3.531  -1.413  25.580  0.00  0.00    +0.002 C 
ATOM     26  C   UNL     1      -3.890  -1.478  24.840  0.00  0.00    +0.000 C 
ATOM     27  C   UNL     1      -3.454  -1.748  24.193  0.00  0.00    +0.002 C 
ATOM     28  C   UNL     1      -2.660  -1.952  24.287  0.00  0.00    +0.022 C 
ENDBRANCH  22  23
ENDBRANCH  19  20
ENDBRANCH  18  19
TORSDOF 7
ENDMDL
