MODEL 1
REMARK VINA RESULT:      -9.7      0.000      0.000
REMARK  Name = 
REMARK  6 active torsions:
REMARK  status: ('A' for Active; 'I' for Inactive)
REMARK    1  A    between atoms: C_3  and  C_4
REMARK    2  A    between atoms: C_4  and  N_5
REMARK    3  A    between atoms: C_6  and  C_8
REMARK    4  A    between atoms: C_13  and  N_14
REMARK    5  A    between atoms: N_14  and  C_15
REMARK    6  A    between atoms: C_15  and  C_16
REMARK                            x       y       z     vdW  Elec       q    Type
REMARK                         _______ _______ _______ _____ _____    ______ ____
ROOT
ATOM      1  O   UNL     1      -1.202   0.662  24.168  0.00  0.00    -0.219 OA
ATOM      2  C   UNL     1      -1.892   1.002  24.467  0.00  0.00    +0.199 C 
ATOM      3  C   UNL     1      -1.993   1.794  24.675  0.00  0.00    +0.169 C 
ATOM     11  O   UNL     1      -2.765   1.890  24.946  0.00  0.00    -0.350 OA
ATOM     12  C   UNL     1      -3.143   1.158  24.906  0.00  0.00    +0.162 C 
ATOM     13  C   UNL     1      -2.603   0.609  24.610  0.00  0.00    +0.135 C 
ENDROOT
BRANCH   3   4
ATOM      4  C   UNL     1      -1.420   2.386  24.620  0.00  0.00    +0.147 C 
BRANCH   4   5
ATOM      5  N   UNL     1      -1.610   3.163  24.822  0.00  0.00    -0.203 NA
ATOM      6  C   UNL     1      -1.042   3.757  24.757  0.00  0.00    +0.241 C 
ATOM      7  O   UNL     1      -0.283   3.574  24.488  0.00  0.00    -0.273 OA
BRANCH   6   8
ATOM      8  C   UNL     1      -1.231   4.534  24.959  0.00  0.00    +0.078 C 
ATOM      9  C   UNL     1      -1.046   5.338  24.957  0.00  0.00    +0.010 C 
ATOM     10  C   UNL     1      -1.744   5.075  25.312  0.00  0.00    +0.010 C 
ENDBRANCH   6   8
ENDBRANCH   4   5
ENDBRANCH   3   4
BRANCH  13  14
ATOM     14  N   UNL     1      -2.748  -0.193  24.480  0.00  0.00    -0.209 NA
BRANCH  14  15
ATOM     15  C   UNL     1      -3.456  -0.531  24.737  0.00  0.00    +0.115 C 
BRANCH  15  16
ATOM     16  C   UNL     1      -3.621  -1.321  24.568  0.00  0.00    -0.005 A 
ATOM     17  C   UNL     1      -4.107  -1.512  23.928  0.00  0.00    -0.003 A 
ATOM     18  C   UNL     1      -4.271  -2.303  23.758  0.00  0.00    -0.000 A 
ATOM     19  C   UNL     1      -3.951  -2.901  24.227  0.00  0.00    -0.000 A 
ATOM     20  C   UNL     1      -3.466  -2.710  24.866  0.00  0.00    -0.000 A 
ATOM     21  C   UNL     1      -3.301  -1.919  25.036  0.00  0.00    -0.003 A 
ENDBRANCH  15  16
ENDBRANCH  14  15
ENDBRANCH  13  14
TORSDOF 6
ENDMDL
MODEL 2
REMARK VINA RESULT:      -9.5      1.057      5.581
REMARK  Name = 
REMARK  6 active torsions:
REMARK  status: ('A' for Active; 'I' for Inactive)
REMARK    1  A    between atoms: C_3  and  C_4
REMARK    2  A    between atoms: C_4  and  N_5
REMARK    3  A    between atoms: C_6  and  C_8
REMARK    4  A    between atoms: C_13  and  N_14
REMARK    5  A    between atoms: N_14  and  C_15
REMARK    6  A    between atoms: C_15  and  C_16
REMARK                            x       y       z     vdW  Elec       q    Type
REMARK                         _______ _______ _______ _____ _____    ______ ____
ROOT
ATOM      1  O   UNL     1      -3.717   1.766  24.065  0.00  0.00    -0.219 OA
ATOM      2  C   UNL     1      -3.078   1.416  24.451  0.00  0.00    +0.199 C 
ATOM      3  C   UNL     1      -2.978   0.609  24.591  0.00  0.00    +0.169 C 
ATOM     11  O   UNL     1      -2.265   0.506  24.992  0.00  0.00    -0.350 OA
ATOM     12  C   UNL     1      -1.924   1.249  25.101  0.00  0.00    +0.162 C 
ATOM     13  C   UNL     1      -2.426   1.811  24.767  0.00  0.00    +0.135 C 
ENDROOT
BRANCH   3   4
ATOM      4  C   UNL     1      -3.500   0.010  24.368  0.00  0.00    +0.147 C 
BRANCH   4   5
ATOM      5  N   UNL     1      -3.313  -0.779  24.523  0.00  0.00    -0.203 NA
ATOM      6  C   UNL     1      -3.849  -1.375  24.330  0.00  0.00    +0.241 C 
ATOM      7  O   UNL     1      -4.572  -1.183  23.981  0.00  0.00    -0.273 OA
BRANCH   6   8
ATOM      8  C   UNL     1      -3.662  -2.164  24.484  0.00  0.00    +0.078 C 
ATOM      9  C   UNL     1      -3.527  -2.932  24.215  0.00  0.00    +0.010 C 
ATOM     10  C   UNL     1      -3.474  -2.761  25.020  0.00  0.00    +0.010 C 
ENDBRANCH   6   8
ENDBRANCH   4   5
ENDBRANCH   3   4
BRANCH  13  14
ATOM     14  N   UNL     1      -2.300   2.626  24.750  0.00  0.00    -0.209 NA
BRANCH  14  15
ATOM     15  C   UNL     1      -1.724   2.964  25.236  0.00  0.00    +0.115 C 
BRANCH  15  16
ATOM     16  C   UNL     1      -1.548   3.767  25.168  0.00  0.00    -0.005 A 
ATOM     17  C   UNL     1      -0.829   4.005  24.838  0.00  0.00    -0.003 A 
ATOM     18  C   UNL     1      -0.653   4.808  24.771  0.00  0.00    -0.000 A 
ATOM     19  C   UNL     1      -1.194   5.373  25.032  0.00  0.00    -0.000 A 
ATOM     20  C   UNL     1      -1.911   5.135  25.362  0.00  0.00    -0.000 A 
ATOM     21  C   UNL     1      -2.089   4.332  25.430  0.00  0.00    -0.003 A 
ENDBRANCH  15  16
ENDBRANCH  14  15
ENDBRANCH  13  14
TORSDOF 6
ENDMDL
MODEL 3
REMARK VINA RESULT:      -7.8      2.662      4.085
REMARK  Name = 
REMARK  6 active torsions:
REMARK  status: ('A' for Active; 'I' for Inactive)
REMARK    1  A    between atoms: C_3  and  C_4
REMARK    2  A    between atoms: C_4  and  N_5
REMARK    3  A    between atoms: C_6  and  C_8
REMARK    4  A    between atoms: C_13  and  N_14
REMARK    5  A    between atoms: N_14  and  C_15
REMARK    6  A    between atoms: C_15  and  C_16
REMARK                            x       y       z     vdW  Elec       q    Type
REMARK                         _______ _______ _______ _____ _____    ______ ____
ROOT
ATOM      1  O   UNL     1      -2.041   0.402  25.311  0.00  0.00    -0.219 OA
ATOM      2  C   UNL     1      -1.972   0.866  24.632  0.00  0.00    +0.199 C 
ATOM      3  C   UNL     1      -1.369   0.819  24.071  0.00  0.00    +0.169 C 
ATOM     11  O   UNL     1      -1.519   1.382  23.488  0.00  0.00    -0.350 OA
ATOM     12  C   UNL     1      -2.214   1.779  23.689  0.00  0.00    +0.162 C 
ATOM     13  C   UNL     1      -2.494   1.460  24.396  0.00  0.00    +0.135 C 
ENDROOT
BRANCH   3   4
ATOM      4  C   UNL     1      -0.730   0.298  24.090  0.00  0.00    +0.147 C 
BRANCH   4   5
ATOM      5  N   UNL     1      -0.110   0.387  23.552  0.00  0.00    -0.203 NA
ATOM      6  C   UNL     1       0.472  -0.194  23.494  0.00  0.00    +0.241 C 
ATOM      7  O   UNL     1       0.435  -0.865  23.974  0.00  0.00    -0.273 OA
BRANCH   6   8
ATOM      8  C   UNL     1       1.092  -0.106  22.957  0.00  0.00    +0.078 C 
ATOM      9  C   UNL     1       1.395  -0.195  22.194  0.00  0.00    +0.010 C 
ATOM     10  C   UNL     1       1.862   0.137  22.788  0.00  0.00    +0.010 C 
ENDBRANCH   6   8
ENDBRANCH   4   5
ENDBRANCH   3   4
BRANCH  13  14
ATOM     14  N   UNL     1      -3.176   1.693  24.797  0.00  0.00    -0.209 NA
BRANCH  14  15
ATOM     15  C   UNL     1      -3.766   2.111  24.398  0.00  0.00    +0.115 C 
BRANCH  15  16
ATOM     16  C   UNL     1      -4.458   2.324  24.794  0.00  0.00    -0.005 A 
ATOM     17  C   UNL     1      -5.110   1.818  24.785  0.00  0.00    -0.003 A 
ATOM     18  C   UNL     1      -5.802   2.031  25.180  0.00  0.00    -0.000 A 
ATOM     19  C   UNL     1      -5.843   2.750  25.583  0.00  0.00    -0.000 A 
ATOM     20  C   UNL     1      -5.191   3.255  25.592  0.00  0.00    -0.000 A 
ATOM     21  C   UNL     1      -4.498   3.043  25.197  0.00  0.00    -0.003 A 
ENDBRANCH  15  16
ENDBRANCH  14  15
ENDBRANCH  13  14
TORSDOF 6
ENDMDL
MODEL 4
REMARK VINA RESULT:      -7.0      1.753      2.153
REMARK  Name = 
REMARK  6 active torsions:
REMARK  status: ('A' for Active; 'I' for Inactive)
REMARK    1  A    between atoms: C_3  and  C_4
REMARK    2  A    between atoms: C_4  and  N_5
REMARK    3  A    between atoms: C_6  and  C_8
REMARK    4  A    between atoms: C_13  and  N_14
REMARK    5  A    between atoms: N_14  and  C_15
REMARK    6  A    between atoms: C_15  and  C_16
REMARK                            x       y       z     vdW  Elec       q    Type
REMARK                         _______ _______ _______ _____ _____    ______ ____
ROOT
ATOM      1  O   UNL     1      -3.504   0.887  23.628  0.00  0.00    -0.219 OA
ATOM      2  C   UNL     1      -2.956   1.020  24.230  0.00  0.00    +0.199 C 
ATOM      3  C   UNL     1      -2.799   1.745  24.592  0.00  0.00    +0.169 C 
ATOM     11  O   UNL     1      -2.215   1.624  25.161  0.00  0.00    -0.350 OA
ATOM     12  C   UNL     1      -2.012   0.825  25.153  0.00  0.00    +0.162 C 
ATOM     13  C   UNL     1      -2.470   0.452  24.578  0.00  0.00    +0.135 C 
ENDROOT
BRANCH   3   4
ATOM      4  C   UNL     1      -3.162   2.464  24.413  0.00  0.00    +0.147 C 
BRANCH   4   5
ATOM      5  N   UNL     1      -3.765   2.752  24.897  0.00  0.00    -0.203 NA
ATOM      6  C   UNL     1      -4.102   3.489  24.742  0.00  0.00    +0.241 C 
ATOM      7  O   UNL     1      -3.835   3.939  24.104  0.00  0.00    -0.273 OA
BRANCH   6   8
ATOM      8  C   UNL     1      -4.706   3.777  25.226  0.00  0.00    +0.078 C 
ATOM      9  C   UNL     1      -4.959   4.278  25.830  0.00  0.00    +0.010 C 
ATOM     10  C   UNL     1      -5.497   3.774  25.459  0.00  0.00    +0.010 C 
ENDBRANCH   6   8
ENDBRANCH   4   5
ENDBRANCH   3   4
BRANCH  13  14
ATOM     14  N   UNL     1      -2.446  -0.350  24.383  0.00  0.00    -0.209 NA
BRANCH  14  15
ATOM     15  C   UNL     1      -2.370  -0.916  24.978  0.00  0.00    +0.115 C 
BRANCH  15  16
ATOM     16  C   UNL     1      -2.570  -1.702  24.827  0.00  0.00    -0.005 A 
ATOM     17  C   UNL     1      -3.324  -1.979  25.016  0.00  0.00    -0.003 A 
ATOM     18  C   UNL     1      -3.525  -2.765  24.864  0.00  0.00    -0.000 A 
ATOM     19  C   UNL     1      -2.972  -3.273  24.524  0.00  0.00    -0.000 A 
ATOM     20  C   UNL     1      -2.218  -2.997  24.335  0.00  0.00    -0.000 A 
ATOM     21  C   UNL     1      -2.017  -2.211  24.487  0.00  0.00    -0.003 A 
ENDBRANCH  15  16
ENDBRANCH  14  15
ENDBRANCH  13  14
TORSDOF 6
ENDMDL
MODEL 5
REMARK VINA RESULT:      -6.8     17.467     19.155
REMARK  Name = 
REMARK  6 active torsions:
REMARK  status: ('A' for Active; 'I' for Inactive)
REMARK    1  A    between atoms: C_3  and  C_4
REMARK    2  A    between atoms: C_4  and  N_5
REMARK    3  A    between atoms: C_6  and  C_8
REMARK    4  A    between atoms: C_13  and  N_14
REMARK    5  A    between atoms: N_14  and  C_15
REMARK    6  A    between atoms: C_15  and  C_16
REMARK                            x       y       z     vdW  Elec       q    Type
REMARK                         _______ _______ _______ _____ _____    ______ ____
ROOT
ATOM      1  O   UNL     1      13.168   6.811  19.276  0.00  0.00    -0.219 OA
ATOM      2  C   UNL     1      13.558   7.374  18.816  0.00  0.00    +0.199 C 
ATOM      3  C   UNL     1      13.206   7.884  18.270  0.00  0.00    +0.169 C 
ATOM     11  O   UNL     1      13.798   8.350  17.938  0.00  0.00    -0.350 OA
ATOM     12  C   UNL     1      14.517   8.130  18.277  0.00  0.00    +0.162 C 
ATOM     13  C   UNL     1      14.369   7.527  18.819  0.00  0.00    +0.135 C 
ENDROOT
BRANCH   3   4
ATOM      4  C   UNL     1      12.401   7.919  18.090  0.00  0.00    +0.147 C 
BRANCH   4   5
ATOM      5  N   UNL     1      12.154   8.234  17.368  0.00  0.00    -0.203 NA
ATOM      6  C   UNL     1      11.357   8.404  17.243  0.00  0.00    +0.241 C 
ATOM      7  O   UNL     1      10.806   8.260  17.841  0.00  0.00    -0.273 OA
BRANCH   6   8
ATOM      8  C   UNL     1      11.110   8.719  16.521  0.00  0.00    +0.078 C 
ATOM      9  C   UNL     1      11.287   9.094  15.808  0.00  0.00    +0.010 C 
ATOM     10  C   UNL     1      10.507   8.889  15.985  0.00  0.00    +0.010 C 
ENDBRANCH   6   8
ENDBRANCH   4   5
ENDBRANCH   3   4
BRANCH  13  14
ATOM     14  N   UNL     1      14.931   7.142  19.285  0.00  0.00    -0.209 NA
BRANCH  14  15
ATOM     15  C   UNL     1      15.722   7.377  19.253  0.00  0.00    +0.115 C 
BRANCH  15  16
ATOM     16  C   UNL     1      16.283   6.999  19.725  0.00  0.00    -0.005 A 
ATOM     17  C   UNL     1      16.332   7.176  20.529  0.00  0.00    -0.003 A 
ATOM     18  C   UNL     1      16.894   6.797  21.001  0.00  0.00    -0.000 A 
ATOM     19  C   UNL     1      17.405   6.242  20.668  0.00  0.00    -0.000 A 
ATOM     20  C   UNL     1      17.356   6.065  19.864  0.00  0.00    -0.000 A 
ATOM     21  C   UNL     1      16.795   6.444  19.392  0.00  0.00    -0.003 A 
ENDBRANCH  15  16
ENDBRANCH  14  15
ENDBRANCH  13  14
TORSDOF 6
ENDMDL
MODEL 6
REMARK VINA RESULT:      -6.7      2.305      4.476
REMARK  Name = 
REMARK  6 active torsions:
REMARK  status: ('A' for Active; 'I' for Inactive)
REMARK    1  A    between atoms: C_3  and  C_4
REMARK    2  A    between atoms: C_4  and  N_5
REMARK    3  A    between atoms: C_6  and  C_8
REMARK    4  A    between atoms: C_13  and  N_14
REMARK    5  A    between atoms: N_14  and  C_15
REMARK    6  A    between atoms: C_15  and  C_16
REMARK                            x       y       z     vdW  Elec       q    Type
REMARK                         _______ _______ _______ _____ _____    ______ ____
ROOT
ATOM      1  O   UNL     1      -1.847   1.623  25.335  0.00  0.00    -0.219 OA
ATOM      2  C   UNL     1      -2.035   1.545  24.536  0.00  0.00    +0.199 C 
ATOM      3  C   UNL     1      -1.656   1.051  23.994  0.00  0.00    +0.169 C 
ATOM     11  O   UNL     1      -2.021   1.148  23.262  0.00  0.00    -0.350 OA
ATOM     12  C   UNL     1      -2.626   1.702  23.350  0.00  0.00    +0.162 C 
ATOM     13  C   UNL     1      -2.635   1.948  24.137  0.00  0.00    +0.135 C 
ENDROOT
BRANCH   3   4
ATOM      4  C   UNL     1      -1.023   0.548  24.158  0.00  0.00    +0.147 C 
BRANCH   4   5
ATOM      5  N   UNL     1      -1.165  -0.221  24.422  0.00  0.00    -0.203 NA
ATOM      6  C   UNL     1      -0.553  -0.773  24.432  0.00  0.00    +0.241 C 
ATOM      7  O   UNL     1       0.202  -0.557  24.178  0.00  0.00    -0.273 OA
BRANCH   6   8
ATOM      8  C   UNL     1      -0.695  -1.542  24.696  0.00  0.00    +0.078 C 
ATOM      9  C   UNL     1      -0.480  -2.188  25.162  0.00  0.00    +0.010 C 
ATOM     10  C   UNL     1      -1.155  -2.226  24.689  0.00  0.00    +0.010 C 
ENDBRANCH   6   8
ENDBRANCH   4   5
ENDBRANCH   3   4
BRANCH  13  14
ATOM     14  N   UNL     1      -3.151   2.499  24.468  0.00  0.00    -0.209 NA
BRANCH  14  15
ATOM     15  C   UNL     1      -3.929   2.549  24.197  0.00  0.00    +0.115 C 
BRANCH  15  16
ATOM     16  C   UNL     1      -4.522   2.833  24.695  0.00  0.00    -0.005 A 
ATOM     17  C   UNL     1      -4.486   3.607  24.979  0.00  0.00    -0.003 A 
ATOM     18  C   UNL     1      -5.078   3.891  25.478  0.00  0.00    -0.000 A 
ATOM     19  C   UNL     1      -5.707   3.402  25.693  0.00  0.00    -0.000 A 
ATOM     20  C   UNL     1      -5.743   2.629  25.409  0.00  0.00    -0.000 A 
ATOM     21  C   UNL     1      -5.150   2.344  24.910  0.00  0.00    -0.003 A 
ENDBRANCH  15  16
ENDBRANCH  14  15
ENDBRANCH  13  14
TORSDOF 6
ENDMDL
MODEL 7
REMARK VINA RESULT:      -6.2      2.484      4.135
REMARK  Name = 
REMARK  6 active torsions:
REMARK  status: ('A' for Active; 'I' for Inactive)
REMARK    1  A    between atoms: C_3  and  C_4
REMARK    2  A    between atoms: C_4  and  N_5
REMARK    3  A    between atoms: C_6  and  C_8
REMARK    4  A    between atoms: C_13  and  N_14
REMARK    5  A    between atoms: N_14  and  C_15
REMARK    6  A    between atoms: C_15  and  C_16
REMARK                            x       y       z     vdW  Elec       q    Type
REMARK                         _______ _______ _______ _____ _____    ______ ____
ROOT
ATOM      1  O   UNL     1      -1.642   2.728  24.007  0.00  0.00    -0.219 OA
ATOM      2  C   UNL     1      -1.902   1.968  24.193  0.00  0.00    +0.199 C 
ATOM      3  C   UNL     1      -2.641   1.769  24.503  0.00  0.00    +0.169 C 
ATOM     11  O   UNL     1      -2.664   0.952  24.604  0.00  0.00    -0.350 OA
ATOM     12  C   UNL     1      -1.940   0.644  24.355  0.00  0.00    +0.162 C 
ATOM     13  C   UNL     1      -1.469   1.271  24.102  0.00  0.00    +0.135 C 
ENDROOT
BRANCH   3   4
ATOM      4  C   UNL     1      -3.249   2.298  24.682  0.00  0.00    +0.147 C 
BRANCH   4   5
ATOM      5  N   UNL     1      -3.989   2.013  24.908  0.00  0.00    -0.203 NA
ATOM      6  C   UNL     1      -4.612   2.538  25.039  0.00  0.00    +0.241 C 
ATOM      7  O   UNL     1      -4.493   3.350  24.943  0.00  0.00    -0.273 OA
BRANCH   6   8
ATOM      8  C   UNL     1      -5.352   2.253  25.265  0.00  0.00    +0.078 C 
ATOM      9  C   UNL     1      -6.058   1.871  25.076  0.00  0.00    +0.010 C 
ATOM     10  C   UNL     1      -5.928   2.141  25.845  0.00  0.00    +0.010 C 
ENDBRANCH   6   8
ENDBRANCH   4   5
ENDBRANCH   3   4
BRANCH  13  14
ATOM     14  N   UNL     1      -0.701   1.214  23.808  0.00  0.00    -0.209 NA
BRANCH  14  15
ATOM     15  C   UNL     1      -0.257   0.531  23.945  0.00  0.00    +0.115 C 
BRANCH  15  16
ATOM     16  C   UNL     1       0.458   0.419  23.550  0.00  0.00    -0.005 A 
ATOM     17  C   UNL     1       1.069   0.968  23.639  0.00  0.00    -0.003 A 
ATOM     18  C   UNL     1       1.784   0.856  23.244  0.00  0.00    -0.000 A 
ATOM     19  C   UNL     1       1.890   0.197  22.760  0.00  0.00    -0.000 A 
ATOM     20  C   UNL     1       1.280  -0.351  22.671  0.00  0.00    -0.000 A 
ATOM     21  C   UNL     1       0.564  -0.240  23.066  0.00  0.00    -0.003 A 
ENDBRANCH  15  16
ENDBRANCH  14  15
ENDBRANCH  13  14
TORSDOF 6
ENDMDL
MODEL 8
REMARK VINA RESULT:      -6.0     15.931     18.329
REMARK  Name = 
REMARK  6 active torsions:
REMARK  status: ('A' for Active; 'I' for Inactive)
REMARK    1  A    between atoms: C_3  and  C_4
REMARK    2  A    between atoms: C_4  and  N_5
REMARK    3  A    between atoms: C_6  and  C_8
REMARK    4  A    between atoms: C_13  and  N_14
REMARK    5  A    between atoms: N_14  and  C_15
REMARK    6  A    between atoms: C_15  and  C_16
REMARK                            x       y       z     vdW  Elec       q    Type
REMARK                         _______ _______ _______ _____ _____    ______ ____
ROOT
ATOM      1  O   UNL     1      13.142   6.220  20.154  0.00  0.00    -0.219 OA
ATOM      2  C   UNL     1      13.348   7.015  20.070  0.00  0.00    +0.199 C 
ATOM      3  C   UNL     1      12.868   7.662  20.251  0.00  0.00    +0.169 C 
ATOM     11  O   UNL     1      13.292   8.348  20.084  0.00  0.00    -0.350 OA
ATOM     12  C   UNL     1      14.035   8.127  19.800  0.00  0.00    +0.162 C 
ATOM     13  C   UNL     1      14.069   7.303  19.792  0.00  0.00    +0.135 C 
ENDROOT
BRANCH   3   4
ATOM      4  C   UNL     1      12.098   7.626  20.546  0.00  0.00    +0.147 C 
BRANCH   4   5
ATOM      5  N   UNL     1      11.872   8.120  21.168  0.00  0.00    -0.203 NA
ATOM      6  C   UNL     1      11.097   8.103  21.447  0.00  0.00    +0.241 C 
ATOM      7  O   UNL     1      10.546   7.593  21.104  0.00  0.00    -0.273 OA
BRANCH   6   8
ATOM      8  C   UNL     1      10.871   8.597  22.069  0.00  0.00    +0.078 C 
ATOM      9  C   UNL     1      10.287   9.021  22.468  0.00  0.00    +0.010 C 
ATOM     10  C   UNL     1      11.064   9.027  22.745  0.00  0.00    +0.010 C 
ENDBRANCH   6   8
ENDBRANCH   4   5
ENDBRANCH   3   4
BRANCH  13  14
ATOM     14  N   UNL     1      14.711   6.846  19.548  0.00  0.00    -0.209 NA
BRANCH  14  15
ATOM     15  C   UNL     1      15.478   7.073  19.750  0.00  0.00    +0.115 C 
BRANCH  15  16
ATOM     16  C   UNL     1      16.121   6.620  19.501  0.00  0.00    -0.005 A 
ATOM     17  C   UNL     1      16.122   6.287  18.746  0.00  0.00    -0.003 A 
ATOM     18  C   UNL     1      16.765   5.833  18.496  0.00  0.00    -0.000 A 
ATOM     19  C   UNL     1      17.405   5.713  19.001  0.00  0.00    -0.000 A 
ATOM     20  C   UNL     1      17.404   6.046  19.756  0.00  0.00    -0.000 A 
ATOM     21  C   UNL     1      16.762   6.499  20.006  0.00  0.00    -0.003 A 
ENDBRANCH  15  16
ENDBRANCH  14  15
ENDBRANCH  13  14
TORSDOF 6
ENDMDL
