MODEL 1
REMARK VINA RESULT:     -13.8      0.000      0.000
REMARK  Name = 
REMARK  6 active torsions:
REMARK  status: ('A' for Active; 'I' for Inactive)
REMARK    1  A    between atoms: C_2  and  C_5
REMARK    2  A    between atoms: C_5  and  C_6
REMARK    3  A    between atoms: C_15  and  C_17
REMARK    4  A    between atoms: C_25  and  C_26
REMARK    5  A    between atoms: C_26  and  C_27
REMARK    6  A    between atoms: N_29  and  C_30
REMARK                            x       y       z     vdW  Elec       q    Type
REMARK                         _______ _______ _______ _____ _____    ______ ____
ROOT
ATOM      6  C   UNL     1      -3.696  -1.316  24.139  0.00  0.00    +0.247 C 
ATOM      7  O   UNL     1      -4.395  -1.299  24.576  0.00  0.00    -0.273 OA
ATOM      8  N   UNL     1      -3.315  -0.611  23.943  0.00  0.00    -0.154 NA
ATOM      9  C   UNL     1      -3.634   0.111  24.184  0.00  0.00    +0.185 A 
ATOM     10  N   UNL     1      -3.315   0.856  24.030  0.00  0.00    -0.227 NA
ATOM     11  C   UNL     1      -3.811   1.420  24.372  0.00  0.00    +0.063 A 
ATOM     12  C   UNL     1      -4.435   1.023  24.737  0.00  0.00    +0.023 A 
ATOM     13  C   UNL     1      -5.023   1.450  25.128  0.00  0.00    +0.034 C 
ATOM     14  C   UNL     1      -4.987   2.273  25.154  0.00  0.00    +0.010 C 
ATOM     15  C   UNL     1      -5.574   2.700  25.545  0.00  0.00    +0.059 C 
ATOM     16  C   UNL     1      -5.848   1.932  25.670  0.00  0.00    +0.005 C 
ATOM     19  C   UNL     1      -5.539   3.524  25.571  0.00  0.00    +0.154 C 
ATOM     20  O   UNL     1      -6.126   3.951  25.963  0.00  0.00    -0.223 OA
ATOM     21  C   UNL     1      -4.915   3.921  25.206  0.00  0.00    +0.033 C 
ATOM     22  C   UNL     1      -4.326   3.494  24.814  0.00  0.00    +0.003 C 
ATOM     23  C   UNL     1      -4.363   2.671  24.789  0.00  0.00    +0.006 C 
ATOM     24  C   UNL     1      -3.739   3.068  24.423  0.00  0.00    +0.000 C 
ATOM     25  C   UNL     1      -3.775   2.245  24.398  0.00  0.00    +0.050 C 
ATOM     37  S   UNL     1      -4.325   0.213  24.621  0.00  0.00    -0.054 S 
ENDROOT
BRANCH  15  17
ATOM     17  C   UNL     1      -6.257   2.860  25.980  0.00  0.00    +0.184 C 
ATOM     18  O   UNL     1      -6.545   2.304  26.516  0.00  0.00    -0.220 OA
ENDBRANCH  15  17
BRANCH   6   5
ATOM      5  C   UNL     1      -3.377  -2.038  23.898  0.00  0.00    +0.087 C 
BRANCH   5   2
ATOM      1  C   UNL     1      -3.455  -3.348  24.898  0.00  0.00    +0.000 C 
ATOM      2  C   UNL     1      -3.416  -2.693  24.398  0.00  0.00    +0.009 C 
ATOM      3  C   UNL     1      -2.694  -2.479  24.735  0.00  0.00    +0.000 C 
ATOM      4  C   UNL     1      -4.138  -2.908  24.062  0.00  0.00    +0.000 C 
ENDBRANCH   5   2
ENDBRANCH   6   5
BRANCH  25  26
ATOM     26  C   UNL     1      -3.152   2.641  24.033  0.00  0.00    +0.093 C 
BRANCH  26  27
ATOM     27  C   UNL     1      -2.412   2.674  24.398  0.00  0.00    +0.246 C 
ATOM     28  O   UNL     1      -2.354   2.596  25.217  0.00  0.00    -0.273 OA
ATOM     29  N   UNL     1      -1.732   2.784  23.945  0.00  0.00    -0.179 NA
BRANCH  29  30
ATOM     30  C   UNL     1      -0.994   2.816  24.310  0.00  0.00    +0.077 A 
ATOM     31  C   UNL     1      -0.446   2.211  24.189  0.00  0.00    +0.059 A 
ATOM     32  C   UNL     1       0.293   2.243  24.554  0.00  0.00    +0.197 A 
ATOM     33  O   UNL     1       0.840   1.638  24.433  0.00  0.00    -0.287 OA
ATOM     34  C   UNL     1       0.484   2.881  25.042  0.00  0.00    +0.042 A 
ATOM     35  C   UNL     1      -0.063   3.486  25.163  0.00  0.00    +0.005 A 
ATOM     36  C   UNL     1      -0.801   3.453  24.798  0.00  0.00    +0.017 A 
ENDBRANCH  29  30
ENDBRANCH  26  27
ENDBRANCH  25  26
TORSDOF 6
ENDMDL
MODEL 2
REMARK VINA RESULT:     -13.0      1.207      5.139
REMARK  Name = 
REMARK  6 active torsions:
REMARK  status: ('A' for Active; 'I' for Inactive)
REMARK    1  A    between atoms: C_2  and  C_5
REMARK    2  A    between atoms: C_5  and  C_6
REMARK    3  A    between atoms: C_15  and  C_17
REMARK    4  A    between atoms: C_25  and  C_26
REMARK    5  A    between atoms: C_26  and  C_27
REMARK    6  A    between atoms: N_29  and  C_30
REMARK                            x       y       z     vdW  Elec       q    Type
REMARK                         _______ _______ _______ _____ _____    ______ ____
ROOT
ATOM      6  C   UNL     1      -0.562   1.872  24.730  0.00  0.00    +0.247 C 
ATOM      7  O   UNL     1      -0.184   1.154  24.875  0.00  0.00    -0.273 OA
ATOM      8  N   UNL     1      -1.364   1.884  24.539  0.00  0.00    -0.154 NA
ATOM      9  C   UNL     1      -1.788   1.178  24.493  0.00  0.00    +0.185 A 
ATOM     10  N   UNL     1      -2.589   1.105  24.309  0.00  0.00    -0.227 NA
ATOM     11  C   UNL     1      -2.782   0.303  24.326  0.00  0.00    +0.063 A 
ATOM     12  C   UNL     1      -2.100  -0.119  24.521  0.00  0.00    +0.023 A 
ATOM     13  C   UNL     1      -2.127  -0.942  24.579  0.00  0.00    +0.034 C 
ATOM     14  C   UNL     1      -2.835  -1.342  24.442  0.00  0.00    +0.010 C 
ATOM     15  C   UNL     1      -2.861  -2.164  24.500  0.00  0.00    +0.059 C 
ATOM     16  C   UNL     1      -2.067  -2.034  24.678  0.00  0.00    +0.005 C 
ATOM     19  C   UNL     1      -3.569  -2.565  24.364  0.00  0.00    +0.154 C 
ATOM     20  O   UNL     1      -3.597  -3.388  24.422  0.00  0.00    -0.223 OA
ATOM     21  C   UNL     1      -4.251  -2.143  24.169  0.00  0.00    +0.033 C 
ATOM     22  C   UNL     1      -4.225  -1.320  24.111  0.00  0.00    +0.003 C 
ATOM     23  C   UNL     1      -3.517  -0.920  24.248  0.00  0.00    +0.006 C 
ATOM     24  C   UNL     1      -4.198  -0.498  24.053  0.00  0.00    +0.000 C 
ATOM     25  C   UNL     1      -3.491  -0.098  24.190  0.00  0.00    +0.050 C 
ATOM     37  S   UNL     1      -1.486   0.423  24.624  0.00  0.00    -0.054 S 
ENDROOT
BRANCH  15  17
ATOM     17  C   UNL     1      -2.612  -2.942  24.620  0.00  0.00    +0.184 C 
ATOM     18  O   UNL     1      -1.807  -3.117  24.651  0.00  0.00    -0.220 OA
ENDBRANCH  15  17
BRANCH   6   5
ATOM      5  C   UNL     1      -0.138   2.579  24.775  0.00  0.00    +0.087 C 
BRANCH   5   2
ATOM      1  C   UNL     1      -0.178   3.478  26.158  0.00  0.00    +0.000 C 
ATOM      2  C   UNL     1      -0.158   3.028  25.466  0.00  0.00    +0.009 C 
ATOM      3  C   UNL     1      -0.585   3.614  25.073  0.00  0.00    +0.000 C 
ATOM      4  C   UNL     1       0.270   2.442  25.860  0.00  0.00    +0.000 C 
ENDBRANCH   5   2
ENDBRANCH   6   5
BRANCH  25  26
ATOM     26  C   UNL     1      -4.172   0.324  23.995  0.00  0.00    +0.093 C 
BRANCH  26  27
ATOM     27  C   UNL     1      -4.553   0.779  24.569  0.00  0.00    +0.246 C 
ATOM     28  O   UNL     1      -4.550   0.536  25.357  0.00  0.00    -0.273 OA
ATOM     29  N   UNL     1      -4.937   1.477  24.353  0.00  0.00    -0.179 NA
BRANCH  29  30
ATOM     30  C   UNL     1      -5.317   1.932  24.926  0.00  0.00    +0.077 A 
ATOM     31  C   UNL     1      -5.014   2.670  25.135  0.00  0.00    +0.059 A 
ATOM     32  C   UNL     1      -5.395   3.126  25.708  0.00  0.00    +0.197 A 
ATOM     33  O   UNL     1      -5.092   3.864  25.917  0.00  0.00    -0.287 OA
ATOM     34  C   UNL     1      -6.079   2.842  26.072  0.00  0.00    +0.042 A 
ATOM     35  C   UNL     1      -6.382   2.104  25.863  0.00  0.00    +0.005 A 
ATOM     36  C   UNL     1      -6.002   1.649  25.291  0.00  0.00    +0.017 A 
ENDBRANCH  29  30
ENDBRANCH  26  27
ENDBRANCH  25  26
TORSDOF 6
ENDMDL
MODEL 3
REMARK VINA RESULT:     -11.6      2.067      4.655
REMARK  Name = 
REMARK  6 active torsions:
REMARK  status: ('A' for Active; 'I' for Inactive)
REMARK    1  A    between atoms: C_2  and  C_5
REMARK    2  A    between atoms: C_5  and  C_6
REMARK    3  A    between atoms: C_15  and  C_17
REMARK    4  A    between atoms: C_25  and  C_26
REMARK    5  A    between atoms: C_26  and  C_27
REMARK    6  A    between atoms: N_29  and  C_30
REMARK                            x       y       z     vdW  Elec       q    Type
REMARK                         _______ _______ _______ _____ _____    ______ ____
ROOT
ATOM      6  C   UNL     1       1.174   0.391  23.277  0.00  0.00    +0.247 C 
ATOM      7  O   UNL     1       1.480   1.103  23.559  0.00  0.00    -0.273 OA
ATOM      8  N   UNL     1       0.363   0.249  23.310  0.00  0.00    -0.154 NA
ATOM      9  C   UNL     1      -0.143   0.819  23.626  0.00  0.00    +0.185 A 
ATOM     10  N   UNL     1      -0.963   0.754  23.695  0.00  0.00    -0.227 NA
ATOM     11  C   UNL     1      -1.245   1.449  24.040  0.00  0.00    +0.063 A 
ATOM     12  C   UNL     1      -0.599   1.943  24.184  0.00  0.00    +0.023 A 
ATOM     13  C   UNL     1      -0.715   2.683  24.529  0.00  0.00    +0.034 C 
ATOM     14  C   UNL     1      -1.476   2.930  24.730  0.00  0.00    +0.010 C 
ATOM     15  C   UNL     1      -1.591   3.670  25.075  0.00  0.00    +0.059 C 
ATOM     16  C   UNL     1      -0.772   3.681  24.983  0.00  0.00    +0.005 C 
ATOM     19  C   UNL     1      -2.352   3.917  25.277  0.00  0.00    +0.154 C 
ATOM     20  O   UNL     1      -2.468   4.658  25.623  0.00  0.00    -0.223 OA
ATOM     21  C   UNL     1      -2.997   3.424  25.134  0.00  0.00    +0.033 C 
ATOM     22  C   UNL     1      -2.882   2.683  24.788  0.00  0.00    +0.003 C 
ATOM     23  C   UNL     1      -2.121   2.437  24.587  0.00  0.00    +0.006 C 
ATOM     24  C   UNL     1      -2.767   1.943  24.443  0.00  0.00    +0.000 C 
ATOM     25  C   UNL     1      -2.006   1.696  24.242  0.00  0.00    +0.050 C 
ATOM     37  S   UNL     1       0.082   1.553  23.927  0.00  0.00    -0.054 S 
ENDROOT
BRANCH  15  17
ATOM     17  C   UNL     1      -1.422   4.415  25.389  0.00  0.00    +0.184 C 
ATOM     18  O   UNL     1      -0.755   4.828  25.135  0.00  0.00    -0.220 OA
ENDBRANCH  15  17
BRANCH   6   5
ATOM      5  C   UNL     1       1.680  -0.179  22.961  0.00  0.00    +0.087 C 
BRANCH   5   2
ATOM      1  C   UNL     1       3.016   0.284  22.109  0.00  0.00    +0.000 C 
ATOM      2  C   UNL     1       2.348   0.052  22.536  0.00  0.00    +0.009 C 
ATOM      3  C   UNL     1       1.947  -0.092  21.828  0.00  0.00    +0.000 C 
ATOM      4  C   UNL     1       2.749   0.197  23.242  0.00  0.00    +0.000 C 
ENDBRANCH   5   2
ENDBRANCH   6   5
BRANCH  25  26
ATOM     26  C   UNL     1      -2.651   1.204  24.098  0.00  0.00    +0.093 C 
BRANCH  26  27
ATOM     27  C   UNL     1      -2.752   0.516  24.544  0.00  0.00    +0.246 C 
ATOM     28  O   UNL     1      -2.403   0.452  25.288  0.00  0.00    -0.273 OA
ATOM     29  N   UNL     1      -3.202  -0.108  24.244  0.00  0.00    -0.179 NA
BRANCH  29  30
ATOM     30  C   UNL     1      -3.303  -0.794  24.688  0.00  0.00    +0.077 A 
ATOM     31  C   UNL     1      -3.101  -1.527  24.367  0.00  0.00    +0.059 A 
ATOM     32  C   UNL     1      -3.202  -2.215  24.812  0.00  0.00    +0.197 A 
ATOM     33  O   UNL     1      -3.001  -2.948  24.491  0.00  0.00    -0.287 OA
ATOM     34  C   UNL     1      -3.504  -2.169  25.578  0.00  0.00    +0.042 A 
ATOM     35  C   UNL     1      -3.705  -1.437  25.900  0.00  0.00    +0.005 A 
ATOM     36  C   UNL     1      -3.604  -0.750  25.455  0.00  0.00    +0.017 A 
ENDBRANCH  29  30
ENDBRANCH  26  27
ENDBRANCH  25  26
TORSDOF 6
ENDMDL
MODEL 4
REMARK VINA RESULT:     -11.5      1.491      4.405
REMARK  Name = 
REMARK  6 active torsions:
REMARK  status: ('A' for Active; 'I' for Inactive)
REMARK    1  A    between atoms: C_2  and  C_5
REMARK    2  A    between atoms: C_5  and  C_6
REMARK    3  A    between atoms: C_15  and  C_17
REMARK    4  A    between atoms: C_25  and  C_26
REMARK    5  A    between atoms: C_26  and  C_27
REMARK    6  A    between atoms: N_29  and  C_30
REMARK                            x       y       z     vdW  Elec       q    Type
REMARK                         _______ _______ _______ _____ _____    ______ ____
ROOT
ATOM      6  C   UNL     1      -2.975  -1.723  24.736  0.00  0.00    +0.247 C 
ATOM      7  O   UNL     1      -2.363  -2.028  24.273  0.00  0.00    -0.273 OA
ATOM      8  N   UNL     1      -2.925  -0.953  25.029  0.00  0.00    -0.154 NA
ATOM      9  C   UNL     1      -2.264  -0.489  24.859  0.00  0.00    +0.185 A 
ATOM     10  N   UNL     1      -2.140   0.286  25.113  0.00  0.00    -0.227 NA
ATOM     11  C   UNL     1      -1.411   0.536  24.818  0.00  0.00    +0.063 A 
ATOM     12  C   UNL     1      -1.086  -0.085  24.381  0.00  0.00    +0.023 A 
ATOM     13  C   UNL     1      -0.352   0.008  24.017  0.00  0.00    +0.034 C 
ATOM     14  C   UNL     1       0.058   0.720  24.088  0.00  0.00    +0.010 C 
ATOM     15  C   UNL     1       0.792   0.812  23.724  0.00  0.00    +0.059 C 
ATOM     16  C   UNL     1       0.616   0.038  23.499  0.00  0.00    +0.005 C 
ATOM     19  C   UNL     1       1.202   1.524  23.795  0.00  0.00    +0.154 C 
ATOM     20  O   UNL     1       1.937   1.616  23.431  0.00  0.00    -0.223 OA
ATOM     21  C   UNL     1       0.878   2.144  24.232  0.00  0.00    +0.033 C 
ATOM     22  C   UNL     1       0.143   2.053  24.597  0.00  0.00    +0.003 C 
ATOM     23  C   UNL     1      -0.266   1.340  24.525  0.00  0.00    +0.006 C 
ATOM     24  C   UNL     1      -0.591   1.961  24.961  0.00  0.00    +0.000 C 
ATOM     25  C   UNL     1      -1.001   1.249  24.889  0.00  0.00    +0.050 C 
ATOM     37  S   UNL     1      -1.615  -0.718  24.408  0.00  0.00    -0.054 S 
ENDROOT
BRANCH  15  17
ATOM     17  C   UNL     1       1.465   0.635  23.281  0.00  0.00    +0.184 C 
ATOM     18  O   UNL     1       1.472  -0.023  22.784  0.00  0.00    -0.220 OA
ENDBRANCH  15  17
BRANCH   6   5
ATOM      5  C   UNL     1      -3.635  -2.187  24.905  0.00  0.00    +0.087 C 
BRANCH   5   2
ATOM      1  C   UNL     1      -4.211  -3.245  23.777  0.00  0.00    +0.000 C 
ATOM      2  C   UNL     1      -3.923  -2.716  24.341  0.00  0.00    +0.009 C 
ATOM      3  C   UNL     1      -3.486  -3.324  24.688  0.00  0.00    +0.000 C 
ATOM      4  C   UNL     1      -4.360  -2.109  23.994  0.00  0.00    +0.000 C 
ENDBRANCH   5   2
ENDBRANCH   6   5
BRANCH  25  26
ATOM     26  C   UNL     1      -1.325   1.869  25.325  0.00  0.00    +0.093 C 
BRANCH  26  27
ATOM     27  C   UNL     1      -1.959   2.300  25.020  0.00  0.00    +0.246 C 
ATOM     28  O   UNL     1      -2.050   2.377  24.204  0.00  0.00    -0.273 OA
ATOM     29  N   UNL     1      -2.501   2.654  25.532  0.00  0.00    -0.179 NA
BRANCH  29  30
ATOM     30  C   UNL     1      -3.134   3.085  25.227  0.00  0.00    +0.077 A 
ATOM     31  C   UNL     1      -3.895   2.767  25.243  0.00  0.00    +0.059 A 
ATOM     32  C   UNL     1      -4.530   3.199  24.938  0.00  0.00    +0.197 A 
ATOM     33  O   UNL     1      -5.291   2.880  24.954  0.00  0.00    -0.287 OA
ATOM     34  C   UNL     1      -4.402   3.948  24.617  0.00  0.00    +0.042 A 
ATOM     35  C   UNL     1      -3.641   4.266  24.601  0.00  0.00    +0.005 A 
ATOM     36  C   UNL     1      -3.008   3.835  24.906  0.00  0.00    +0.017 A 
ENDBRANCH  29  30
ENDBRANCH  26  27
ENDBRANCH  25  26
TORSDOF 6
ENDMDL
MODEL 5
REMARK VINA RESULT:     -11.5      1.859      3.054
REMARK  Name = 
REMARK  6 active torsions:
REMARK  status: ('A' for Active; 'I' for Inactive)
REMARK    1  A    between atoms: C_2  and  C_5
REMARK    2  A    between atoms: C_5  and  C_6
REMARK    3  A    between atoms: C_15  and  C_17
REMARK    4  A    between atoms: C_25  and  C_26
REMARK    5  A    between atoms: C_26  and  C_27
REMARK    6  A    between atoms: N_29  and  C_30
REMARK                            x       y       z     vdW  Elec       q    Type
REMARK                         _______ _______ _______ _____ _____    ______ ____
ROOT
ATOM      6  C   UNL     1      -3.416  -0.813  25.057  0.00  0.00    +0.247 C 
ATOM      7  O   UNL     1      -3.970  -0.202  25.088  0.00  0.00    -0.273 OA
ATOM      8  N   UNL     1      -2.611  -0.638  25.040  0.00  0.00    -0.154 NA
ATOM      9  C   UNL     1      -2.358   0.147  25.055  0.00  0.00    +0.185 A 
ATOM     10  N   UNL     1      -1.575   0.404  25.041  0.00  0.00    -0.227 NA
ATOM     11  C   UNL     1      -1.577   1.229  25.064  0.00  0.00    +0.063 A 
ATOM     12  C   UNL     1      -2.362   1.481  25.092  0.00  0.00    +0.023 A 
ATOM     13  C   UNL     1      -2.536   2.287  25.119  0.00  0.00    +0.034 C 
ATOM     14  C   UNL     1      -1.925   2.841  25.118  0.00  0.00    +0.010 C 
ATOM     15  C   UNL     1      -2.099   3.647  25.145  0.00  0.00    +0.059 C 
ATOM     16  C   UNL     1      -2.863   3.335  25.157  0.00  0.00    +0.005 C 
ATOM     19  C   UNL     1      -1.488   4.202  25.144  0.00  0.00    +0.154 C 
ATOM     20  O   UNL     1      -1.662   5.008  25.171  0.00  0.00    -0.223 OA
ATOM     21  C   UNL     1      -0.703   3.950  25.116  0.00  0.00    +0.033 C 
ATOM     22  C   UNL     1      -0.529   3.143  25.089  0.00  0.00    +0.003 C 
ATOM     23  C   UNL     1      -1.140   2.590  25.090  0.00  0.00    +0.006 C 
ATOM     24  C   UNL     1      -0.355   2.338  25.062  0.00  0.00    +0.000 C 
ATOM     25  C   UNL     1      -0.965   1.784  25.063  0.00  0.00    +0.050 C 
ATOM     37  S   UNL     1      -2.845   0.811  25.086  0.00  0.00    -0.054 S 
ENDROOT
BRANCH  15  17
ATOM     17  C   UNL     1      -2.538   4.345  25.176  0.00  0.00    +0.184 C 
ATOM     18  O   UNL     1      -3.360   4.314  25.239  0.00  0.00    -0.220 OA
ENDBRANCH  15  17
BRANCH   6   5
ATOM      5  C   UNL     1      -3.669  -1.599  25.042  0.00  0.00    +0.087 C 
BRANCH   5   2
ATOM      1  C   UNL     1      -4.144  -2.285  23.619  0.00  0.00    +0.000 C 
ATOM      2  C   UNL     1      -3.906  -1.942  24.331  0.00  0.00    +0.009 C 
ATOM      3  C   UNL     1      -3.312  -2.509  24.405  0.00  0.00    +0.000 C 
ATOM      4  C   UNL     1      -4.501  -1.375  24.255  0.00  0.00    +0.000 C 
ENDBRANCH   5   2
ENDBRANCH   6   5
BRANCH  25  26
ATOM     26  C   UNL     1      -0.181   1.533  25.035  0.00  0.00    +0.093 C 
BRANCH  26  27
ATOM     27  C   UNL     1       0.141   1.264  24.324  0.00  0.00    +0.246 C 
ATOM     28  O   UNL     1      -0.076   1.621  23.613  0.00  0.00    -0.273 OA
ATOM     29  N   UNL     1       0.680   0.639  24.325  0.00  0.00    -0.179 NA
BRANCH  29  30
ATOM     30  C   UNL     1       1.002   0.372  23.615  0.00  0.00    +0.077 A 
ATOM     31  C   UNL     1       1.772   0.582  23.406  0.00  0.00    +0.059 A 
ATOM     32  C   UNL     1       2.095   0.314  22.695  0.00  0.00    +0.197 A 
ATOM     33  O   UNL     1       2.865   0.524  22.486  0.00  0.00    -0.287 OA
ATOM     34  C   UNL     1       1.647  -0.165  22.194  0.00  0.00    +0.042 A 
ATOM     35  C   UNL     1       0.877  -0.375  22.403  0.00  0.00    +0.005 A 
ATOM     36  C   UNL     1       0.555  -0.107  23.113  0.00  0.00    +0.017 A 
ENDBRANCH  29  30
ENDBRANCH  26  27
ENDBRANCH  25  26
TORSDOF 6
ENDMDL
MODEL 6
REMARK VINA RESULT:     -11.4      1.335      4.376
REMARK  Name = 
REMARK  6 active torsions:
REMARK  status: ('A' for Active; 'I' for Inactive)
REMARK    1  A    between atoms: C_2  and  C_5
REMARK    2  A    between atoms: C_5  and  C_6
REMARK    3  A    between atoms: C_15  and  C_17
REMARK    4  A    between atoms: C_25  and  C_26
REMARK    5  A    between atoms: C_26  and  C_27
REMARK    6  A    between atoms: N_29  and  C_30
REMARK                            x       y       z     vdW  Elec       q    Type
REMARK                         _______ _______ _______ _____ _____    ______ ____
ROOT
ATOM      6  C   UNL     1      -4.888   2.237  24.770  0.00  0.00    +0.247 C 
ATOM      7  O   UNL     1      -5.404   1.665  24.474  0.00  0.00    -0.273 OA
ATOM      8  N   UNL     1      -4.123   2.025  24.992  0.00  0.00    -0.154 NA
ATOM      9  C   UNL     1      -3.873   1.242  24.918  0.00  0.00    +0.185 A 
ATOM     10  N   UNL     1      -3.128   0.951  25.118  0.00  0.00    -0.227 NA
ATOM     11  C   UNL     1      -3.119   0.142  24.955  0.00  0.00    +0.063 A 
ATOM     12  C   UNL     1      -3.859  -0.066  24.656  0.00  0.00    +0.023 A 
ATOM     13  C   UNL     1      -4.012  -0.848  24.443  0.00  0.00    +0.034 C 
ATOM     14  C   UNL     1      -3.427  -1.422  24.528  0.00  0.00    +0.010 C 
ATOM     15  C   UNL     1      -3.581  -2.203  24.315  0.00  0.00    +0.059 C 
ATOM     16  C   UNL     1      -4.308  -1.860  24.133  0.00  0.00    +0.005 C 
ATOM     19  C   UNL     1      -2.995  -2.778  24.401  0.00  0.00    +0.154 C 
ATOM     20  O   UNL     1      -3.148  -3.561  24.188  0.00  0.00    -0.223 OA
ATOM     21  C   UNL     1      -2.254  -2.570  24.700  0.00  0.00    +0.033 C 
ATOM     22  C   UNL     1      -2.100  -1.788  24.914  0.00  0.00    +0.003 C 
ATOM     23  C   UNL     1      -2.687  -1.214  24.828  0.00  0.00    +0.006 C 
ATOM     24  C   UNL     1      -1.946  -1.006  25.127  0.00  0.00    +0.000 C 
ATOM     25  C   UNL     1      -2.532  -0.433  25.041  0.00  0.00    +0.050 C 
ATOM     37  S   UNL     1      -4.325   0.615  24.633  0.00  0.00    -0.054 S 
ENDROOT
BRANCH  15  17
ATOM     17  C   UNL     1      -3.987  -2.867  24.039  0.00  0.00    +0.184 C 
ATOM     18  O   UNL     1      -4.670  -2.773  23.587  0.00  0.00    -0.220 OA
ENDBRANCH  15  17
BRANCH   6   5
ATOM      5  C   UNL     1      -5.138   3.020  24.843  0.00  0.00    +0.087 C 
BRANCH   5   2
ATOM      1  C   UNL     1      -5.900   3.517  26.220  0.00  0.00    +0.000 C 
ATOM      2  C   UNL     1      -5.518   3.268  25.531  0.00  0.00    +0.009 C 
ATOM      3  C   UNL     1      -6.152   2.767  25.362  0.00  0.00    +0.000 C 
ATOM      4  C   UNL     1      -4.886   3.770  25.701  0.00  0.00    +0.000 C 
ENDBRANCH   5   2
ENDBRANCH   6   5
BRANCH  25  26
ATOM     26  C   UNL     1      -1.793  -0.225  25.340  0.00  0.00    +0.093 C 
BRANCH  26  27
ATOM     27  C   UNL     1      -1.288   0.255  24.897  0.00  0.00    +0.246 C 
ATOM     28  O   UNL     1      -1.293   0.208  24.073  0.00  0.00    -0.273 OA
ATOM     29  N   UNL     1      -0.779   0.781  25.277  0.00  0.00    -0.179 NA
BRANCH  29  30
ATOM     30  C   UNL     1      -0.275   1.259  24.834  0.00  0.00    +0.077 A 
ATOM     31  C   UNL     1      -0.403   2.074  24.801  0.00  0.00    +0.059 A 
ATOM     32  C   UNL     1       0.102   2.554  24.358  0.00  0.00    +0.197 A 
ATOM     33  O   UNL     1      -0.027   3.368  24.325  0.00  0.00    -0.287 OA
ATOM     34  C   UNL     1       0.734   2.218  23.947  0.00  0.00    +0.042 A 
ATOM     35  C   UNL     1       0.862   1.404  23.980  0.00  0.00    +0.005 A 
ATOM     36  C   UNL     1       0.358   0.925  24.423  0.00  0.00    +0.017 A 
ENDBRANCH  29  30
ENDBRANCH  26  27
ENDBRANCH  25  26
TORSDOF 6
ENDMDL
MODEL 7
REMARK VINA RESULT:     -11.3      0.966      3.992
REMARK  Name = 
REMARK  6 active torsions:
REMARK  status: ('A' for Active; 'I' for Inactive)
REMARK    1  A    between atoms: C_2  and  C_5
REMARK    2  A    between atoms: C_5  and  C_6
REMARK    3  A    between atoms: C_15  and  C_17
REMARK    4  A    between atoms: C_25  and  C_26
REMARK    5  A    between atoms: C_26  and  C_27
REMARK    6  A    between atoms: N_29  and  C_30
REMARK                            x       y       z     vdW  Elec       q    Type
REMARK                         _______ _______ _______ _____ _____    ______ ____
ROOT
ATOM      6  C   UNL     1      -3.375  -1.434  24.559  0.00  0.00    +0.247 C 
ATOM      7  O   UNL     1      -2.576  -1.578  24.704  0.00  0.00    -0.273 OA
ATOM      8  N   UNL     1      -3.629  -0.670  24.380  0.00  0.00    -0.154 NA
ATOM      9  C   UNL     1      -3.085  -0.050  24.347  0.00  0.00    +0.185 A 
ATOM     10  N   UNL     1      -3.258   0.738  24.177  0.00  0.00    -0.227 NA
ATOM     11  C   UNL     1      -2.552   1.165  24.203  0.00  0.00    +0.063 A 
ATOM     12  C   UNL     1      -1.944   0.640  24.390  0.00  0.00    +0.023 A 
ATOM     13  C   UNL     1      -1.168   0.914  24.454  0.00  0.00    +0.034 C 
ATOM     14  C   UNL     1      -1.001   1.712  24.332  0.00  0.00    +0.010 C 
ATOM     15  C   UNL     1      -0.226   1.986  24.397  0.00  0.00    +0.059 C 
ATOM     16  C   UNL     1      -0.110   1.186  24.561  0.00  0.00    +0.005 C 
ATOM     19  C   UNL     1      -0.058   2.784  24.275  0.00  0.00    +0.154 C 
ATOM     20  O   UNL     1       0.717   3.059  24.340  0.00  0.00    -0.223 OA
ATOM     21  C   UNL     1      -0.667   3.309  24.088  0.00  0.00    +0.033 C 
ATOM     22  C   UNL     1      -1.443   3.035  24.023  0.00  0.00    +0.003 C 
ATOM     23  C   UNL     1      -1.609   2.237  24.145  0.00  0.00    +0.006 C 
ATOM     24  C   UNL     1      -2.218   2.762  23.959  0.00  0.00    +0.000 C 
ATOM     25  C   UNL     1      -2.385   1.964  24.081  0.00  0.00    +0.050 C 
ATOM     37  S   UNL     1      -2.274  -0.112  24.479  0.00  0.00    -0.054 S 
ENDROOT
BRANCH  15  17
ATOM     17  C   UNL     1       0.590   1.982  24.519  0.00  0.00    +0.184 C 
ATOM     18  O   UNL     1       1.033   1.314  24.326  0.00  0.00    -0.220 OA
ENDBRANCH  15  17
BRANCH   6   5
ATOM      5  C   UNL     1      -3.919  -2.053  24.592  0.00  0.00    +0.087 C 
BRANCH   5   2
ATOM      1  C   UNL     1      -3.449  -3.586  24.204  0.00  0.00    +0.000 C 
ATOM      2  C   UNL     1      -3.684  -2.819  24.398  0.00  0.00    +0.009 C 
ATOM      3  C   UNL     1      -3.359  -2.910  25.151  0.00  0.00    +0.000 C 
ATOM      4  C   UNL     1      -4.009  -2.729  23.645  0.00  0.00    +0.000 C 
ENDBRANCH   5   2
ENDBRANCH   6   5
BRANCH  25  26
ATOM     26  C   UNL     1      -2.993   2.488  23.894  0.00  0.00    +0.093 C 
BRANCH  26  27
ATOM     27  C   UNL     1      -3.540   2.709  24.472  0.00  0.00    +0.246 C 
ATOM     28  O   UNL     1      -3.289   2.846  25.245  0.00  0.00    -0.273 OA
ATOM     29  N   UNL     1      -4.337   2.792  24.275  0.00  0.00    -0.179 NA
BRANCH  29  30
ATOM     30  C   UNL     1      -4.883   3.012  24.852  0.00  0.00    +0.077 A 
ATOM     31  C   UNL     1      -5.345   2.439  25.223  0.00  0.00    +0.059 A 
ATOM     32  C   UNL     1      -5.892   2.659  25.801  0.00  0.00    +0.197 A 
ATOM     33  O   UNL     1      -6.355   2.085  26.171  0.00  0.00    -0.287 OA
ATOM     34  C   UNL     1      -5.975   3.453  26.007  0.00  0.00    +0.042 A 
ATOM     35  C   UNL     1      -5.512   4.027  25.637  0.00  0.00    +0.005 A 
ATOM     36  C   UNL     1      -4.967   3.807  25.060  0.00  0.00    +0.017 A 
ENDBRANCH  29  30
ENDBRANCH  26  27
ENDBRANCH  25  26
TORSDOF 6
ENDMDL
MODEL 8
REMARK VINA RESULT:     -11.1      2.168      4.369
REMARK  Name = 
REMARK  6 active torsions:
REMARK  status: ('A' for Active; 'I' for Inactive)
REMARK    1  A    between atoms: C_2  and  C_5
REMARK    2  A    between atoms: C_5  and  C_6
REMARK    3  A    between atoms: C_15  and  C_17
REMARK    4  A    between atoms: C_25  and  C_26
REMARK    5  A    between atoms: C_26  and  C_27
REMARK    6  A    between atoms: N_29  and  C_30
REMARK                            x       y       z     vdW  Elec       q    Type
REMARK                         _______ _______ _______ _____ _____    ______ ____
ROOT
ATOM      6  C   UNL     1       1.061   0.386  23.092  0.00  0.00    +0.247 C 
ATOM      7  O   UNL     1       1.043  -0.392  23.366  0.00  0.00    -0.273 OA
ATOM      8  N   UNL     1       0.394   0.866  23.171  0.00  0.00    -0.154 NA
ATOM      9  C   UNL     1      -0.289   0.568  23.524  0.00  0.00    +0.185 A 
ATOM     10  N   UNL     1      -0.994   0.981  23.640  0.00  0.00    -0.227 NA
ATOM     11  C   UNL     1      -1.528   0.473  24.011  0.00  0.00    +0.063 A 
ATOM     12  C   UNL     1      -1.154  -0.253  24.123  0.00  0.00    +0.023 A 
ATOM     13  C   UNL     1      -1.559  -0.874  24.485  0.00  0.00    +0.034 C 
ATOM     14  C   UNL     1      -2.338  -0.769  24.735  0.00  0.00    +0.010 C 
ATOM     15  C   UNL     1      -2.742  -1.389  25.097  0.00  0.00    +0.059 C 
ATOM     16  C   UNL     1      -2.016  -1.754  24.956  0.00  0.00    +0.005 C 
ATOM     19  C   UNL     1      -3.522  -1.285  25.346  0.00  0.00    +0.154 C 
ATOM     20  O   UNL     1      -3.927  -1.905  25.708  0.00  0.00    -0.223 OA
ATOM     21  C   UNL     1      -3.896  -0.558  25.234  0.00  0.00    +0.033 C 
ATOM     22  C   UNL     1      -3.491   0.064  24.872  0.00  0.00    +0.003 C 
ATOM     23  C   UNL     1      -2.712  -0.042  24.622  0.00  0.00    +0.006 C 
ATOM     24  C   UNL     1      -3.087   0.684  24.510  0.00  0.00    +0.000 C 
ATOM     25  C   UNL     1      -2.308   0.579  24.261  0.00  0.00    +0.050 C 
ATOM     37  S   UNL     1      -0.387  -0.194  23.822  0.00  0.00    -0.054 S 
ENDROOT
BRANCH  15  17
ATOM     17  C   UNL     1      -2.895  -2.137  25.410  0.00  0.00    +0.184 C 
ATOM     18  O   UNL     1      -2.535  -2.803  25.084  0.00  0.00    -0.220 OA
ENDBRANCH  15  17
BRANCH   6   5
ATOM      5  C   UNL     1       1.744   0.684  22.739  0.00  0.00    +0.087 C 
BRANCH   5   2
ATOM      1  C   UNL     1       3.110  -0.241  22.675  0.00  0.00    +0.000 C 
ATOM      2  C   UNL     1       2.426   0.222  22.707  0.00  0.00    +0.009 C 
ATOM      3  C   UNL     1       2.745   0.648  23.337  0.00  0.00    +0.000 C 
ATOM      4  C   UNL     1       2.109  -0.205  22.077  0.00  0.00    +0.000 C 
ENDBRANCH   5   2
ENDBRANCH   6   5
BRANCH  25  26
ATOM     26  C   UNL     1      -2.682   1.305  24.148  0.00  0.00    +0.093 C 
BRANCH  26  27
ATOM     27  C   UNL     1      -2.500   1.943  24.639  0.00  0.00    +0.246 C 
ATOM     28  O   UNL     1      -2.169   1.810  25.382  0.00  0.00    -0.273 OA
ATOM     29  N   UNL     1      -2.650   2.714  24.385  0.00  0.00    -0.179 NA
BRANCH  29  30
ATOM     30  C   UNL     1      -2.468   3.352  24.875  0.00  0.00    +0.077 A 
ATOM     31  C   UNL     1      -1.782   3.791  24.742  0.00  0.00    +0.059 A 
ATOM     32  C   UNL     1      -1.600   4.430  25.232  0.00  0.00    +0.197 A 
ATOM     33  O   UNL     1      -0.914   4.870  25.099  0.00  0.00    -0.287 OA
ATOM     34  C   UNL     1      -2.103   4.628  25.855  0.00  0.00    +0.042 A 
ATOM     35  C   UNL     1      -2.788   4.188  25.988  0.00  0.00    +0.005 A 
ATOM     36  C   UNL     1      -2.970   3.551  25.498  0.00  0.00    +0.017 A 
ENDBRANCH  29  30
ENDBRANCH  26  27
ENDBRANCH  25  26
TORSDOF 6
ENDMDL
MODEL 9
REMARK VINA RESULT:     -11.0      1.015      3.972
REMARK  Name = 
REMARK  6 active torsions:
REMARK  status: ('A' for Active; 'I' for Inactive)
REMARK    1  A    between atoms: C_2  and  C_5
REMARK    2  A    between atoms: C_5  and  C_6
REMARK    3  A    between atoms: C_15  and  C_17
REMARK    4  A    between atoms: C_25  and  C_26
REMARK    5  A    between atoms: C_26  and  C_27
REMARK    6  A    between atoms: N_29  and  C_30
REMARK                            x       y       z     vdW  Elec       q    Type
REMARK                         _______ _______ _______ _____ _____    ______ ____
ROOT
ATOM      6  C   UNL     1      -0.835   2.259  23.877  0.00  0.00    +0.247 C 
ATOM      7  O   UNL     1      -1.046   2.924  24.317  0.00  0.00    -0.273 OA
ATOM      8  N   UNL     1      -1.390   1.667  23.734  0.00  0.00    -0.154 NA
ATOM      9  C   UNL     1      -2.157   1.739  24.030  0.00  0.00    +0.185 A 
ATOM     10  N   UNL     1      -2.767   1.193  23.931  0.00  0.00    -0.227 NA
ATOM     11  C   UNL     1      -3.435   1.486  24.318  0.00  0.00    +0.063 A 
ATOM     12  C   UNL     1      -3.237   2.213  24.654  0.00  0.00    +0.023 A 
ATOM     13  C   UNL     1      -3.802   2.638  25.079  0.00  0.00    +0.034 C 
ATOM     14  C   UNL     1      -4.564   2.338  25.168  0.00  0.00    +0.010 C 
ATOM     15  C   UNL     1      -5.129   2.763  25.592  0.00  0.00    +0.059 C 
ATOM     16  C   UNL     1      -4.484   3.273  25.660  0.00  0.00    +0.005 C 
ATOM     19  C   UNL     1      -5.892   2.463  25.681  0.00  0.00    +0.154 C 
ATOM     20  O   UNL     1      -6.457   2.888  26.106  0.00  0.00    -0.223 OA
ATOM     21  C   UNL     1      -6.091   1.736  25.344  0.00  0.00    +0.033 C 
ATOM     22  C   UNL     1      -5.526   1.310  24.919  0.00  0.00    +0.003 C 
ATOM     23  C   UNL     1      -4.763   1.611  24.831  0.00  0.00    +0.006 C 
ATOM     24  C   UNL     1      -4.962   0.885  24.494  0.00  0.00    +0.000 C 
ATOM     25  C   UNL     1      -4.199   1.185  24.406  0.00  0.00    +0.050 C 
ATOM     37  S   UNL     1      -2.446   2.369  24.476  0.00  0.00    -0.054 S 
ENDROOT
BRANCH  15  17
ATOM     17  C   UNL     1      -5.470   3.366  26.041  0.00  0.00    +0.184 C 
ATOM     18  O   UNL     1      -5.066   4.076  26.153  0.00  0.00    -0.220 OA
ENDBRANCH  15  17
BRANCH   6   5
ATOM      5  C   UNL     1      -0.068   2.187  23.581  0.00  0.00    +0.087 C 
BRANCH   5   2
ATOM      1  C   UNL     1       1.104   1.465  24.491  0.00  0.00    +0.000 C 
ATOM      2  C   UNL     1       0.517   1.826  24.036  0.00  0.00    +0.009 C 
ATOM      3  C   UNL     1       0.501   1.170  23.536  0.00  0.00    +0.000 C 
ATOM      4  C   UNL     1       0.534   2.482  24.535  0.00  0.00    +0.000 C 
ENDBRANCH   5   2
ENDBRANCH   6   5
BRANCH  25  26
ATOM     26  C   UNL     1      -4.397   0.460  24.069  0.00  0.00    +0.093 C 
BRANCH  26  27
ATOM     27  C   UNL     1      -4.097  -0.240  24.389  0.00  0.00    +0.246 C 
ATOM     28  O   UNL     1      -4.038  -0.326  25.208  0.00  0.00    -0.273 OA
ATOM     29  N   UNL     1      -3.856  -0.852  23.891  0.00  0.00    -0.179 NA
BRANCH  29  30
ATOM     30  C   UNL     1      -3.556  -1.550  24.211  0.00  0.00    +0.077 A 
ATOM     31  C   UNL     1      -2.742  -1.643  24.307  0.00  0.00    +0.059 A 
ATOM     32  C   UNL     1      -2.442  -2.342  24.628  0.00  0.00    +0.197 A 
ATOM     33  O   UNL     1      -1.628  -2.435  24.724  0.00  0.00    -0.287 OA
ATOM     34  C   UNL     1      -2.956  -2.947  24.851  0.00  0.00    +0.042 A 
ATOM     35  C   UNL     1      -3.770  -2.854  24.754  0.00  0.00    +0.005 A 
ATOM     36  C   UNL     1      -4.070  -2.156  24.434  0.00  0.00    +0.017 A 
ENDBRANCH  29  30
ENDBRANCH  26  27
ENDBRANCH  25  26
TORSDOF 6
ENDMDL
