MODEL 1
REMARK VINA RESULT:      -8.9      0.000      0.000
REMARK  Name = 
REMARK  11 active torsions:
REMARK  status: ('A' for Active; 'I' for Inactive)
REMARK    1  A    between atoms: C_2  and  C_4
REMARK    2  A    between atoms: C_6  and  C_7
REMARK    3  A    between atoms: C_7  and  C_8
REMARK    4  A    between atoms: N_10  and  C_11
REMARK    5  A    between atoms: C_11  and  C_12
REMARK    6  A    between atoms: C_21  and  C_22
REMARK    7  A    between atoms: C_22  and  N_23
REMARK    8  A    between atoms: C_24  and  C_26
REMARK    9  A    between atoms: C_26  and  O_27
REMARK   10  A    between atoms: O_27  and  C_28
REMARK   11  A    between atoms: C_28  and  C_29
REMARK                            x       y       z     vdW  Elec       q    Type
REMARK                         _______ _______ _______ _____ _____    ______ ____
ROOT
ATOM      4  C   UNL     1      -1.514   1.022  24.705  0.00  0.00    +0.006 C 
ATOM      5  C   UNL     1      -1.946   1.662  24.998  0.00  0.00    +0.005 C 
ATOM      6  C   UNL     1      -1.641   2.426  24.940  0.00  0.00    +0.027 C 
ATOM     18  C   UNL     1      -0.903   2.551  24.590  0.00  0.00    -0.048 C 
ATOM     19  C   UNL     1      -0.598   3.316  24.532  0.00  0.00    +0.026 C 
ATOM     20  C   UNL     1      -0.472   1.911  24.298  0.00  0.00    -0.033 C 
ATOM     21  C   UNL     1      -0.778   1.147  24.356  0.00  0.00    +0.043 C 
ENDROOT
BRANCH   4   2
ATOM      1  C   UNL     1      -1.655  -0.203  25.427  0.00  0.00    +0.000 C 
ATOM      2  C   UNL     1      -1.819   0.257  24.763  0.00  0.00    +0.000 C 
ATOM      3  C   UNL     1      -2.289  -0.046  24.156  0.00  0.00    +0.000 C 
ENDBRANCH   4   2
BRANCH   6   7
ATOM      7  C   UNL     1      -2.072   3.066  25.232  0.00  0.00    +0.091 C 
BRANCH   7   8
ATOM      8  C   UNL     1      -2.806   3.253  24.905  0.00  0.00    +0.242 C 
ATOM      9  O   UNL     1      -2.848   3.633  24.175  0.00  0.00    -0.273 OA
ATOM     10  N   UNL     1      -3.498   3.058  25.310  0.00  0.00    -0.200 NA
BRANCH  10  11
ATOM     11  C   UNL     1      -4.233   3.245  24.984  0.00  0.00    +0.143 C 
BRANCH  11  12
ATOM     12  C   UNL     1      -4.916   2.881  25.270  0.00  0.00    +0.019 A 
ATOM     13  C   UNL     1      -5.265   2.266  24.843  0.00  0.00    +0.001 A 
ATOM     14  C   UNL     1      -5.948   1.903  25.129  0.00  0.00    +0.020 A 
ATOM     15  C   UNL     1      -6.282   2.153  25.840  0.00  0.00    +0.099 A 
ATOM     16  N   UNL     1      -5.934   2.767  26.266  0.00  0.00    -0.243 NA
ATOM     17  C   UNL     1      -5.250   3.131  25.981  0.00  0.00    +0.096 A 
ENDBRANCH  11  12
ENDBRANCH  10  11
ENDBRANCH   7   8
ENDBRANCH   6   7
BRANCH  21  22
ATOM     22  C   UNL     1      -0.347   0.507  24.064  0.00  0.00    +0.119 C 
BRANCH  22  23
ATOM     23  N   UNL     1       0.262   0.634  23.521  0.00  0.00    -0.203 NA
ATOM     24  C   UNL     1       0.757   0.009  23.302  0.00  0.00    +0.272 C 
ATOM     25  O   UNL     1       0.642  -0.740  23.627  0.00  0.00    -0.271 OA
BRANCH  24  26
ATOM     26  C   UNL     1       1.365   0.136  22.759  0.00  0.00    +0.229 C 
BRANCH  26  27
ATOM     27  O   UNL     1       2.150   0.128  23.012  0.00  0.00    -0.333 OA
BRANCH  27  28
ATOM     28  C   UNL     1       2.754   0.330  22.487  0.00  0.00    +0.257 C 
BRANCH  28  29
ATOM     29  C   UNL     1       3.511   0.489  22.772  0.00  0.00    +0.394 C 
ATOM     30  O   UNL     1       4.034  -0.132  22.924  0.00  0.00    -0.243 OA
ATOM     31  O   UNL     1       3.747   1.268  22.905  0.00  0.00    -0.243 OA
ENDBRANCH  28  29
ENDBRANCH  27  28
ENDBRANCH  26  27
ENDBRANCH  24  26
ENDBRANCH  22  23
ENDBRANCH  21  22
TORSDOF 11
ENDMDL
MODEL 2
REMARK VINA RESULT:      -8.2      1.207      2.047
REMARK  Name = 
REMARK  11 active torsions:
REMARK  status: ('A' for Active; 'I' for Inactive)
REMARK    1  A    between atoms: C_2  and  C_4
REMARK    2  A    between atoms: C_6  and  C_7
REMARK    3  A    between atoms: C_7  and  C_8
REMARK    4  A    between atoms: N_10  and  C_11
REMARK    5  A    between atoms: C_11  and  C_12
REMARK    6  A    between atoms: C_21  and  C_22
REMARK    7  A    between atoms: C_22  and  N_23
REMARK    8  A    between atoms: C_24  and  C_26
REMARK    9  A    between atoms: C_26  and  O_27
REMARK   10  A    between atoms: O_27  and  C_28
REMARK   11  A    between atoms: C_28  and  C_29
REMARK                            x       y       z     vdW  Elec       q    Type
REMARK                         _______ _______ _______ _____ _____    ______ ____
ROOT
ATOM      4  C   UNL     1      -1.415   1.276  24.573  0.00  0.00    +0.006 C 
ATOM      5  C   UNL     1      -2.148   0.966  24.793  0.00  0.00    +0.005 C 
ATOM      6  C   UNL     1      -2.265   0.149  24.802  0.00  0.00    +0.027 C 
ATOM     18  C   UNL     1      -1.649  -0.359  24.591  0.00  0.00    -0.048 C 
ATOM     19  C   UNL     1      -1.766  -1.175  24.600  0.00  0.00    +0.026 C 
ATOM     20  C   UNL     1      -0.917  -0.049  24.371  0.00  0.00    -0.033 C 
ATOM     21  C   UNL     1      -0.800   0.768  24.362  0.00  0.00    +0.043 C 
ENDROOT
BRANCH   4   2
ATOM      1  C   UNL     1      -1.437   2.521  23.874  0.00  0.00    +0.000 C 
ATOM      2  C   UNL     1      -1.298   2.092  24.564  0.00  0.00    +0.000 C 
ATOM      3  C   UNL     1      -1.041   2.479  25.247  0.00  0.00    +0.000 C 
ENDBRANCH   4   2
BRANCH   6   7
ATOM      7  C   UNL     1      -2.997  -0.161  25.022  0.00  0.00    +0.091 C 
BRANCH   7   8
ATOM      8  C   UNL     1      -3.690   0.142  24.692  0.00  0.00    +0.242 C 
ATOM      9  O   UNL     1      -3.908  -0.070  23.926  0.00  0.00    -0.273 OA
ATOM     10  N   UNL     1      -4.163   0.658  25.129  0.00  0.00    -0.200 NA
BRANCH  10  11
ATOM     11  C   UNL     1      -4.856   0.961  24.799  0.00  0.00    +0.143 C 
BRANCH  11  12
ATOM     12  C   UNL     1      -5.225   1.614  25.142  0.00  0.00    +0.019 A 
ATOM     13  C   UNL     1      -5.064   2.373  24.860  0.00  0.00    +0.001 A 
ATOM     14  C   UNL     1      -5.434   3.026  25.202  0.00  0.00    +0.020 A 
ATOM     15  C   UNL     1      -5.962   2.922  25.826  0.00  0.00    +0.099 A 
ATOM     16  N   UNL     1      -6.123   2.163  26.108  0.00  0.00    -0.243 NA
ATOM     17  C   UNL     1      -5.753   1.509  25.765  0.00  0.00    +0.096 A 
ENDBRANCH  11  12
ENDBRANCH  10  11
ENDBRANCH   7   8
ENDBRANCH   6   7
BRANCH  21  22
ATOM     22  C   UNL     1      -0.068   1.078  24.143  0.00  0.00    +0.119 C 
BRANCH  22  23
ATOM     23  N   UNL     1       0.456   0.622  23.696  0.00  0.00    -0.203 NA
ATOM     24  C   UNL     1       1.222   0.894  23.553  0.00  0.00    +0.272 C 
ATOM     25  O   UNL     1       1.465   1.622  23.856  0.00  0.00    -0.271 OA
BRANCH  24  26
ATOM     26  C   UNL     1       1.745   0.438  23.107  0.00  0.00    +0.229 C 
BRANCH  26  27
ATOM     27  O   UNL     1       2.534   0.667  23.037  0.00  0.00    -0.333 OA
BRANCH  27  28
ATOM     28  C   UNL     1       3.067   0.190  22.623  0.00  0.00    +0.257 C 
BRANCH  28  29
ATOM     29  C   UNL     1       3.861   0.407  22.575  0.00  0.00    +0.394 C 
ATOM     30  O   UNL     1       4.399   0.126  23.134  0.00  0.00    -0.243 OA
ATOM     31  O   UNL     1       4.118   0.903  21.968  0.00  0.00    -0.243 OA
ENDBRANCH  28  29
ENDBRANCH  27  28
ENDBRANCH  26  27
ENDBRANCH  24  26
ENDBRANCH  22  23
ENDBRANCH  21  22
TORSDOF 11
ENDMDL
MODEL 3
REMARK VINA RESULT:      -8.2      1.942      2.841
REMARK  Name = 
REMARK  11 active torsions:
REMARK  status: ('A' for Active; 'I' for Inactive)
REMARK    1  A    between atoms: C_2  and  C_4
REMARK    2  A    between atoms: C_6  and  C_7
REMARK    3  A    between atoms: C_7  and  C_8
REMARK    4  A    between atoms: N_10  and  C_11
REMARK    5  A    between atoms: C_11  and  C_12
REMARK    6  A    between atoms: C_21  and  C_22
REMARK    7  A    between atoms: C_22  and  N_23
REMARK    8  A    between atoms: C_24  and  C_26
REMARK    9  A    between atoms: C_26  and  O_27
REMARK   10  A    between atoms: O_27  and  C_28
REMARK   11  A    between atoms: C_28  and  C_29
REMARK                            x       y       z     vdW  Elec       q    Type
REMARK                         _______ _______ _______ _____ _____    ______ ____
ROOT
ATOM      4  C   UNL     1      -1.318   1.528  24.852  0.00  0.00    +0.006 C 
ATOM      5  C   UNL     1      -2.141   1.511  24.796  0.00  0.00    +0.005 C 
ATOM      6  C   UNL     1      -2.505   1.533  24.057  0.00  0.00    +0.027 C 
ATOM     18  C   UNL     1      -2.047   1.574  23.371  0.00  0.00    -0.048 C 
ATOM     19  C   UNL     1      -2.411   1.596  22.631  0.00  0.00    +0.026 C 
ATOM     20  C   UNL     1      -1.224   1.591  23.427  0.00  0.00    -0.033 C 
ATOM     21  C   UNL     1      -0.859   1.568  24.167  0.00  0.00    +0.043 C 
ENDROOT
BRANCH   4   2
ATOM      1  C   UNL     1      -0.759   2.207  25.977  0.00  0.00    +0.000 C 
ATOM      2  C   UNL     1      -0.953   1.505  25.592  0.00  0.00    +0.000 C 
ATOM      3  C   UNL     1      -0.784   0.779  25.945  0.00  0.00    +0.000 C 
ENDBRANCH   4   2
BRANCH   6   7
ATOM      7  C   UNL     1      -3.328   1.516  24.001  0.00  0.00    +0.091 C 
BRANCH   7   8
ATOM      8  C   UNL     1      -3.760   0.965  24.437  0.00  0.00    +0.242 C 
ATOM      9  O   UNL     1      -4.187   1.208  25.099  0.00  0.00    -0.273 OA
ATOM     10  N   UNL     1      -3.765   0.172  24.210  0.00  0.00    -0.200 NA
BRANCH  10  11
ATOM     11  C   UNL     1      -4.197  -0.379  24.646  0.00  0.00    +0.143 C 
BRANCH  11  12
ATOM     12  C   UNL     1      -4.060  -1.186  24.544  0.00  0.00    +0.019 A 
ATOM     13  C   UNL     1      -3.627  -1.605  25.109  0.00  0.00    +0.001 A 
ATOM     14  C   UNL     1      -3.490  -2.412  25.007  0.00  0.00    +0.020 A 
ATOM     15  C   UNL     1      -3.785  -2.800  24.342  0.00  0.00    +0.099 A 
ATOM     16  N   UNL     1      -4.217  -2.381  23.778  0.00  0.00    -0.243 NA
ATOM     17  C   UNL     1      -4.355  -1.574  23.880  0.00  0.00    +0.096 A 
ENDBRANCH  11  12
ENDBRANCH  10  11
ENDBRANCH   7   8
ENDBRANCH   6   7
BRANCH  21  22
ATOM     22  C   UNL     1      -0.037   1.585  24.223  0.00  0.00    +0.119 C 
BRANCH  22  23
ATOM     23  N   UNL     1       0.420   1.096  23.739  0.00  0.00    -0.203 NA
ATOM     24  C   UNL     1       1.215   1.273  23.607  0.00  0.00    +0.272 C 
ATOM     25  O   UNL     1       1.554   1.938  23.958  0.00  0.00    -0.271 OA
BRANCH  24  26
ATOM     26  C   UNL     1       1.671   0.784  23.124  0.00  0.00    +0.229 C 
BRANCH  26  27
ATOM     27  O   UNL     1       2.491   0.871  23.106  0.00  0.00    -0.333 OA
BRANCH  27  28
ATOM     28  C   UNL     1       2.951   0.354  22.656  0.00  0.00    +0.257 C 
BRANCH  28  29
ATOM     29  C   UNL     1       3.768   0.458  22.617  0.00  0.00    +0.394 C 
ATOM     30  O   UNL     1       4.094   0.951  22.040  0.00  0.00    -0.243 OA
ATOM     31  O   UNL     1       4.260   0.069  23.153  0.00  0.00    -0.243 OA
ENDBRANCH  28  29
ENDBRANCH  27  28
ENDBRANCH  26  27
ENDBRANCH  24  26
ENDBRANCH  22  23
ENDBRANCH  21  22
TORSDOF 11
ENDMDL
MODEL 4
REMARK VINA RESULT:      -8.0      2.018      5.543
REMARK  Name = 
REMARK  11 active torsions:
REMARK  status: ('A' for Active; 'I' for Inactive)
REMARK    1  A    between atoms: C_2  and  C_4
REMARK    2  A    between atoms: C_6  and  C_7
REMARK    3  A    between atoms: C_7  and  C_8
REMARK    4  A    between atoms: N_10  and  C_11
REMARK    5  A    between atoms: C_11  and  C_12
REMARK    6  A    between atoms: C_21  and  C_22
REMARK    7  A    between atoms: C_22  and  N_23
REMARK    8  A    between atoms: C_24  and  C_26
REMARK    9  A    between atoms: C_26  and  O_27
REMARK   10  A    between atoms: O_27  and  C_28
REMARK   11  A    between atoms: C_28  and  C_29
REMARK                            x       y       z     vdW  Elec       q    Type
REMARK                         _______ _______ _______ _____ _____    ______ ____
ROOT
ATOM      4  C   UNL     1      -0.729   1.985  25.193  0.00  0.00    +0.006 C 
ATOM      5  C   UNL     1      -0.450   1.288  24.850  0.00  0.00    +0.005 C 
ATOM      6  C   UNL     1      -0.767   1.023  24.136  0.00  0.00    +0.027 C 
ATOM     18  C   UNL     1      -1.364   1.456  23.764  0.00  0.00    -0.048 C 
ATOM     19  C   UNL     1      -1.682   1.191  23.050  0.00  0.00    +0.026 C 
ATOM     20  C   UNL     1      -1.643   2.152  24.107  0.00  0.00    -0.033 C 
ATOM     21  C   UNL     1      -1.326   2.417  24.821  0.00  0.00    +0.043 C 
ENDROOT
BRANCH   4   2
ATOM      1  C   UNL     1       0.231   2.766  25.906  0.00  0.00    +0.000 C 
ATOM      2  C   UNL     1      -0.412   2.250  25.907  0.00  0.00    +0.000 C 
ATOM      3  C   UNL     1      -0.738   1.998  26.622  0.00  0.00    +0.000 C 
ENDBRANCH   4   2
BRANCH   6   7
ATOM      7  C   UNL     1      -0.488   0.327  23.793  0.00  0.00    +0.091 C 
BRANCH   7   8
ATOM      8  C   UNL     1      -0.527  -0.383  24.210  0.00  0.00    +0.242 C 
ATOM      9  O   UNL     1       0.146  -0.680  24.582  0.00  0.00    -0.273 OA
ATOM     10  N   UNL     1      -1.240  -0.796  24.255  0.00  0.00    -0.200 NA
BRANCH  10  11
ATOM     11  C   UNL     1      -1.280  -1.507  24.672  0.00  0.00    +0.143 C 
BRANCH  11  12
ATOM     12  C   UNL     1      -2.000  -1.902  24.749  0.00  0.00    +0.019 A 
ATOM     13  C   UNL     1      -2.550  -1.650  25.310  0.00  0.00    +0.001 A 
ATOM     14  C   UNL     1      -3.270  -2.045  25.386  0.00  0.00    +0.020 A 
ATOM     15  C   UNL     1      -3.440  -2.690  24.903  0.00  0.00    +0.099 A 
ATOM     16  N   UNL     1      -2.891  -2.942  24.342  0.00  0.00    -0.243 NA
ATOM     17  C   UNL     1      -2.170  -2.547  24.265  0.00  0.00    +0.096 A 
ENDBRANCH  11  12
ENDBRANCH  10  11
ENDBRANCH   7   8
ENDBRANCH   6   7
BRANCH  21  22
ATOM     22  C   UNL     1      -1.605   3.113  25.165  0.00  0.00    +0.119 C 
BRANCH  22  23
ATOM     23  N   UNL     1      -2.406   3.305  25.115  0.00  0.00    -0.203 NA
ATOM     24  C   UNL     1      -2.671   4.044  25.371  0.00  0.00    +0.272 C 
ATOM     25  O   UNL     1      -2.134   4.590  25.677  0.00  0.00    -0.271 OA
BRANCH  24  26
ATOM     26  C   UNL     1      -3.471   4.235  25.321  0.00  0.00    +0.229 C 
BRANCH  26  27
ATOM     27  O   UNL     1      -4.035   3.738  25.663  0.00  0.00    -0.333 OA
BRANCH  27  28
ATOM     28  C   UNL     1      -4.830   3.813  25.455  0.00  0.00    +0.257 C 
BRANCH  28  29
ATOM     29  C   UNL     1      -5.366   3.220  25.659  0.00  0.00    +0.394 C 
ATOM     30  O   UNL     1      -5.686   2.734  25.073  0.00  0.00    -0.243 OA
ATOM     31  O   UNL     1      -5.583   3.113  26.448  0.00  0.00    -0.243 OA
ENDBRANCH  28  29
ENDBRANCH  27  28
ENDBRANCH  26  27
ENDBRANCH  24  26
ENDBRANCH  22  23
ENDBRANCH  21  22
TORSDOF 11
ENDMDL
MODEL 5
REMARK VINA RESULT:      -7.7      1.836      3.122
REMARK  Name = 
REMARK  11 active torsions:
REMARK  status: ('A' for Active; 'I' for Inactive)
REMARK    1  A    between atoms: C_2  and  C_4
REMARK    2  A    between atoms: C_6  and  C_7
REMARK    3  A    between atoms: C_7  and  C_8
REMARK    4  A    between atoms: N_10  and  C_11
REMARK    5  A    between atoms: C_11  and  C_12
REMARK    6  A    between atoms: C_21  and  C_22
REMARK    7  A    between atoms: C_22  and  N_23
REMARK    8  A    between atoms: C_24  and  C_26
REMARK    9  A    between atoms: C_26  and  O_27
REMARK   10  A    between atoms: O_27  and  C_28
REMARK   11  A    between atoms: C_28  and  C_29
REMARK                            x       y       z     vdW  Elec       q    Type
REMARK                         _______ _______ _______ _____ _____    ______ ____
ROOT
ATOM      4  C   UNL     1      -1.142   1.956  24.647  0.00  0.00    +0.006 C 
ATOM      5  C   UNL     1      -1.651   2.575  24.444  0.00  0.00    +0.005 C 
ATOM      6  C   UNL     1      -2.185   2.483  23.822  0.00  0.00    +0.027 C 
ATOM     18  C   UNL     1      -2.211   1.772  23.402  0.00  0.00    -0.048 C 
ATOM     19  C   UNL     1      -2.746   1.681  22.780  0.00  0.00    +0.026 C 
ATOM     20  C   UNL     1      -1.703   1.155  23.605  0.00  0.00    -0.033 C 
ATOM     21  C   UNL     1      -1.169   1.247  24.227  0.00  0.00    +0.043 C 
ENDROOT
BRANCH   4   2
ATOM      1  C   UNL     1      -0.840   1.871  26.040  0.00  0.00    +0.000 C 
ATOM      2  C   UNL     1      -0.608   2.048  25.269  0.00  0.00    +0.000 C 
ATOM      3  C   UNL     1       0.157   2.317  25.118  0.00  0.00    +0.000 C 
ENDBRANCH   4   2
BRANCH   6   7
ATOM      7  C   UNL     1      -2.693   3.100  23.619  0.00  0.00    +0.091 C 
BRANCH   7   8
ATOM      8  C   UNL     1      -3.176   3.443  24.193  0.00  0.00    +0.242 C 
ATOM      9  O   UNL     1      -2.930   4.123  24.587  0.00  0.00    -0.273 OA
ATOM     10  N   UNL     1      -3.907   3.103  24.372  0.00  0.00    -0.200 NA
BRANCH  10  11
ATOM     11  C   UNL     1      -4.391   3.446  24.946  0.00  0.00    +0.143 C 
BRANCH  11  12
ATOM     12  C   UNL     1      -5.005   3.010  25.283  0.00  0.00    +0.019 A 
ATOM     13  C   UNL     1      -5.422   2.465  24.824  0.00  0.00    +0.001 A 
ATOM     14  C   UNL     1      -6.036   2.028  25.161  0.00  0.00    +0.020 A 
ATOM     15  C   UNL     1      -6.233   2.136  25.954  0.00  0.00    +0.099 A 
ATOM     16  N   UNL     1      -5.816   2.681  26.412  0.00  0.00    -0.243 NA
ATOM     17  C   UNL     1      -5.201   3.117  26.076  0.00  0.00    +0.096 A 
ENDBRANCH  11  12
ENDBRANCH  10  11
ENDBRANCH   7   8
ENDBRANCH   6   7
BRANCH  21  22
ATOM     22  C   UNL     1      -0.661   0.629  24.430  0.00  0.00    +0.119 C 
BRANCH  22  23
ATOM     23  N   UNL     1      -0.970  -0.112  24.621  0.00  0.00    -0.203 NA
ATOM     24  C   UNL     1      -0.538  -0.795  24.451  0.00  0.00    +0.272 C 
ATOM     25  O   UNL     1       0.201  -0.737  24.090  0.00  0.00    -0.271 OA
BRANCH  24  26
ATOM     26  C   UNL     1      -0.847  -1.536  24.643  0.00  0.00    +0.229 C 
BRANCH  26  27
ATOM     27  O   UNL     1      -1.636  -1.709  24.473  0.00  0.00    -0.333 OA
BRANCH  27  28
ATOM     28  C   UNL     1      -1.937  -2.460  24.636  0.00  0.00    +0.257 C 
BRANCH  28  29
ATOM     29  C   UNL     1      -2.751  -2.592  24.613  0.00  0.00    +0.394 C 
ATOM     30  O   UNL     1      -3.198  -2.527  25.304  0.00  0.00    -0.243 OA
ATOM     31  O   UNL     1      -3.117  -2.787  23.901  0.00  0.00    -0.243 OA
ENDBRANCH  28  29
ENDBRANCH  27  28
ENDBRANCH  26  27
ENDBRANCH  24  26
ENDBRANCH  22  23
ENDBRANCH  21  22
TORSDOF 11
ENDMDL
MODEL 6
REMARK VINA RESULT:      -7.7      3.035      5.402
REMARK  Name = 
REMARK  11 active torsions:
REMARK  status: ('A' for Active; 'I' for Inactive)
REMARK    1  A    between atoms: C_2  and  C_4
REMARK    2  A    between atoms: C_6  and  C_7
REMARK    3  A    between atoms: C_7  and  C_8
REMARK    4  A    between atoms: N_10  and  C_11
REMARK    5  A    between atoms: C_11  and  C_12
REMARK    6  A    between atoms: C_21  and  C_22
REMARK    7  A    between atoms: C_22  and  N_23
REMARK    8  A    between atoms: C_24  and  C_26
REMARK    9  A    between atoms: C_26  and  O_27
REMARK   10  A    between atoms: O_27  and  C_28
REMARK   11  A    between atoms: C_28  and  C_29
REMARK                            x       y       z     vdW  Elec       q    Type
REMARK                         _______ _______ _______ _____ _____    ______ ____
ROOT
ATOM      4  C   UNL     1      -4.819   1.424  24.814  0.00  0.00    +0.006 C 
ATOM      5  C   UNL     1      -4.720   0.673  24.483  0.00  0.00    +0.005 C 
ATOM      6  C   UNL     1      -4.105   0.534  23.952  0.00  0.00    +0.027 C 
ATOM     18  C   UNL     1      -3.587   1.145  23.751  0.00  0.00    -0.048 C 
ATOM     19  C   UNL     1      -2.971   1.006  23.220  0.00  0.00    +0.026 C 
ATOM     20  C   UNL     1      -3.686   1.895  24.081  0.00  0.00    -0.033 C 
ATOM     21  C   UNL     1      -4.302   2.034  24.612  0.00  0.00    +0.043 C 
ENDROOT
BRANCH   4   2
ATOM      1  C   UNL     1      -6.167   1.820  25.068  0.00  0.00    +0.000 C 
ATOM      2  C   UNL     1      -5.435   1.563  25.345  0.00  0.00    +0.000 C 
ATOM      3  C   UNL     1      -5.317   1.443  26.153  0.00  0.00    +0.000 C 
ENDBRANCH   4   2
BRANCH   6   7
ATOM      7  C   UNL     1      -4.006  -0.215  23.621  0.00  0.00    +0.091 C 
BRANCH   7   8
ATOM      8  C   UNL     1      -3.810  -0.856  24.102  0.00  0.00    +0.242 C 
ATOM      9  O   UNL     1      -4.405  -1.336  24.410  0.00  0.00    -0.273 OA
ATOM     10  N   UNL     1      -3.019  -1.016  24.275  0.00  0.00    -0.200 NA
BRANCH  10  11
ATOM     11  C   UNL     1      -2.824  -1.657  24.756  0.00  0.00    +0.143 C 
BRANCH  11  12
ATOM     12  C   UNL     1      -2.034  -1.817  24.930  0.00  0.00    +0.019 A 
ATOM     13  C   UNL     1      -1.625  -1.338  25.464  0.00  0.00    +0.001 A 
ATOM     14  C   UNL     1      -0.835  -1.498  25.639  0.00  0.00    +0.020 A 
ATOM     15  C   UNL     1      -0.454  -2.135  25.280  0.00  0.00    +0.099 A 
ATOM     16  N   UNL     1      -0.862  -2.613  24.746  0.00  0.00    -0.243 NA
ATOM     17  C   UNL     1      -1.653  -2.454  24.571  0.00  0.00    +0.096 A 
ENDBRANCH  11  12
ENDBRANCH  10  11
ENDBRANCH   7   8
ENDBRANCH   6   7
BRANCH  21  22
ATOM     22  C   UNL     1      -4.401   2.783  24.943  0.00  0.00    +0.119 C 
BRANCH  22  23
ATOM     23  N   UNL     1      -3.751   3.182  25.260  0.00  0.00    -0.203 NA
ATOM     24  C   UNL     1      -3.737   4.008  25.265  0.00  0.00    +0.272 C 
ATOM     25  O   UNL     1      -4.372   4.433  24.953  0.00  0.00    -0.271 OA
BRANCH  24  26
ATOM     26  C   UNL     1      -3.089   4.407  25.581  0.00  0.00    +0.229 C 
BRANCH  26  27
ATOM     27  O   UNL     1      -2.410   4.515  25.125  0.00  0.00    -0.333 OA
BRANCH  27  28
ATOM     28  C   UNL     1      -1.727   4.826  25.470  0.00  0.00    +0.257 C 
BRANCH  28  29
ATOM     29  C   UNL     1      -1.015   4.819  25.053  0.00  0.00    +0.394 C 
ATOM     30  O   UNL     1      -0.721   5.519  24.729  0.00  0.00    -0.243 OA
ATOM     31  O   UNL     1      -0.598   4.114  24.960  0.00  0.00    -0.243 OA
ENDBRANCH  28  29
ENDBRANCH  27  28
ENDBRANCH  26  27
ENDBRANCH  24  26
ENDBRANCH  22  23
ENDBRANCH  21  22
TORSDOF 11
ENDMDL
MODEL 7
REMARK VINA RESULT:      -7.6      1.569      6.768
REMARK  Name = 
REMARK  11 active torsions:
REMARK  status: ('A' for Active; 'I' for Inactive)
REMARK    1  A    between atoms: C_2  and  C_4
REMARK    2  A    between atoms: C_6  and  C_7
REMARK    3  A    between atoms: C_7  and  C_8
REMARK    4  A    between atoms: N_10  and  C_11
REMARK    5  A    between atoms: C_11  and  C_12
REMARK    6  A    between atoms: C_21  and  C_22
REMARK    7  A    between atoms: C_22  and  N_23
REMARK    8  A    between atoms: C_24  and  C_26
REMARK    9  A    between atoms: C_26  and  O_27
REMARK   10  A    between atoms: O_27  and  C_28
REMARK   11  A    between atoms: C_28  and  C_29
REMARK                            x       y       z     vdW  Elec       q    Type
REMARK                         _______ _______ _______ _____ _____    ______ ____
ROOT
ATOM      4  C   UNL     1      -0.429   1.673  24.498  0.00  0.00    +0.006 C 
ATOM      5  C   UNL     1       0.099   1.090  24.244  0.00  0.00    +0.005 C 
ATOM      6  C   UNL     1      -0.177   0.333  24.065  0.00  0.00    +0.027 C 
ATOM     18  C   UNL     1      -0.980   0.158  24.141  0.00  0.00    -0.048 C 
ATOM     19  C   UNL     1      -1.256  -0.599  23.962  0.00  0.00    +0.026 C 
ATOM     20  C   UNL     1      -1.507   0.740  24.395  0.00  0.00    -0.033 C 
ATOM     21  C   UNL     1      -1.231   1.497  24.573  0.00  0.00    +0.043 C 
ENDROOT
BRANCH   4   2
ATOM      1  C   UNL     1       0.111   2.603  25.438  0.00  0.00    +0.000 C 
ATOM      2  C   UNL     1      -0.153   2.429  24.676  0.00  0.00    +0.000 C 
ATOM      3  C   UNL     1      -0.143   3.012  24.092  0.00  0.00    +0.000 C 
ENDBRANCH   4   2
BRANCH   6   7
ATOM      7  C   UNL     1       0.350  -0.249  23.812  0.00  0.00    +0.091 C 
BRANCH   7   8
ATOM      8  C   UNL     1       0.853  -0.101  23.175  0.00  0.00    +0.242 C 
ATOM      9  O   UNL     1       0.541   0.004  22.419  0.00  0.00    -0.273 OA
ATOM     10  N   UNL     1       1.668  -0.058  23.295  0.00  0.00    -0.200 NA
BRANCH  10  11
ATOM     11  C   UNL     1       2.171   0.089  22.658  0.00  0.00    +0.143 C 
BRANCH  11  12
ATOM     12  C   UNL     1       2.979   0.199  22.786  0.00  0.00    +0.019 A 
ATOM     13  C   UNL     1       3.326   0.930  22.623  0.00  0.00    +0.001 A 
ATOM     14  C   UNL     1       4.133   1.040  22.751  0.00  0.00    +0.020 A 
ATOM     15  C   UNL     1       4.593   0.421  23.042  0.00  0.00    +0.099 A 
ATOM     16  N   UNL     1       4.246  -0.309  23.205  0.00  0.00    -0.243 NA
ATOM     17  C   UNL     1       3.438  -0.420  23.077  0.00  0.00    +0.096 A 
ENDBRANCH  11  12
ENDBRANCH  10  11
ENDBRANCH   7   8
ENDBRANCH   6   7
BRANCH  21  22
ATOM     22  C   UNL     1      -1.758   2.079  24.827  0.00  0.00    +0.119 C 
BRANCH  22  23
ATOM     23  N   UNL     1      -2.558   2.023  24.632  0.00  0.00    -0.203 NA
ATOM     24  C   UNL     1      -3.102   2.547  24.968  0.00  0.00    +0.272 C 
ATOM     25  O   UNL     1      -2.845   3.125  25.497  0.00  0.00    -0.271 OA
BRANCH  24  26
ATOM     26  C   UNL     1      -3.901   2.492  24.773  0.00  0.00    +0.229 C 
BRANCH  26  27
ATOM     27  O   UNL     1      -4.472   2.524  25.367  0.00  0.00    -0.333 OA
BRANCH  27  28
ATOM     28  C   UNL     1      -5.271   2.593  25.167  0.00  0.00    +0.257 C 
BRANCH  28  29
ATOM     29  C   UNL     1      -5.850   2.325  25.690  0.00  0.00    +0.394 C 
ATOM     30  O   UNL     1      -6.338   1.695  25.476  0.00  0.00    -0.243 OA
ATOM     31  O   UNL     1      -5.942   2.687  26.425  0.00  0.00    -0.243 OA
ENDBRANCH  28  29
ENDBRANCH  27  28
ENDBRANCH  26  27
ENDBRANCH  24  26
ENDBRANCH  22  23
ENDBRANCH  21  22
TORSDOF 11
ENDMDL
