MODEL 1
REMARK VINA RESULT:     -15.9      0.000      0.000
REMARK  Name = 
REMARK  5 active torsions:
REMARK  status: ('A' for Active; 'I' for Inactive)
REMARK    1  A    between atoms: C_5  and  C_6
REMARK    2  A    between atoms: C_7  and  C_8
REMARK    3  A    between atoms: N_16  and  C_17
REMARK    4  A    between atoms: C_17  and  C_18
REMARK    5  A    between atoms: C_22  and  C_24
REMARK                            x       y       z     vdW  Elec       q    Type
REMARK                         _______ _______ _______ _____ _____    ______ ____
ROOT
ATOM      8  C   UNL     1      -4.132   1.030  24.895  0.00  0.00    +0.056 A 
ATOM      9  C   UNL     1      -4.940   1.151  25.010  0.00  0.00    +0.006 A 
ATOM     10  C   UNL     1      -5.229   1.912  25.146  0.00  0.00    +0.013 A 
ATOM     11  C   UNL     1      -4.709   2.552  25.169  0.00  0.00    +0.041 A 
ATOM     12  C   UNL     1      -4.703   3.463  25.290  0.00  0.00    +0.054 C 
ATOM     13  C   UNL     1      -5.132   4.004  25.414  0.00  0.00    +0.011 C 
ATOM     14  C   UNL     1      -4.335   3.881  25.301  0.00  0.00    +0.039 C 
ATOM     15  C   UNL     1      -3.354   3.936  25.189  0.00  0.00    +0.074 C 
ATOM     16  N   UNL     1      -3.182   3.129  25.061  0.00  0.00    -0.269 NA
ATOM     26  C   UNL     1      -3.756   3.532  25.184  0.00  0.00    +0.078 C 
ATOM     27  C   UNL     1      -4.331   2.930  25.173  0.00  0.00    +0.110 C 
ATOM     28  N   UNL     1      -3.900   2.431  25.054  0.00  0.00    -0.299 N 
ATOM     29  C   UNL     1      -3.612   1.670  24.918  0.00  0.00    +0.261 A 
ATOM     30  O   UNL     1      -2.804   1.549  24.804  0.00  0.00    -0.267 OA
ENDROOT
BRANCH   8   7
ATOM      6  C   UNL     1      -4.346  -0.381  24.838  0.00  0.00    +0.000 C 
ATOM      7  C   UNL     1      -3.845   0.269  24.759  0.00  0.00    +0.005 C 
BRANCH   6   5
ATOM      1 CL   UNL     1      -3.199  -3.427  24.294  0.00  0.00    -0.082 Cl
ATOM      2  C   UNL     1      -3.486  -2.665  24.430  0.00  0.00    +0.058 A 
ATOM      3  C   UNL     1      -3.296  -2.272  25.129  0.00  0.00    +0.011 A 
ATOM      4  C   UNL     1      -3.583  -1.510  25.265  0.00  0.00    +0.001 A 
ATOM      5  C   UNL     1      -4.060  -1.142  24.702  0.00  0.00    +0.000 A 
ATOM     31  C   UNL     1      -4.250  -1.536  24.002  0.00  0.00    +0.001 A 
ATOM     32  C   UNL     1      -3.964  -2.297  23.866  0.00  0.00    +0.011 A 
ENDBRANCH   6   5
ENDBRANCH   8   7
BRANCH  16  17
ATOM     17  C   UNL     1      -2.735   2.451  24.916  0.00  0.00    +0.099 C 
BRANCH  17  18
ATOM     18  C   UNL     1      -1.919   2.510  24.810  0.00  0.00    -0.005 A 
ATOM     19  C   UNL     1      -1.606   2.592  24.051  0.00  0.00    -0.003 A 
ATOM     20  C   UNL     1      -0.790   2.651  23.945  0.00  0.00    +0.000 A 
ATOM     21  C   UNL     1      -0.287   2.629  24.598  0.00  0.00    +0.010 A 
ATOM     22  C   UNL     1      -0.599   2.548  25.357  0.00  0.00    +0.068 A 
ATOM     23  C   UNL     1      -1.415   2.488  25.463  0.00  0.00    +0.007 A 
BRANCH  22  24
ATOM     24  C   UNL     1      -0.096   2.526  26.010  0.00  0.00    +0.100 C 
ATOM     25  N   UNL     1       0.407   2.505  26.664  0.00  0.00    -0.191 NA
ENDBRANCH  22  24
ENDBRANCH  17  18
ENDBRANCH  16  17
TORSDOF 5
ENDMDL
MODEL 2
REMARK VINA RESULT:     -14.4      1.173      3.026
REMARK  Name = 
REMARK  5 active torsions:
REMARK  status: ('A' for Active; 'I' for Inactive)
REMARK    1  A    between atoms: C_5  and  C_6
REMARK    2  A    between atoms: C_7  and  C_8
REMARK    3  A    between atoms: N_16  and  C_17
REMARK    4  A    between atoms: C_17  and  C_18
REMARK    5  A    between atoms: C_22  and  C_24
REMARK                            x       y       z     vdW  Elec       q    Type
REMARK                         _______ _______ _______ _____ _____    ______ ____
ROOT
ATOM      8  C   UNL     1      -1.832   0.431  24.990  0.00  0.00    +0.056 A 
ATOM      9  C   UNL     1      -1.116   0.172  25.307  0.00  0.00    +0.006 A 
ATOM     10  C   UNL     1      -0.591   0.715  25.640  0.00  0.00    +0.013 A 
ATOM     11  C   UNL     1      -0.783   1.517  25.656  0.00  0.00    +0.041 A 
ATOM     12  C   UNL     1      -0.447   2.326  25.933  0.00  0.00    +0.054 C 
ATOM     13  C   UNL     1       0.113   2.611  26.247  0.00  0.00    +0.011 C 
ATOM     14  C   UNL     1      -0.596   2.863  25.934  0.00  0.00    +0.039 C 
ATOM     15  C   UNL     1      -1.389   3.356  25.611  0.00  0.00    +0.074 C 
ATOM     16  N   UNL     1      -1.834   2.719  25.304  0.00  0.00    -0.269 NA
ATOM     26  C   UNL     1      -1.206   2.816  25.626  0.00  0.00    +0.078 C 
ATOM     27  C   UNL     1      -0.955   2.023  25.641  0.00  0.00    +0.110 C 
ATOM     28  N   UNL     1      -1.500   1.776  25.339  0.00  0.00    -0.299 N 
ATOM     29  C   UNL     1      -2.024   1.233  25.006  0.00  0.00    +0.261 A 
ATOM     30  O   UNL     1      -2.740   1.493  24.689  0.00  0.00    -0.267 OA
ENDROOT
BRANCH   8   7
ATOM      6  C   UNL     1      -2.492  -0.835  25.031  0.00  0.00    +0.000 C 
ATOM      7  C   UNL     1      -2.356  -0.112  24.657  0.00  0.00    +0.005 C 
BRANCH   6   5
ATOM      1 CL   UNL     1      -4.586  -3.012  23.702  0.00  0.00    -0.082 Cl
ATOM      2  C   UNL     1      -4.062  -2.467  24.035  0.00  0.00    +0.058 A 
ATOM      3  C   UNL     1      -3.380  -2.731  24.413  0.00  0.00    +0.011 A 
ATOM      4  C   UNL     1      -2.856  -2.187  24.746  0.00  0.00    +0.001 A 
ATOM      5  C   UNL     1      -3.016  -1.379  24.698  0.00  0.00    +0.000 A 
ATOM     31  C   UNL     1      -3.699  -1.115  24.319  0.00  0.00    +0.001 A 
ATOM     32  C   UNL     1      -4.223  -1.659  23.987  0.00  0.00    +0.011 A 
ENDBRANCH   6   5
ENDBRANCH   8   7
BRANCH  16  17
ATOM     17  C   UNL     1      -2.460   2.322  24.941  0.00  0.00    +0.099 C 
BRANCH  17  18
ATOM     18  C   UNL     1      -3.125   2.741  24.691  0.00  0.00    -0.005 A 
ATOM     19  C   UNL     1      -3.152   3.055  23.929  0.00  0.00    -0.003 A 
ATOM     20  C   UNL     1      -3.818   3.475  23.679  0.00  0.00    +0.000 A 
ATOM     21  C   UNL     1      -4.455   3.580  24.191  0.00  0.00    +0.010 A 
ATOM     22  C   UNL     1      -4.428   3.266  24.953  0.00  0.00    +0.068 A 
ATOM     23  C   UNL     1      -3.763   2.847  25.204  0.00  0.00    +0.007 A 
BRANCH  22  24
ATOM     24  C   UNL     1      -5.066   3.371  25.466  0.00  0.00    +0.100 C 
ATOM     25  N   UNL     1      -5.704   3.476  25.979  0.00  0.00    -0.191 NA
ENDBRANCH  22  24
ENDBRANCH  17  18
ENDBRANCH  16  17
TORSDOF 5
ENDMDL
MODEL 3
REMARK VINA RESULT:     -13.6      1.815      3.439
REMARK  Name = 
REMARK  5 active torsions:
REMARK  status: ('A' for Active; 'I' for Inactive)
REMARK    1  A    between atoms: C_5  and  C_6
REMARK    2  A    between atoms: C_7  and  C_8
REMARK    3  A    between atoms: N_16  and  C_17
REMARK    4  A    between atoms: C_17  and  C_18
REMARK    5  A    between atoms: C_22  and  C_24
REMARK                            x       y       z     vdW  Elec       q    Type
REMARK                         _______ _______ _______ _____ _____    ______ ____
ROOT
ATOM      8  C   UNL     1      -1.198   2.000  25.149  0.00  0.00    +0.056 A 
ATOM      9  C   UNL     1      -0.440   2.312  25.239  0.00  0.00    +0.006 A 
ATOM     10  C   UNL     1      -0.328   3.129  25.254  0.00  0.00    +0.013 A 
ATOM     11  C   UNL     1      -0.976   3.634  25.180  0.00  0.00    +0.041 A 
ATOM     12  C   UNL     1      -1.184   4.529  25.158  0.00  0.00    +0.054 C 
ATOM     13  C   UNL     1      -0.888   5.164  25.194  0.00  0.00    +0.011 C 
ATOM     14  C   UNL     1      -1.635   4.853  25.106  0.00  0.00    +0.039 C 
ATOM     15  C   UNL     1      -2.600   4.673  24.994  0.00  0.00    +0.074 C 
ATOM     16  N   UNL     1      -2.588   3.837  24.993  0.00  0.00    -0.269 NA
ATOM     26  C   UNL     1      -2.120   4.371  25.049  0.00  0.00    +0.078 C 
ATOM     27  C   UNL     1      -1.428   3.916  25.128  0.00  0.00    +0.110 C 
ATOM     28  N   UNL     1      -1.735   3.322  25.091  0.00  0.00    -0.299 N 
ATOM     29  C   UNL     1      -1.846   2.505  25.075  0.00  0.00    +0.261 A 
ATOM     30  O   UNL     1      -2.604   2.193  24.986  0.00  0.00    -0.267 OA
ENDROOT
BRANCH   8   7
ATOM      6  C   UNL     1      -0.657   0.680  25.074  0.00  0.00    +0.000 C 
ATOM      7  C   UNL     1      -1.308   1.182  25.134  0.00  0.00    +0.005 C 
BRANCH   6   5
ATOM      1 CL   UNL     1      -1.093  -2.591  25.012  0.00  0.00    -0.082 Cl
ATOM      2  C   UNL     1      -0.984  -1.772  25.027  0.00  0.00    +0.058 A 
ATOM      3  C   UNL     1      -0.690  -1.384  24.363  0.00  0.00    +0.011 A 
ATOM      4  C   UNL     1      -0.580  -0.565  24.378  0.00  0.00    +0.001 A 
ATOM      5  C   UNL     1      -0.766  -0.138  25.058  0.00  0.00    +0.000 A 
ATOM     31  C   UNL     1      -1.060  -0.527  25.723  0.00  0.00    +0.001 A 
ATOM     32  C   UNL     1      -1.169  -1.345  25.708  0.00  0.00    +0.011 A 
ENDBRANCH   6   5
ENDBRANCH   8   7
BRANCH  16  17
ATOM     17  C   UNL     1      -2.872   3.063  24.957  0.00  0.00    +0.099 C 
BRANCH  17  18
ATOM     18  C   UNL     1      -3.674   2.924  24.822  0.00  0.00    -0.005 A 
ATOM     19  C   UNL     1      -3.953   2.835  24.052  0.00  0.00    -0.003 A 
ATOM     20  C   UNL     1      -4.756   2.696  23.917  0.00  0.00    +0.000 A 
ATOM     21  C   UNL     1      -5.278   2.647  24.553  0.00  0.00    +0.010 A 
ATOM     22  C   UNL     1      -4.999   2.736  25.324  0.00  0.00    +0.068 A 
ATOM     23  C   UNL     1      -4.197   2.875  25.459  0.00  0.00    +0.007 A 
BRANCH  22  24
ATOM     24  C   UNL     1      -5.521   2.687  25.961  0.00  0.00    +0.100 C 
ATOM     25  N   UNL     1      -6.044   2.638  26.598  0.00  0.00    -0.191 NA
ENDBRANCH  22  24
ENDBRANCH  17  18
ENDBRANCH  16  17
TORSDOF 5
ENDMDL
MODEL 4
REMARK VINA RESULT:     -13.5      2.055      4.055
REMARK  Name = 
REMARK  5 active torsions:
REMARK  status: ('A' for Active; 'I' for Inactive)
REMARK    1  A    between atoms: C_5  and  C_6
REMARK    2  A    between atoms: C_7  and  C_8
REMARK    3  A    between atoms: N_16  and  C_17
REMARK    4  A    between atoms: C_17  and  C_18
REMARK    5  A    between atoms: C_22  and  C_24
REMARK                            x       y       z     vdW  Elec       q    Type
REMARK                         _______ _______ _______ _____ _____    ______ ____
ROOT
ATOM      8  C   UNL     1      -3.663   0.121  24.724  0.00  0.00    +0.056 A 
ATOM      9  C   UNL     1      -4.155  -0.541  24.722  0.00  0.00    +0.006 A 
ATOM     10  C   UNL     1      -3.829  -1.297  24.681  0.00  0.00    +0.013 A 
ATOM     11  C   UNL     1      -3.010  -1.392  24.643  0.00  0.00    +0.041 A 
ATOM     12  C   UNL     1      -2.369  -2.048  24.592  0.00  0.00    +0.054 C 
ATOM     13  C   UNL     1      -2.297  -2.746  24.565  0.00  0.00    +0.011 C 
ATOM     14  C   UNL     1      -1.814  -2.090  24.567  0.00  0.00    +0.039 C 
ATOM     15  C   UNL     1      -1.076  -1.433  24.558  0.00  0.00    +0.074 C 
ATOM     16  N   UNL     1      -1.517  -0.725  24.601  0.00  0.00    -0.269 NA
ATOM     26  C   UNL     1      -1.645  -1.426  24.583  0.00  0.00    +0.078 C 
ATOM     27  C   UNL     1      -2.476  -1.397  24.619  0.00  0.00    +0.110 C 
ATOM     28  N   UNL     1      -2.518  -0.730  24.645  0.00  0.00    -0.299 N 
ATOM     29  C   UNL     1      -2.844   0.027  24.685  0.00  0.00    +0.261 A 
ATOM     30  O   UNL     1      -2.352   0.689  24.687  0.00  0.00    -0.267 OA
ENDROOT
BRANCH   8   7
ATOM      6  C   UNL     1      -4.602   1.034  25.295  0.00  0.00    +0.000 C 
ATOM      7  C   UNL     1      -3.989   0.877  24.764  0.00  0.00    +0.005 C 
BRANCH   6   5
ATOM      1 CL   UNL     1      -5.911   4.058  25.460  0.00  0.00    -0.082 Cl
ATOM      2  C   UNL     1      -5.584   3.301  25.418  0.00  0.00    +0.058 A 
ATOM      3  C   UNL     1      -4.765   3.208  25.398  0.00  0.00    +0.011 A 
ATOM      4  C   UNL     1      -4.438   2.451  25.357  0.00  0.00    +0.001 A 
ATOM      5  C   UNL     1      -4.929   1.789  25.336  0.00  0.00    +0.000 A 
ATOM     31  C   UNL     1      -5.749   1.884  25.356  0.00  0.00    +0.001 A 
ATOM     32  C   UNL     1      -6.077   2.640  25.397  0.00  0.00    +0.011 A 
ENDBRANCH   6   5
ENDBRANCH   8   7
BRANCH  16  17
ATOM     17  C   UNL     1      -1.672   0.085  24.636  0.00  0.00    +0.099 C 
BRANCH  17  18
ATOM     18  C   UNL     1      -1.050   0.625  24.606  0.00  0.00    -0.005 A 
ATOM     19  C   UNL     1      -0.617   0.717  23.910  0.00  0.00    -0.003 A 
ATOM     20  C   UNL     1       0.006   1.258  23.879  0.00  0.00    +0.000 A 
ATOM     21  C   UNL     1       0.195   1.706  24.546  0.00  0.00    +0.010 A 
ATOM     22  C   UNL     1      -0.237   1.614  25.241  0.00  0.00    +0.068 A 
ATOM     23  C   UNL     1      -0.860   1.073  25.272  0.00  0.00    +0.007 A 
BRANCH  22  24
ATOM     24  C   UNL     1      -0.047   2.062  25.908  0.00  0.00    +0.100 C 
ATOM     25  N   UNL     1       0.142   2.510  26.575  0.00  0.00    -0.191 NA
ENDBRANCH  22  24
ENDBRANCH  17  18
ENDBRANCH  16  17
TORSDOF 5
ENDMDL
MODEL 5
REMARK VINA RESULT:     -13.4      2.496      4.558
REMARK  Name = 
REMARK  5 active torsions:
REMARK  status: ('A' for Active; 'I' for Inactive)
REMARK    1  A    between atoms: C_5  and  C_6
REMARK    2  A    between atoms: C_7  and  C_8
REMARK    3  A    between atoms: N_16  and  C_17
REMARK    4  A    between atoms: C_17  and  C_18
REMARK    5  A    between atoms: C_22  and  C_24
REMARK                            x       y       z     vdW  Elec       q    Type
REMARK                         _______ _______ _______ _____ _____    ______ ____
ROOT
ATOM      8  C   UNL     1      -3.557   0.635  24.757  0.00  0.00    +0.056 A 
ATOM      9  C   UNL     1      -4.364   0.596  24.593  0.00  0.00    +0.006 A 
ATOM     10  C   UNL     1      -4.704  -0.119  24.361  0.00  0.00    +0.013 A 
ATOM     11  C   UNL     1      -4.236  -0.795  24.293  0.00  0.00    +0.041 A 
ATOM     12  C   UNL     1      -4.295  -1.686  24.074  0.00  0.00    +0.054 C 
ATOM     13  C   UNL     1      -4.758  -2.173  23.871  0.00  0.00    +0.011 C 
ATOM     14  C   UNL     1      -3.961  -2.130  24.035  0.00  0.00    +0.039 C 
ATOM     15  C   UNL     1      -2.996  -2.279  24.186  0.00  0.00    +0.074 C 
ATOM     16  N   UNL     1      -2.768  -1.507  24.410  0.00  0.00    -0.269 NA
ATOM     26  C   UNL     1      -3.364  -1.846  24.216  0.00  0.00    +0.078 C 
ATOM     27  C   UNL     1      -3.889  -1.201  24.265  0.00  0.00    +0.110 C 
ATOM     28  N   UNL     1      -3.428  -0.755  24.458  0.00  0.00    -0.299 N 
ATOM     29  C   UNL     1      -3.089  -0.040  24.690  0.00  0.00    +0.261 A 
ATOM     30  O   UNL     1      -2.281  -0.001  24.855  0.00  0.00    -0.267 OA
ENDROOT
BRANCH   8   7
ATOM      6  C   UNL     1      -3.533   2.063  24.716  0.00  0.00    +0.000 C 
ATOM      7  C   UNL     1      -3.219   1.351  24.989  0.00  0.00    +0.005 C 
BRANCH   6   5
ATOM      1 CL   UNL     1      -2.180   4.928  25.642  0.00  0.00    -0.082 Cl
ATOM      2  C   UNL     1      -2.519   4.211  25.410  0.00  0.00    +0.058 A 
ATOM      3  C   UNL     1      -2.151   3.749  24.835  0.00  0.00    +0.011 A 
ATOM      4  C   UNL     1      -2.490   3.032  24.604  0.00  0.00    +0.001 A 
ATOM      5  C   UNL     1      -3.195   2.779  24.948  0.00  0.00    +0.000 A 
ATOM     31  C   UNL     1      -3.563   3.242  25.523  0.00  0.00    +0.001 A 
ATOM     32  C   UNL     1      -3.225   3.958  25.755  0.00  0.00    +0.011 A 
ENDBRANCH   6   5
ENDBRANCH   8   7
BRANCH  16  17
ATOM     17  C   UNL     1      -2.277  -0.888  24.649  0.00  0.00    +0.099 C 
BRANCH  17  18
ATOM     18  C   UNL     1      -1.463  -1.006  24.706  0.00  0.00    -0.005 A 
ATOM     19  C   UNL     1      -1.152  -1.439  25.335  0.00  0.00    -0.003 A 
ATOM     20  C   UNL     1      -0.337  -1.558  25.393  0.00  0.00    +0.000 A 
ATOM     21  C   UNL     1       0.166  -1.243  24.820  0.00  0.00    +0.010 A 
ATOM     22  C   UNL     1      -0.144  -0.810  24.191  0.00  0.00    +0.068 A 
ATOM     23  C   UNL     1      -0.959  -0.692  24.133  0.00  0.00    +0.007 A 
BRANCH  22  24
ATOM     24  C   UNL     1       0.359  -0.495  23.618  0.00  0.00    +0.100 C 
ATOM     25  N   UNL     1       0.862  -0.180  23.044  0.00  0.00    -0.191 NA
ENDBRANCH  22  24
ENDBRANCH  17  18
ENDBRANCH  16  17
TORSDOF 5
ENDMDL
MODEL 6
REMARK VINA RESULT:     -13.0      2.438      5.048
REMARK  Name = 
REMARK  5 active torsions:
REMARK  status: ('A' for Active; 'I' for Inactive)
REMARK    1  A    between atoms: C_5  and  C_6
REMARK    2  A    between atoms: C_7  and  C_8
REMARK    3  A    between atoms: N_16  and  C_17
REMARK    4  A    between atoms: C_17  and  C_18
REMARK    5  A    between atoms: C_22  and  C_24
REMARK                            x       y       z     vdW  Elec       q    Type
REMARK                         _______ _______ _______ _____ _____    ______ ____
ROOT
ATOM      8  C   UNL     1      -1.987   1.622  24.630  0.00  0.00    +0.056 A 
ATOM      9  C   UNL     1      -1.384   2.092  24.320  0.00  0.00    +0.006 A 
ATOM     10  C   UNL     1      -0.692   1.743  24.037  0.00  0.00    +0.013 A 
ATOM     11  C   UNL     1      -0.604   0.923  24.065  0.00  0.00    +0.041 A 
ATOM     12  C   UNL     1      -0.003   0.263  23.848  0.00  0.00    +0.054 C 
ATOM     13  C   UNL     1       0.634   0.168  23.569  0.00  0.00    +0.011 C 
ATOM     14  C   UNL     1       0.037  -0.293  23.875  0.00  0.00    +0.039 C 
ATOM     15  C   UNL     1      -0.561  -1.008  24.203  0.00  0.00    +0.074 C 
ATOM     16  N   UNL     1      -1.208  -0.545  24.457  0.00  0.00    -0.269 NA
ATOM     26  C   UNL     1      -0.569  -0.440  24.160  0.00  0.00    +0.078 C 
ATOM     27  C   UNL     1      -0.597   0.390  24.105  0.00  0.00    +0.110 C 
ATOM     28  N   UNL     1      -1.207   0.453  24.375  0.00  0.00    -0.299 N 
ATOM     29  C   UNL     1      -1.899   0.803  24.658  0.00  0.00    +0.261 A 
ATOM     30  O   UNL     1      -2.502   0.332  24.968  0.00  0.00    -0.267 OA
ENDROOT
BRANCH   8   7
ATOM      6  C   UNL     1      -2.990   2.634  24.532  0.00  0.00    +0.000 C 
ATOM      7  C   UNL     1      -2.678   1.972  24.913  0.00  0.00    +0.005 C 
BRANCH   6   5
ATOM      1 CL   UNL     1      -5.756   4.037  25.660  0.00  0.00    -0.082 Cl
ATOM      2  C   UNL     1      -5.064   3.686  25.377  0.00  0.00    +0.058 A 
ATOM      3  C   UNL     1      -5.108   3.067  24.835  0.00  0.00    +0.011 A 
ATOM      4  C   UNL     1      -4.416   2.716  24.553  0.00  0.00    +0.001 A 
ATOM      5  C   UNL     1      -3.681   2.985  24.814  0.00  0.00    +0.000 A 
ATOM     31  C   UNL     1      -3.638   3.605  25.357  0.00  0.00    +0.001 A 
ATOM     32  C   UNL     1      -4.329   3.956  25.639  0.00  0.00    +0.011 A 
ENDBRANCH   6   5
ENDBRANCH   8   7
BRANCH  16  17
ATOM     17  C   UNL     1      -1.948  -0.365  24.775  0.00  0.00    +0.099 C 
BRANCH  17  18
ATOM     18  C   UNL     1      -2.456  -0.972  25.006  0.00  0.00    -0.005 A 
ATOM     19  C   UNL     1      -2.466  -1.227  25.790  0.00  0.00    -0.003 A 
ATOM     20  C   UNL     1      -2.975  -1.834  26.021  0.00  0.00    +0.000 A 
ATOM     21  C   UNL     1      -3.473  -2.187  25.466  0.00  0.00    +0.010 A 
ATOM     22  C   UNL     1      -3.464  -1.933  24.682  0.00  0.00    +0.068 A 
ATOM     23  C   UNL     1      -2.955  -1.325  24.451  0.00  0.00    +0.007 A 
BRANCH  22  24
ATOM     24  C   UNL     1      -3.962  -2.285  24.127  0.00  0.00    +0.100 C 
ATOM     25  N   UNL     1      -4.460  -2.638  23.571  0.00  0.00    -0.191 NA
ENDBRANCH  22  24
ENDBRANCH  17  18
ENDBRANCH  16  17
TORSDOF 5
ENDMDL
MODEL 7
REMARK VINA RESULT:     -12.7      1.764      4.146
REMARK  Name = 
REMARK  5 active torsions:
REMARK  status: ('A' for Active; 'I' for Inactive)
REMARK    1  A    between atoms: C_5  and  C_6
REMARK    2  A    between atoms: C_7  and  C_8
REMARK    3  A    between atoms: N_16  and  C_17
REMARK    4  A    between atoms: C_17  and  C_18
REMARK    5  A    between atoms: C_22  and  C_24
REMARK                            x       y       z     vdW  Elec       q    Type
REMARK                         _______ _______ _______ _____ _____    ______ ____
ROOT
ATOM      8  C   UNL     1      -2.881   2.047  24.382  0.00  0.00    +0.056 A 
ATOM      9  C   UNL     1      -3.130   2.834  24.373  0.00  0.00    +0.006 A 
ATOM     10  C   UNL     1      -3.901   3.026  24.598  0.00  0.00    +0.013 A 
ATOM     11  C   UNL     1      -4.422   2.431  24.831  0.00  0.00    +0.041 A 
ATOM     12  C   UNL     1      -5.286   2.312  25.121  0.00  0.00    +0.054 C 
ATOM     13  C   UNL     1      -5.871   2.671  25.268  0.00  0.00    +0.011 C 
ATOM     14  C   UNL     1      -5.622   1.895  25.275  0.00  0.00    +0.039 C 
ATOM     15  C   UNL     1      -5.512   0.916  25.350  0.00  0.00    +0.074 C 
ATOM     16  N   UNL     1      -4.716   0.846  25.104  0.00  0.00    -0.269 NA
ATOM     26  C   UNL     1      -5.195   1.365  25.198  0.00  0.00    +0.078 C 
ATOM     27  C   UNL     1      -4.718   2.009  24.973  0.00  0.00    +0.110 C 
ATOM     28  N   UNL     1      -4.173   1.644  24.840  0.00  0.00    -0.299 N 
ATOM     29  C   UNL     1      -3.403   1.452  24.616  0.00  0.00    +0.261 A 
ATOM     30  O   UNL     1      -3.154   0.666  24.625  0.00  0.00    -0.267 OA
ENDROOT
BRANCH   8   7
ATOM      6  C   UNL     1      -1.471   2.177  24.568  0.00  0.00    +0.000 C 
ATOM      7  C   UNL     1      -2.111   1.857  24.157  0.00  0.00    +0.005 C 
BRANCH   6   5
ATOM      1 CL   UNL     1       1.612   1.414  23.671  0.00  0.00    -0.082 Cl
ATOM      2  C   UNL     1       0.841   1.605  23.896  0.00  0.00    +0.058 A 
ATOM      3  C   UNL     1       0.254   1.027  23.883  0.00  0.00    +0.011 A 
ATOM      4  C   UNL     1      -0.518   1.218  24.108  0.00  0.00    +0.001 A 
ATOM      5  C   UNL     1      -0.700   1.986  24.344  0.00  0.00    +0.000 A 
ATOM     31  C   UNL     1      -0.112   2.565  24.356  0.00  0.00    +0.001 A 
ATOM     32  C   UNL     1       0.659   2.375  24.132  0.00  0.00    +0.011 A 
ENDBRANCH   6   5
ENDBRANCH   8   7
BRANCH  16  17
ATOM     17  C   UNL     1      -3.998   0.486  24.915  0.00  0.00    +0.099 C 
BRANCH  17  18
ATOM     18  C   UNL     1      -3.904  -0.327  25.022  0.00  0.00    -0.005 A 
ATOM     19  C   UNL     1      -3.617  -0.618  25.738  0.00  0.00    -0.003 A 
ATOM     20  C   UNL     1      -3.522  -1.432  25.844  0.00  0.00    +0.000 A 
ATOM     21  C   UNL     1      -3.715  -1.952  25.234  0.00  0.00    +0.010 A 
ATOM     22  C   UNL     1      -4.001  -1.661  24.518  0.00  0.00    +0.068 A 
ATOM     23  C   UNL     1      -4.096  -0.848  24.412  0.00  0.00    +0.007 A 
BRANCH  22  24
ATOM     24  C   UNL     1      -4.194  -2.182  23.908  0.00  0.00    +0.100 C 
ATOM     25  N   UNL     1      -4.387  -2.702  23.297  0.00  0.00    -0.191 NA
ENDBRANCH  22  24
ENDBRANCH  17  18
ENDBRANCH  16  17
TORSDOF 5
ENDMDL
MODEL 8
REMARK VINA RESULT:     -12.4      2.312      5.074
REMARK  Name = 
REMARK  5 active torsions:
REMARK  status: ('A' for Active; 'I' for Inactive)
REMARK    1  A    between atoms: C_5  and  C_6
REMARK    2  A    between atoms: C_7  and  C_8
REMARK    3  A    between atoms: N_16  and  C_17
REMARK    4  A    between atoms: C_17  and  C_18
REMARK    5  A    between atoms: C_22  and  C_24
REMARK                            x       y       z     vdW  Elec       q    Type
REMARK                         _______ _______ _______ _____ _____    ______ ____
ROOT
ATOM      8  C   UNL     1      -2.047   1.364  24.956  0.00  0.00    +0.056 A 
ATOM      9  C   UNL     1      -1.389   0.871  25.031  0.00  0.00    +0.006 A 
ATOM     10  C   UNL     1      -1.492   0.059  25.133  0.00  0.00    +0.013 A 
ATOM     11  C   UNL     1      -2.252  -0.260  25.161  0.00  0.00    +0.041 A 
ATOM     12  C   UNL     1      -2.684  -1.065  25.257  0.00  0.00    +0.054 C 
ATOM     13  C   UNL     1      -2.559  -1.750  25.347  0.00  0.00    +0.011 C 
ATOM     14  C   UNL     1      -3.206  -1.260  25.273  0.00  0.00    +0.039 C 
ATOM     15  C   UNL     1      -4.099  -0.842  25.203  0.00  0.00    +0.074 C 
ATOM     16  N   UNL     1      -3.871  -0.044  25.105  0.00  0.00    -0.269 NA
ATOM     26  C   UNL     1      -3.554  -0.675  25.191  0.00  0.00    +0.078 C 
ATOM     27  C   UNL     1      -2.763  -0.415  25.172  0.00  0.00    +0.110 C 
ATOM     28  N   UNL     1      -2.909   0.233  25.086  0.00  0.00    -0.299 N 
ATOM     29  C   UNL     1      -2.807   1.045  24.983  0.00  0.00    +0.261 A 
ATOM     30  O   UNL     1      -3.464   1.538  24.908  0.00  0.00    -0.267 OA
ENDROOT
BRANCH   8   7
ATOM      6  C   UNL     1      -1.397   2.584  25.318  0.00  0.00    +0.000 C 
ATOM      7  C   UNL     1      -1.943   2.176  24.853  0.00  0.00    +0.005 C 
BRANCH   6   5
ATOM      1 CL   UNL     1      -0.982   5.832  24.911  0.00  0.00    -0.082 Cl
ATOM      2  C   UNL     1      -1.086   5.019  25.013  0.00  0.00    +0.058 A 
ATOM      3  C   UNL     1      -1.749   4.736  25.413  0.00  0.00    +0.011 A 
ATOM      4  C   UNL     1      -1.852   3.923  25.515  0.00  0.00    +0.001 A 
ATOM      5  C   UNL     1      -1.293   3.396  25.216  0.00  0.00    +0.000 A 
ATOM     31  C   UNL     1      -0.630   3.680  24.816  0.00  0.00    +0.001 A 
ATOM     32  C   UNL     1      -0.526   4.492  24.714  0.00  0.00    +0.011 A 
ENDBRANCH   6   5
ENDBRANCH   8   7
BRANCH  16  17
ATOM     17  C   UNL     1      -3.949   0.771  24.998  0.00  0.00    +0.099 C 
BRANCH  17  18
ATOM     18  C   UNL     1      -4.698   1.115  24.979  0.00  0.00    -0.005 A 
ATOM     19  C   UNL     1      -5.107   1.172  24.265  0.00  0.00    -0.003 A 
ATOM     20  C   UNL     1      -5.858   1.516  24.246  0.00  0.00    +0.000 A 
ATOM     21  C   UNL     1      -6.197   1.803  24.941  0.00  0.00    +0.010 A 
ATOM     22  C   UNL     1      -5.788   1.747  25.654  0.00  0.00    +0.068 A 
ATOM     23  C   UNL     1      -5.038   1.402  25.674  0.00  0.00    +0.007 A 
BRANCH  22  24
ATOM     24  C   UNL     1      -6.128   2.033  26.349  0.00  0.00    +0.100 C 
ATOM     25  N   UNL     1      -6.467   2.320  27.045  0.00  0.00    -0.191 NA
ENDBRANCH  22  24
ENDBRANCH  17  18
ENDBRANCH  16  17
TORSDOF 5
ENDMDL
