MODEL 1
REMARK VINA RESULT:     -13.2      0.000      0.000
REMARK  Name = 
REMARK  7 active torsions:
REMARK  status: ('A' for Active; 'I' for Inactive)
REMARK    1  A    between atoms: C_2  and  O_5
REMARK    2  A    between atoms: O_5  and  C_6
REMARK    3  A    between atoms: C_8  and  C_9
REMARK    4  A    between atoms: C_9  and  N_10
REMARK    5  A    between atoms: C_15  and  C_16
REMARK    6  A    between atoms: N_18  and  C_19
REMARK    7  A    between atoms: C_19  and  C_20
REMARK                            x       y       z     vdW  Elec       q    Type
REMARK                         _______ _______ _______ _____ _____    ______ ____
ROOT
ATOM     10  N   UNL     1      -3.383   2.117  24.706  0.00  0.00    -0.257 NA
ATOM     11  C   UNL     1      -3.638   2.762  25.152  0.00  0.00    +0.121 C 
ATOM     12  C   UNL     1      -4.440   2.854  25.325  0.00  0.00    +0.090 A 
ATOM     13  C   UNL     1      -4.986   2.299  25.052  0.00  0.00    +0.077 A 
ATOM     14  C   UNL     1      -4.730   1.653  24.605  0.00  0.00    +0.072 C 
ATOM     15  C   UNL     1      -3.929   1.562  24.433  0.00  0.00    +0.143 C 
ATOM     26  N   UNL     1      -5.735   2.532  25.306  0.00  0.00    -0.227 NA
ATOM     27  C   UNL     1      -5.652   3.230  25.737  0.00  0.00    +0.198 A 
ATOM     28  N   UNL     1      -4.851   3.428  25.748  0.00  0.00    -0.226 NA
ENDROOT
BRANCH  15  16
ATOM     16  C   UNL     1      -3.674   0.917  23.988  0.00  0.00    +0.257 C 
ATOM     17  O   UNL     1      -3.375   1.032  23.227  0.00  0.00    -0.272 OA
ATOM     18  N   UNL     1      -3.719   0.155  24.303  0.00  0.00    -0.199 NA
BRANCH  18  19
ATOM     19  C   UNL     1      -3.465  -0.491  23.857  0.00  0.00    +0.142 C 
BRANCH  19  20
ATOM     20  C   UNL     1      -3.516  -1.253  24.168  0.00  0.00    -0.001 A 
ATOM     21  C   UNL     1      -3.037  -1.473  24.801  0.00  0.00    -0.003 A 
ATOM     22  C   UNL     1      -3.089  -2.236  25.112  0.00  0.00    -0.000 A 
ATOM     23  C   UNL     1      -3.620  -2.778  24.789  0.00  0.00    -0.000 A 
ATOM     24  C   UNL     1      -4.099  -2.558  24.154  0.00  0.00    -0.000 A 
ATOM     25  C   UNL     1      -4.048  -1.795  23.844  0.00  0.00    -0.003 A 
ENDBRANCH  19  20
ENDBRANCH  18  19
ENDBRANCH  15  16
BRANCH  10   9
ATOM      9  C   UNL     1      -2.582   2.026  24.534  0.00  0.00    +0.100 C 
BRANCH   9   8
ATOM      6  C   UNL     1      -1.255   3.723  24.890  0.00  0.00    +0.147 A 
ATOM      7  C   UNL     1      -1.812   3.230  24.533  0.00  0.00    +0.034 A 
ATOM      8  C   UNL     1      -2.024   2.518  24.891  0.00  0.00    -0.003 A 
ATOM     29  C   UNL     1      -1.678   2.298  25.608  0.00  0.00    -0.003 A 
ATOM     30  C   UNL     1      -1.121   2.791  25.965  0.00  0.00    +0.003 A 
ATOM     31  C   UNL     1      -0.910   3.503  25.606  0.00  0.00    +0.037 A 
BRANCH   6   5
ATOM      5  O   UNL     1      -1.044   4.434  24.532  0.00  0.00    -0.404 OA
BRANCH   5   2
ATOM      1  F   UNL     1      -1.269   5.860  25.332  0.00  0.00    -0.133 F 
ATOM      2  C   UNL     1      -1.157   5.147  24.932  0.00  0.00    +0.575 C 
ATOM      3  F   UNL     1      -0.365   5.141  25.165  0.00  0.00    -0.133 F 
ATOM      4  F   UNL     1      -1.948   5.153  24.698  0.00  0.00    -0.133 F 
ENDBRANCH   5   2
ENDBRANCH   6   5
ENDBRANCH   9   8
ENDBRANCH  10   9
TORSDOF 7
ENDMDL
MODEL 2
REMARK VINA RESULT:     -12.5      2.268      3.390
REMARK  Name = 
REMARK  7 active torsions:
REMARK  status: ('A' for Active; 'I' for Inactive)
REMARK    1  A    between atoms: C_2  and  O_5
REMARK    2  A    between atoms: O_5  and  C_6
REMARK    3  A    between atoms: C_8  and  C_9
REMARK    4  A    between atoms: C_9  and  N_10
REMARK    5  A    between atoms: C_15  and  C_16
REMARK    6  A    between atoms: N_18  and  C_19
REMARK    7  A    between atoms: C_19  and  C_20
REMARK                            x       y       z     vdW  Elec       q    Type
REMARK                         _______ _______ _______ _____ _____    ______ ____
ROOT
ATOM     10  N   UNL     1      -0.628   0.660  24.719  0.00  0.00    -0.257 NA
ATOM     11  C   UNL     1      -0.045   1.052  24.287  0.00  0.00    +0.121 C 
ATOM     12  C   UNL     1       0.433   0.632  23.762  0.00  0.00    +0.090 A 
ATOM     13  C   UNL     1       0.328  -0.181  23.669  0.00  0.00    +0.077 A 
ATOM     14  C   UNL     1      -0.255  -0.574  24.102  0.00  0.00    +0.072 C 
ATOM     15  C   UNL     1      -0.733  -0.153  24.626  0.00  0.00    +0.143 C 
ATOM     26  N   UNL     1       0.878  -0.448  23.116  0.00  0.00    -0.227 NA
ATOM     27  C   UNL     1       1.323   0.200  22.866  0.00  0.00    +0.198 A 
ATOM     28  N   UNL     1       1.048   0.867  23.266  0.00  0.00    -0.226 NA
ENDROOT
BRANCH  15  16
ATOM     16  C   UNL     1      -1.316  -0.546  25.058  0.00  0.00    +0.257 C 
ATOM     17  O   UNL     1      -1.223  -0.659  25.870  0.00  0.00    -0.272 OA
ATOM     18  N   UNL     1      -1.992  -0.826  24.677  0.00  0.00    -0.199 NA
BRANCH  18  19
ATOM     19  C   UNL     1      -2.575  -1.219  25.108  0.00  0.00    +0.142 C 
BRANCH  19  20
ATOM     20  C   UNL     1      -3.184  -1.614  24.716  0.00  0.00    -0.001 A 
ATOM     21  C   UNL     1      -3.201  -2.439  24.707  0.00  0.00    -0.003 A 
ATOM     22  C   UNL     1      -3.810  -2.834  24.315  0.00  0.00    -0.000 A 
ATOM     23  C   UNL     1      -4.401  -2.405  23.932  0.00  0.00    -0.000 A 
ATOM     24  C   UNL     1      -4.384  -1.579  23.941  0.00  0.00    -0.000 A 
ATOM     25  C   UNL     1      -3.775  -1.184  24.333  0.00  0.00    -0.003 A 
ENDBRANCH  19  20
ENDBRANCH  18  19
ENDBRANCH  15  16
BRANCH  10   9
ATOM      9  C   UNL     1      -1.106   1.080  25.243  0.00  0.00    +0.100 C 
BRANCH   9   8
ATOM      6  C   UNL     1      -1.141   3.263  25.233  0.00  0.00    +0.147 A 
ATOM      7  C   UNL     1      -1.321   2.480  25.048  0.00  0.00    +0.034 A 
ATOM      8  C   UNL     1      -0.925   1.864  25.428  0.00  0.00    -0.003 A 
ATOM     29  C   UNL     1      -0.347   2.032  25.993  0.00  0.00    -0.003 A 
ATOM     30  C   UNL     1      -0.167   2.815  26.178  0.00  0.00    +0.003 A 
ATOM     31  C   UNL     1      -0.564   3.431  25.798  0.00  0.00    +0.037 A 
BRANCH   6   5
ATOM      5  O   UNL     1      -1.537   3.878  24.854  0.00  0.00    -0.404 OA
BRANCH   5   2
ATOM      1  F   UNL     1      -1.486   5.403  25.481  0.00  0.00    -0.133 F 
ATOM      2  C   UNL     1      -1.512   4.641  25.167  0.00  0.00    +0.575 C 
ATOM      3  F   UNL     1      -2.171   4.471  25.634  0.00  0.00    -0.133 F 
ATOM      4  F   UNL     1      -0.853   4.810  24.701  0.00  0.00    -0.133 F 
ENDBRANCH   5   2
ENDBRANCH   6   5
ENDBRANCH   9   8
ENDBRANCH  10   9
TORSDOF 7
ENDMDL
MODEL 3
REMARK VINA RESULT:     -12.2      2.250      4.299
REMARK  Name = 
REMARK  7 active torsions:
REMARK  status: ('A' for Active; 'I' for Inactive)
REMARK    1  A    between atoms: C_2  and  O_5
REMARK    2  A    between atoms: O_5  and  C_6
REMARK    3  A    between atoms: C_8  and  C_9
REMARK    4  A    between atoms: C_9  and  N_10
REMARK    5  A    between atoms: C_15  and  C_16
REMARK    6  A    between atoms: N_18  and  C_19
REMARK    7  A    between atoms: C_19  and  C_20
REMARK                            x       y       z     vdW  Elec       q    Type
REMARK                         _______ _______ _______ _____ _____    ______ ____
ROOT
ATOM     10  N   UNL     1      -4.137   1.330  24.413  0.00  0.00    -0.257 NA
ATOM     11  C   UNL     1      -4.862   1.108  24.736  0.00  0.00    +0.121 C 
ATOM     12  C   UNL     1      -5.330   1.667  25.123  0.00  0.00    +0.090 A 
ATOM     13  C   UNL     1      -5.072   2.448  25.186  0.00  0.00    +0.077 A 
ATOM     14  C   UNL     1      -4.346   2.670  24.862  0.00  0.00    +0.072 C 
ATOM     15  C   UNL     1      -3.879   2.111  24.476  0.00  0.00    +0.143 C 
ATOM     26  N   UNL     1      -5.647   2.874  25.595  0.00  0.00    -0.227 NA
ATOM     27  C   UNL     1      -6.261   2.357  25.785  0.00  0.00    +0.198 A 
ATOM     28  N   UNL     1      -6.064   1.611  25.493  0.00  0.00    -0.226 NA
ENDROOT
BRANCH  15  16
ATOM     16  C   UNL     1      -3.153   2.333  24.152  0.00  0.00    +0.257 C 
ATOM     17  O   UNL     1      -3.079   2.437  23.337  0.00  0.00    -0.272 OA
ATOM     18  N   UNL     1      -2.501   2.452  24.645  0.00  0.00    -0.199 NA
BRANCH  18  19
ATOM     19  C   UNL     1      -1.776   2.675  24.322  0.00  0.00    +0.142 C 
BRANCH  19  20
ATOM     20  C   UNL     1      -1.084   2.594  24.764  0.00  0.00    -0.001 A 
ATOM     21  C   UNL     1      -1.029   2.944  25.509  0.00  0.00    -0.003 A 
ATOM     22  C   UNL     1      -0.337   2.863  25.951  0.00  0.00    -0.000 A 
ATOM     23  C   UNL     1       0.299   2.433  25.649  0.00  0.00    -0.000 A 
ATOM     24  C   UNL     1       0.243   2.084  24.904  0.00  0.00    -0.000 A 
ATOM     25  C   UNL     1      -0.449   2.164  24.461  0.00  0.00    -0.003 A 
ENDBRANCH  19  20
ENDBRANCH  18  19
ENDBRANCH  15  16
BRANCH  10   9
ATOM      9  C   UNL     1      -3.669   0.771  24.027  0.00  0.00    +0.100 C 
BRANCH   9   8
ATOM      6  C   UNL     1      -3.167  -1.029  25.155  0.00  0.00    +0.147 A 
ATOM      7  C   UNL     1      -3.169  -0.245  24.898  0.00  0.00    +0.034 A 
ATOM      8  C   UNL     1      -3.667  -0.013  24.283  0.00  0.00    -0.003 A 
ATOM     29  C   UNL     1      -4.164  -0.566  23.924  0.00  0.00    -0.003 A 
ATOM     30  C   UNL     1      -4.161  -1.351  24.180  0.00  0.00    +0.003 A 
ATOM     31  C   UNL     1      -3.663  -1.581  24.796  0.00  0.00    +0.037 A 
BRANCH   6   5
ATOM      5  O   UNL     1      -2.669  -1.260  25.770  0.00  0.00    -0.404 OA
BRANCH   5   2
ATOM      1  F   UNL     1      -1.050  -0.956  25.678  0.00  0.00    -0.133 F 
ATOM      2  C   UNL     1      -1.859  -1.108  25.724  0.00  0.00    +0.575 C 
ATOM      3  F   UNL     1      -1.954  -0.455  26.219  0.00  0.00    -0.133 F 
ATOM      4  F   UNL     1      -1.765  -1.761  25.229  0.00  0.00    -0.133 F 
ENDBRANCH   5   2
ENDBRANCH   6   5
ENDBRANCH   9   8
ENDBRANCH  10   9
TORSDOF 7
ENDMDL
MODEL 4
REMARK VINA RESULT:     -12.1      3.306      5.879
REMARK  Name = 
REMARK  7 active torsions:
REMARK  status: ('A' for Active; 'I' for Inactive)
REMARK    1  A    between atoms: C_2  and  O_5
REMARK    2  A    between atoms: O_5  and  C_6
REMARK    3  A    between atoms: C_8  and  C_9
REMARK    4  A    between atoms: C_9  and  N_10
REMARK    5  A    between atoms: C_15  and  C_16
REMARK    6  A    between atoms: N_18  and  C_19
REMARK    7  A    between atoms: C_19  and  C_20
REMARK                            x       y       z     vdW  Elec       q    Type
REMARK                         _______ _______ _______ _____ _____    ______ ____
ROOT
ATOM     10  N   UNL     1      -1.182   0.481  24.788  0.00  0.00    -0.257 NA
ATOM     11  C   UNL     1      -1.017  -0.102  24.229  0.00  0.00    +0.121 C 
ATOM     12  C   UNL     1      -0.309  -0.081  23.806  0.00  0.00    +0.090 A 
ATOM     13  C   UNL     1       0.235   0.524  23.943  0.00  0.00    +0.077 A 
ATOM     14  C   UNL     1       0.071   1.108  24.503  0.00  0.00    +0.072 C 
ATOM     15  C   UNL     1      -0.638   1.086  24.925  0.00  0.00    +0.143 C 
ATOM     26  N   UNL     1       0.882   0.402  23.446  0.00  0.00    -0.227 NA
ATOM     27  C   UNL     1       0.738  -0.278  23.002  0.00  0.00    +0.198 A 
ATOM     28  N   UNL     1       0.002  -0.576  23.225  0.00  0.00    -0.226 NA
ENDROOT
BRANCH  15  16
ATOM     16  C   UNL     1      -0.801   1.670  25.484  0.00  0.00    +0.257 C 
ATOM     17  O   UNL     1      -0.767   1.492  26.289  0.00  0.00    -0.272 OA
ATOM     18  N   UNL     1      -0.999   2.433  25.238  0.00  0.00    -0.199 NA
BRANCH  18  19
ATOM     19  C   UNL     1      -1.163   3.016  25.797  0.00  0.00    +0.142 C 
BRANCH  19  20
ATOM     20  C   UNL     1      -1.368   3.777  25.552  0.00  0.00    -0.001 A 
ATOM     21  C   UNL     1      -0.809   4.255  25.180  0.00  0.00    -0.003 A 
ATOM     22  C   UNL     1      -1.015   5.016  24.935  0.00  0.00    -0.000 A 
ATOM     23  C   UNL     1      -1.779   5.298  25.062  0.00  0.00    -0.000 A 
ATOM     24  C   UNL     1      -2.339   4.819  25.435  0.00  0.00    -0.000 A 
ATOM     25  C   UNL     1      -2.134   4.058  25.680  0.00  0.00    -0.003 A 
ENDBRANCH  19  20
ENDBRANCH  18  19
ENDBRANCH  15  16
BRANCH  10   9
ATOM      9  C   UNL     1      -1.889   0.460  25.210  0.00  0.00    +0.100 C 
BRANCH   9   8
ATOM      6  C   UNL     1      -3.348  -1.138  24.920  0.00  0.00    +0.147 A 
ATOM      7  C   UNL     1      -2.705  -0.714  25.214  0.00  0.00    +0.034 A 
ATOM      8  C   UNL     1      -2.533   0.036  24.916  0.00  0.00    -0.003 A 
ATOM     29  C   UNL     1      -3.005   0.361  24.321  0.00  0.00    -0.003 A 
ATOM     30  C   UNL     1      -3.648  -0.064  24.027  0.00  0.00    +0.003 A 
ATOM     31  C   UNL     1      -3.819  -0.813  24.327  0.00  0.00    +0.037 A 
BRANCH   6   5
ATOM      5  O   UNL     1      -3.520  -1.887  25.219  0.00  0.00    -0.404 OA
BRANCH   5   2
ATOM      1  F   UNL     1      -3.441  -3.207  24.233  0.00  0.00    -0.133 F 
ATOM      2  C   UNL     1      -3.481  -2.547  24.726  0.00  0.00    +0.575 C 
ATOM      3  F   UNL     1      -2.704  -2.683  24.969  0.00  0.00    -0.133 F 
ATOM      4  F   UNL     1      -4.257  -2.411  24.482  0.00  0.00    -0.133 F 
ENDBRANCH   5   2
ENDBRANCH   6   5
ENDBRANCH   9   8
ENDBRANCH  10   9
TORSDOF 7
ENDMDL
MODEL 5
REMARK VINA RESULT:     -12.0      2.310      3.441
REMARK  Name = 
REMARK  7 active torsions:
REMARK  status: ('A' for Active; 'I' for Inactive)
REMARK    1  A    between atoms: C_2  and  O_5
REMARK    2  A    between atoms: O_5  and  C_6
REMARK    3  A    between atoms: C_8  and  C_9
REMARK    4  A    between atoms: C_9  and  N_10
REMARK    5  A    between atoms: C_15  and  C_16
REMARK    6  A    between atoms: N_18  and  C_19
REMARK    7  A    between atoms: C_19  and  C_20
REMARK                            x       y       z     vdW  Elec       q    Type
REMARK                         _______ _______ _______ _____ _____    ______ ____
ROOT
ATOM     10  N   UNL     1      -2.102   2.019  24.657  0.00  0.00    -0.257 NA
ATOM     11  C   UNL     1      -1.868   2.639  25.148  0.00  0.00    +0.121 C 
ATOM     12  C   UNL     1      -1.178   2.572  25.596  0.00  0.00    +0.090 A 
ATOM     13  C   UNL     1      -0.723   1.885  25.552  0.00  0.00    +0.077 A 
ATOM     14  C   UNL     1      -0.958   1.265  25.060  0.00  0.00    +0.072 C 
ATOM     15  C   UNL     1      -1.648   1.333  24.613  0.00  0.00    +0.143 C 
ATOM     26  N   UNL     1      -0.074   1.976  26.053  0.00  0.00    -0.227 NA
ATOM     27  C   UNL     1      -0.128   2.719  26.407  0.00  0.00    +0.198 A 
ATOM     28  N   UNL     1      -0.810   3.087  26.124  0.00  0.00    -0.226 NA
ENDROOT
BRANCH  15  16
ATOM     16  C   UNL     1      -1.882   0.713  24.122  0.00  0.00    +0.257 C 
ATOM     17  O   UNL     1      -1.802   0.781  23.304  0.00  0.00    -0.272 OA
ATOM     18  N   UNL     1      -2.197   0.024  24.450  0.00  0.00    -0.199 NA
BRANCH  18  19
ATOM     19  C   UNL     1      -2.432  -0.596  23.959  0.00  0.00    +0.142 C 
BRANCH  19  20
ATOM     20  C   UNL     1      -2.819  -1.251  24.277  0.00  0.00    -0.001 A 
ATOM     21  C   UNL     1      -2.384  -1.860  24.623  0.00  0.00    -0.003 A 
ATOM     22  C   UNL     1      -2.771  -2.515  24.941  0.00  0.00    -0.000 A 
ATOM     23  C   UNL     1      -3.594  -2.562  24.913  0.00  0.00    -0.000 A 
ATOM     24  C   UNL     1      -4.030  -1.952  24.567  0.00  0.00    -0.000 A 
ATOM     25  C   UNL     1      -3.643  -1.297  24.248  0.00  0.00    -0.003 A 
ENDBRANCH  19  20
ENDBRANCH  18  19
ENDBRANCH  15  16
BRANCH  10   9
ATOM      9  C   UNL     1      -2.792   2.086  24.210  0.00  0.00    +0.100 C 
BRANCH   9   8
ATOM      6  C   UNL     1      -4.614   2.737  25.220  0.00  0.00    +0.147 A 
ATOM      7  C   UNL     1      -3.998   2.256  24.958  0.00  0.00    +0.034 A 
ATOM      8  C   UNL     1      -3.408   2.568  24.472  0.00  0.00    -0.003 A 
ATOM     29  C   UNL     1      -3.436   3.362  24.249  0.00  0.00    -0.003 A 
ATOM     30  C   UNL     1      -4.052   3.844  24.511  0.00  0.00    +0.003 A 
ATOM     31  C   UNL     1      -4.641   3.530  24.997  0.00  0.00    +0.037 A 
BRANCH   6   5
ATOM      5  O   UNL     1      -5.203   2.425  25.706  0.00  0.00    -0.404 OA
BRANCH   5   2
ATOM      1  F   UNL     1      -6.464   1.593  25.042  0.00  0.00    -0.133 F 
ATOM      2  C   UNL     1      -5.833   2.009  25.374  0.00  0.00    +0.575 C 
ATOM      3  F   UNL     1      -6.221   2.721  25.219  0.00  0.00    -0.133 F 
ATOM      4  F   UNL     1      -5.446   1.298  25.529  0.00  0.00    -0.133 F 
ENDBRANCH   5   2
ENDBRANCH   6   5
ENDBRANCH   9   8
ENDBRANCH  10   9
TORSDOF 7
ENDMDL
MODEL 6
REMARK VINA RESULT:     -11.7      2.733      4.698
REMARK  Name = 
REMARK  7 active torsions:
REMARK  status: ('A' for Active; 'I' for Inactive)
REMARK    1  A    between atoms: C_2  and  O_5
REMARK    2  A    between atoms: O_5  and  C_6
REMARK    3  A    between atoms: C_8  and  C_9
REMARK    4  A    between atoms: C_9  and  N_10
REMARK    5  A    between atoms: C_15  and  C_16
REMARK    6  A    between atoms: N_18  and  C_19
REMARK    7  A    between atoms: C_19  and  C_20
REMARK                            x       y       z     vdW  Elec       q    Type
REMARK                         _______ _______ _______ _____ _____    ______ ____
ROOT
ATOM     10  N   UNL     1      -1.442   1.445  24.696  0.00  0.00    -0.257 NA
ATOM     11  C   UNL     1      -0.731   1.342  25.100  0.00  0.00    +0.121 C 
ATOM     12  C   UNL     1      -0.396   1.971  25.515  0.00  0.00    +0.090 A 
ATOM     13  C   UNL     1      -0.774   2.705  25.526  0.00  0.00    +0.077 A 
ATOM     14  C   UNL     1      -1.486   2.808  25.121  0.00  0.00    +0.072 C 
ATOM     15  C   UNL     1      -1.819   2.178  24.706  0.00  0.00    +0.143 C 
ATOM     26  N   UNL     1      -0.317   3.220  25.979  0.00  0.00    -0.227 NA
ATOM     27  C   UNL     1       0.343   2.806  26.248  0.00  0.00    +0.198 A 
ATOM     28  N   UNL     1       0.294   2.034  25.962  0.00  0.00    -0.226 NA
ENDROOT
BRANCH  15  16
ATOM     16  C   UNL     1      -2.531   2.282  24.302  0.00  0.00    +0.257 C 
ATOM     17  O   UNL     1      -2.536   2.316  23.478  0.00  0.00    -0.272 OA
ATOM     18  N   UNL     1      -3.238   2.353  24.723  0.00  0.00    -0.199 NA
BRANCH  18  19
ATOM     19  C   UNL     1      -3.949   2.457  24.319  0.00  0.00    +0.142 C 
BRANCH  19  20
ATOM     20  C   UNL     1      -4.664   2.434  24.729  0.00  0.00    -0.001 A 
ATOM     21  C   UNL     1      -4.887   3.068  25.206  0.00  0.00    -0.003 A 
ATOM     22  C   UNL     1      -5.602   3.045  25.617  0.00  0.00    -0.000 A 
ATOM     23  C   UNL     1      -6.095   2.387  25.550  0.00  0.00    -0.000 A 
ATOM     24  C   UNL     1      -5.872   1.752  25.072  0.00  0.00    -0.000 A 
ATOM     25  C   UNL     1      -5.157   1.775  24.662  0.00  0.00    -0.003 A 
ENDBRANCH  19  20
ENDBRANCH  18  19
ENDBRANCH  15  16
BRANCH  10   9
ATOM      9  C   UNL     1      -1.775   0.815  24.281  0.00  0.00    +0.100 C 
BRANCH   9   8
ATOM      6  C   UNL     1      -2.078  -1.079  25.322  0.00  0.00    +0.147 A 
ATOM      7  C   UNL     1      -2.195  -0.305  25.062  0.00  0.00    +0.034 A 
ATOM      8  C   UNL     1      -1.658   0.041  24.541  0.00  0.00    -0.003 A 
ATOM     29  C   UNL     1      -1.002  -0.387  24.281  0.00  0.00    -0.003 A 
ATOM     30  C   UNL     1      -0.884  -1.161  24.541  0.00  0.00    +0.003 A 
ATOM     31  C   UNL     1      -1.423  -1.507  25.062  0.00  0.00    +0.037 A 
BRANCH   6   5
ATOM      5  O   UNL     1      -2.616  -1.425  25.842  0.00  0.00    -0.404 OA
BRANCH   5   2
ATOM      1  F   UNL     1      -4.164  -1.719  25.354  0.00  0.00    -0.133 F 
ATOM      2  C   UNL     1      -3.390  -1.572  25.598  0.00  0.00    +0.575 C 
ATOM      3  F   UNL     1      -3.639  -0.880  25.972  0.00  0.00    -0.133 F 
ATOM      4  F   UNL     1      -3.141  -2.264  25.225  0.00  0.00    -0.133 F 
ENDBRANCH   5   2
ENDBRANCH   6   5
ENDBRANCH   9   8
ENDBRANCH  10   9
TORSDOF 7
ENDMDL
